@<TRIPOS>MOLECULE
1J1
   35    33     1     0     0
SMALL
bcc


@<TRIPOS>ATOM
      1 C4         -2.0700   -0.3190   -1.0830 c3        1 1J1     -0.153000
      2 C5         -0.5860   -0.0790   -1.0840 c3        1 1J1     -0.173000
      3 C6         -0.0290   -0.2940    0.3420 c3        1 1J1     -0.029000
      4 C10         2.0550    0.0880    1.6270 c1        1 1J1      0.310000
      5 C13         4.8040    0.2270    3.7900 c3        1 1J1     -0.184000
      6 O8         -4.1680    0.6130   -4.7680 o         1 1J1     -0.579000
      7 C1         -4.5710    0.6750   -3.5430 c1        1 1J1      0.307000
      8 O9         -5.2850    1.6510   -3.1600 o         1 1J1     -0.579000
      9 C2         -4.1020   -0.3420   -2.5500 c2        1 1J1     -0.129000
     10 N18        -4.6000   -1.6300   -2.9150 n3        1 1J1     -0.324000
     11 C3         -2.5800   -0.3700   -2.5370 c3        1 1J1     -0.142000
     12 N7          1.2680    0.2800    0.4370 n2        1 1J1     -0.360000
     13 O16         1.6810   -0.6890    2.4860 o         1 1J1     -0.390000
     14 C11         3.2620    0.8710    1.8280 c3        1 1J1     -0.102000
     15 C12         3.5360    1.1080    3.4590 c3        1 1J1     -0.180000
     16 C14         4.9690   -0.4170    2.6390 c2        1 1J1     -0.093000
     17 N17         4.2910    0.1790    1.5210 n2        1 1J1     -0.153000
     18 H1         -2.5310    0.4260   -0.5890 hc        1 1J1      0.080000
     19 H2         -2.2620   -1.1750   -0.6390 hc        1 1J1      0.080000
     20 H3         -0.1490   -0.7160   -1.7100 hc        1 1J1      0.080000
     21 H4         -0.4010    0.8430   -1.3740 hc        1 1J1      0.080000
     22 H5         -0.6420    0.1470    1.0130 h1        1 1J1      0.090500
     23 H6          0.0250   -1.2560    0.5320 h1        1 1J1      0.090500
     24 H7          5.6270    0.7430    4.0440 hc        1 1J1      0.101000
     25 H8          4.6670   -0.3590    4.5780 hc        1 1J1      0.101000
     26 H10        -4.4350   -0.1040   -1.6540 h4        1 1J1      0.081000
     27 H11        -5.0230   -1.9990   -2.2080 hn        1 1J1      0.125000
     28 H12        -5.2010   -1.5420   -3.6260 hn        1 1J1      0.125000
     29 H14        -2.2340    0.4030   -3.0310 hc        1 1J1      0.086000
     30 H15        -2.2630   -1.2060   -2.9680 hc        1 1J1      0.086000
     31 H16         1.6190    0.6970   -0.2620 hn        1 1J1      0.237000
     32 H17         3.0710    1.6430    1.2940 h1        1 1J1      0.127000
     33 H18         2.7690    0.8050    3.9760 hc        1 1J1      0.111000
     34 H19         3.7200    2.0540    3.6400 hc        1 1J1      0.111000
     35 H20         5.7680   -0.9560    2.4930 h4        1 1J1      0.161000
@<TRIPOS>BOND
     1    1    2 1   
     2    1   11 1   
     3    1   18 1   
     4    1   19 1   
     5    2    3 1   
     6    2   20 1   
     7    2   21 1   
     8    3   12 1   
     9    3   22 1   
    10    3   23 1   
    11    4   13 1   
    12    4   14 1   
    13    5   15 1   
    14    5   16 1   
    15    5   24 1   
    16    5   25 1   
    17    6    7 1   
    18    7    8 1   
    19    9   10 1   
    20    9   11 1   
    21    9   26 1   
    22   10   27 1   
    23   10   28 1   
    24   11   29 1   
    25   11   30 1   
    26   12   31 1   
    27   14   15 1   
    28   14   17 1   
    29   14   32 1   
    30   15   33 1   
    31   15   34 1   
    32   16   17 1   
    33   16   35 1   
@<TRIPOS>SUBSTRUCTURE
     1 1J1         1 TEMP              0 ****  ****    0 ROOT
