@<TRIPOS>MOLECULE
1J2
   64    57     1     0     0
SMALL
bcc


@<TRIPOS>ATOM
      1 N1         -0.1920   -1.4670   -4.4160 n1        1 1J2     -0.228000
      2 C2          0.6040   -0.4530   -3.9640 c1        1 1J2      0.174000
      3 N3          1.1030   -0.4890   -2.6890 n1        1 1J2     -0.264000
      4 C4          0.8090   -1.5220   -1.8810 c1        1 1J2      0.204000
      5 C5          0.0110   -2.5390   -2.3330 c1        1 1J2     -0.316000
      6 C6         -0.4870   -2.5030   -3.6090 c1        1 1J2      0.013000
      7 N7          1.2990   -1.5390   -0.5300 n2        1 1J2     -0.131000
      8 C8          1.2650   -2.6050    1.4280 c1        1 1J2     -0.165000
      9 C9          1.8390   -2.5890    0.1690 c1        1 1J2     -0.085000
     10 C10         0.3680   -1.5580    1.5020 c1        1 1J2     -0.098000
     11 C11         0.3870   -0.8980    0.2930 c1        1 1J2      0.046000
     12 C12        -0.4910    0.1840    0.0660 c1        1 1J2     -0.134000
     13 C13        -1.3780    0.5830    1.0640 c1        1 1J2     -0.146000
     14 C14        -1.3970   -0.0840    2.2870 c1        1 1J2     -0.146000
     15 C15        -0.5300   -1.1520    2.5130 c1        1 1J2      0.075000
     16 N16        -0.3640   -0.5730    3.8260 n3        1 1J2     -0.225000
     17 N17         0.9370    0.6420   -4.8360 n2        1 1J2     -0.261000
     18 C18        -0.0960    1.3150   -5.5700 c3        1 1J2      0.010000
     19 C19         0.0310    0.9510   -7.0480 c3        1 1J2     -0.171500
     20 C20        -0.9100    1.7600   -7.9290 c3        1 1J2     -0.171500
     21 C21        -0.7910    3.2570   -7.6870 c3        1 1J2      0.028000
     22 C22        -0.9180    3.6210   -6.2080 c3        1 1J2     -0.171500
     23 C23         0.0230    2.8130   -5.3270 c3        1 1J2     -0.171500
     24 O24        -1.8100    3.9210   -8.4110 oh        1 1J2     -0.325000
     25 C25        -1.3510   -1.1330    4.7310 c3        1 1J2     -0.048000
     26 C26        -1.1640   -0.6720    6.1720 c3        1 1J2     -0.168500
     27 C27         0.2510   -0.8970    6.6900 c3        1 1J2     -0.779000
     28 C28         1.2370   -0.2920    5.7000 c3        1 1J2     -0.168500
     29 C29         1.0050   -0.7610    4.2680 c3        1 1J2     -0.048000
     30 S30         0.4550   -0.2310    8.3890 s4        1 1J2      2.020800
     31 O31         1.1040    1.0590    8.3710 o         1 1J2     -0.537400
     32 O32        -0.8180    0.1040    8.9760 o         1 1J2     -0.537400
     33 C33         1.3580   -1.4000    9.4130 c2        1 1J2     -0.946000
     34 H1         -0.2040   -3.2940   -1.7430 ha        1 1J2      0.158000
     35 H2         -1.0600   -3.2320   -3.9340 ha        1 1J2      0.166000
     36 H3          1.4620   -3.2480    2.1440 DU        1 1J2      0.167000
     37 H4          2.5300   -3.2060   -0.1590 DU        1 1J2      0.167000
     38 H5         -0.4780    0.6550   -0.7970 ha        1 1J2      0.158000
     39 H6         -1.9900    1.3360    0.9050 ha        1 1J2      0.133000
     40 H7         -2.0220    0.1980    2.9900 ha        1 1J2      0.133000
     41 H8          1.8130    0.9020   -4.9330 hn        1 1J2      0.219000
     42 H9         -0.9720    1.0080   -5.2410 h1        1 1J2      0.131000
     43 H10         0.9550    1.1150   -7.3360 hc        1 1J2      0.089500
     44 H11        -0.1720   -0.0050   -7.1590 hc        1 1J2      0.089500
     45 H12        -1.8350    1.4810   -7.7460 hc        1 1J2      0.095000
     46 H13        -0.7020    1.5730   -8.8720 hc        1 1J2      0.095000
     47 H14         0.0850    3.5640   -8.0160 h1        1 1J2      0.072000
     48 H15        -1.8440    3.4570   -5.9180 hc        1 1J2      0.095000
     49 H16        -0.7140    4.5810   -6.0970 hc        1 1J2      0.095000
     50 H17        -0.1850    3.0000   -4.3830 hc        1 1J2      0.089500
     51 H18         0.9470    3.0920   -5.5100 hc        1 1J2      0.089500
     52 H19        -1.4460    4.5460   -8.9320 ho        1 1J2      0.198000
     53 H20        -2.2480   -0.8660    4.4260 h1        1 1J2      0.099250
     54 H21        -1.2860   -2.1150    4.7020 h1        1 1J2      0.099250
     55 H22        -1.7950   -1.1670    6.7480 hc        1 1J2      0.104250
     56 H23        -1.3730    0.2890    6.2270 hc        1 1J2      0.104250
     57 H24         0.4380   -1.8490    6.8330 h1        1 1J2      0.149000
     58 H25         1.1540    0.6880    5.7290 hc        1 1J2      0.104250
     59 H26         2.1520   -0.5410    5.9700 hc        1 1J2      0.104250
     60 H27         1.2290   -1.7170    4.2080 h1        1 1J2      0.099250
     61 H28         1.6020   -0.2570    3.6700 h1        1 1J2      0.099250
     62 H29         2.1870   -1.6670    8.9550 ha        1 1J2      0.157333
     63 H30         0.8000   -2.1950    9.5720 ha        1 1J2      0.157333
     64 H31         1.5810   -0.9760   10.2780 ha        1 1J2      0.157333
@<TRIPOS>BOND
     1    1    6 1   
     2    2    3 1   
     3    4    5 1   
     4    5   34 1   
     5    6   35 1   
     6    7    9 1   
     7    7   11 1   
     8    8    9 1   
     9    8   10 1   
    10   10   15 1   
    11   11   12 1   
    12   12   38 1   
    13   13   14 1   
    14   13   39 1   
    15   14   40 1   
    16   15   16 1   
    17   16   25 1   
    18   16   29 1   
    19   17   18 1   
    20   17   41 1   
    21   18   19 1   
    22   18   23 1   
    23   18   42 1   
    24   19   20 1   
    25   19   43 1   
    26   19   44 1   
    27   20   21 1   
    28   20   45 1   
    29   20   46 1   
    30   21   22 1   
    31   21   24 1   
    32   21   47 1   
    33   22   23 1   
    34   22   48 1   
    35   22   49 1   
    36   23   50 1   
    37   23   51 1   
    38   24   52 1   
    39   25   26 1   
    40   25   53 1   
    41   25   54 1   
    42   26   27 1   
    43   26   55 1   
    44   26   56 1   
    45   27   28 1   
    46   27   30 1   
    47   27   57 1   
    48   28   29 1   
    49   28   58 1   
    50   28   59 1   
    51   29   60 1   
    52   29   61 1   
    53   30   31 1   
    54   30   32 1   
    55   33   62 1   
    56   33   63 1   
    57   33   64 1   
@<TRIPOS>SUBSTRUCTURE
     1 1J2         1 TEMP              0 ****  ****    0 ROOT
