@<TRIPOS>MOLECULE
1J2
   65    69     1     0     0
SMALL
bcc


@<TRIPOS>ATOM
      1 N1         -0.4440   -1.8250    0.0280 nb        1 1J2     -0.707000
      2 C2          0.8850   -1.5180   -0.0640 ca        1 1J2      0.745900
      3 N3          1.7410   -1.1390    0.9290 nb        1 1J2     -0.744000
      4 C4          1.1930   -1.0450    2.1940 ca        1 1J2      0.611800
      5 C5         -0.2030   -1.3460    2.3890 ca        1 1J2     -0.359600
      6 C6         -0.9550   -1.7280    1.2790 ca        1 1J2      0.475200
      7 N7          1.9840   -0.6440    3.2530 na        1 1J2     -0.116200
      8 C8          2.7120   -0.5610    5.4320 cc        1 1J2     -0.083200
      9 C9          1.6510   -0.8910    4.6240 cd        1 1J2     -0.140100
     10 C10         3.7960   -0.0920    4.5820 ca        1 1J2     -0.118800
     11 C11         3.3210   -0.1470    3.2220 ca        1 1J2     -0.004200
     12 C12         4.1030    0.3200    2.1670 ca        1 1J2     -0.155000
     13 C13         5.3670    0.8210    2.4800 ca        1 1J2     -0.080000
     14 C14         5.8550    0.8590    3.7830 ca        1 1J2     -0.186000
     15 C15         5.0830    0.4000    4.8760 ca        1 1J2      0.205600
     16 N16         5.5110    0.4910    6.2160 nh        1 1J2     -0.644000
     17 N17         1.4890   -1.6220   -1.4300 n4        1 1J2     -0.748700
     18 C18         1.2880   -0.3510   -2.2290 c3        1 1J2      0.129500
     19 C19         1.2740   -0.6630   -3.7320 c3        1 1J2     -0.098400
     20 C20         0.9870    0.6070   -4.5030 c3        1 1J2     -0.100400
     21 C21         2.0080    1.6980   -4.1860 c3        1 1J2      0.141100
     22 C22         2.0850    1.9590   -2.6830 c3        1 1J2     -0.100400
     23 C23         2.3750    0.6840   -1.9220 c3        1 1J2     -0.098400
     24 O24         1.6130    2.9270   -4.7720 oh        1 1J2     -0.580800
     25 C25         5.6520   -0.7700    6.9320 c3        1 1J2      0.196800
     26 C26         5.7950   -0.5630    8.4380 c3        1 1J2     -0.059900
     27 C27         6.9380    0.3870    8.7610 c3        1 1J2     -0.279900
     28 C28         6.7560    1.6810    7.9950 c3        1 1J2     -0.059900
     29 C29         6.5850    1.4310    6.4960 c3        1 1J2      0.196800
     30 S30         7.0020    0.6170   10.4790 s6        1 1J2      1.330000
     31 O31         5.9040    1.3830   10.8860 o         1 1J2     -0.644300
     32 O32         7.1860   -0.6350   11.0780 o         1 1J2     -0.644300
     33 C33         8.4150    1.5260   10.6050 c3        1 1J2     -0.376300
     34 H1         -0.6770   -1.2660    3.3770 ha        1 1J2      0.190000
     35 H2         -2.0340   -1.9730    1.3650 h4        1 1J2      0.069100
     36 H3          2.7400   -0.6060    6.5210 ha        1 1J2      0.185000
     37 H4          0.6690   -1.2850    4.8950 h4        1 1J2      0.180000
     38 H5          3.7610    0.3190    1.1260 ha        1 1J2      0.138000
     39 H6          6.0050    1.1970    1.6630 ha        1 1J2      0.141000
     40 H7          6.8670    1.2600    3.9530 ha        1 1J2      0.148000
     41 H8          2.4950   -1.8140   -1.3420 hn        1 1J2      0.468800
     42 H9          0.2770    0.0670   -1.9340 hx        1 1J2      0.122700
     43 H10         0.4820   -1.4230   -3.9690 hc        1 1J2      0.068200
     44 H11         2.2670   -1.0810   -4.0480 hc        1 1J2      0.068200
     45 H12         1.0110    0.3790   -5.6010 hc        1 1J2      0.078700
     46 H13        -0.0410    0.9860   -4.2630 hc        1 1J2      0.078700
     47 H14         3.0210    1.3930   -4.5750 h1        1 1J2      0.043700
     48 H15         2.8980    2.7060   -2.4820 hc        1 1J2      0.078700
     49 H16         1.1210    2.4150   -2.3380 hc        1 1J2      0.078700
     50 H17         2.4070    0.9100   -0.8230 hc        1 1J2      0.068200
     51 H18         3.3810    0.2840   -2.2220 hc        1 1J2      0.068200
     52 H19         1.6630    2.8150   -5.7300 ho        1 1J2      0.416000
     53 H20         6.5560   -1.3370    6.5600 h1        1 1J2      0.044200
     54 H21         4.7430   -1.4030    6.7330 h1        1 1J2      0.044200
     55 H22         5.9860   -1.5630    8.9130 hc        1 1J2      0.071700
     56 H23         4.8390   -0.1490    8.8570 hc        1 1J2      0.071700
     57 H24         7.8890   -0.0980    8.4030 h1        1 1J2      0.107700
     58 H25         7.6560    2.3380    8.1290 hc        1 1J2      0.071700
     59 H26         5.8590    2.2280    8.3950 hc        1 1J2      0.071700
     60 H27         7.5690    1.0620    6.0820 h1        1 1J2      0.044200
     61 H28         6.3360    2.4090    5.9930 h1        1 1J2      0.044200
     62 H29         8.8580    1.4400   11.6320 h1        1 1J2      0.123367
     63 H30         8.2450    2.6190   10.4350 h1        1 1J2      0.123367
     64 H31         9.2280    1.2180    9.9030 h1        1 1J2      0.123367
     65 H172        1.0390   -2.4040   -1.9250 hn        1 1J2      0.468800
@<TRIPOS>BOND
     1    1    2 ar  
     2    1    6 ar  
     3    2    3 ar  
     4    2   17 1   
     5    3    4 ar  
     6    4    5 ar  
     7    4    7 1   
     8    5    6 ar  
     9    5   34 1   
    10    6   35 1   
    11    7    9 1   
    12    7   11 1   
    13    8    9 2   
    14    8   10 1   
    15    8   36 1   
    16    9   37 1   
    17   10   11 ar  
    18   10   15 ar  
    19   11   12 ar  
    20   12   13 ar  
    21   12   38 1   
    22   13   14 ar  
    23   13   39 1   
    24   14   15 ar  
    25   14   40 1   
    26   15   16 1   
    27   16   25 1   
    28   16   29 1   
    29   17   18 1   
    30   17   41 1   
    31   17   65 1   
    32   18   19 1   
    33   18   23 1   
    34   18   42 1   
    35   19   20 1   
    36   19   43 1   
    37   19   44 1   
    38   20   21 1   
    39   20   45 1   
    40   20   46 1   
    41   21   22 1   
    42   21   24 1   
    43   21   47 1   
    44   22   23 1   
    45   22   48 1   
    46   22   49 1   
    47   23   50 1   
    48   23   51 1   
    49   24   52 1   
    50   25   26 1   
    51   25   53 1   
    52   25   54 1   
    53   26   27 1   
    54   26   55 1   
    55   26   56 1   
    56   27   28 1   
    57   27   30 1   
    58   27   57 1   
    59   28   29 1   
    60   28   58 1   
    61   28   59 1   
    62   29   60 1   
    63   29   61 1   
    64   30   31 2   
    65   30   32 2   
    66   30   33 1   
    67   33   62 1   
    68   33   63 1   
    69   33   64 1   
@<TRIPOS>SUBSTRUCTURE
     1 1J2         1 TEMP              0 ****  ****    0 ROOT
