@<TRIPOS>MOLECULE
1J2
   64    68     1     0     0
SMALL
bcc


@<TRIPOS>ATOM
      1 N1         -0.1260   -0.5610   -0.1310 nb        1 1J2     -0.753000
      2 C2          1.2550   -0.3890   -0.1270 ca        1 1J2      0.892900
      3 N3          2.0410   -0.3290    1.0160 nb        1 1J2     -0.792000
      4 C4          1.4090   -0.5090    2.2120 ca        1 1J2      0.595800
      5 C5         -0.0010   -0.7260    2.2840 ca        1 1J2     -0.445600
      6 C6         -0.6980   -0.7300    1.0680 ca        1 1J2      0.479200
      7 N7          2.1650   -0.4790    3.3960 na        1 1J2     -0.124200
      8 C8          2.6410    0.0200    5.5870 cc        1 1J2     -0.143200
      9 C9          1.6310   -0.0840    4.6490 cd        1 1J2     -0.110100
     10 C10         3.8880   -0.2970    4.9190 ca        1 1J2     -0.074800
     11 C11         3.5680   -0.5880    3.5410 ca        1 1J2     -0.015200
     12 C12         4.5700   -0.9560    2.6350 ca        1 1J2     -0.115000
     13 C13         5.8760   -1.0130    3.1070 ca        1 1J2     -0.117000
     14 C14         6.2040   -0.7250    4.4360 ca        1 1J2     -0.174000
     15 C15         5.2180   -0.3650    5.3690 ca        1 1J2      0.123600
     16 N16         5.4940   -0.0710    6.7460 nh        1 1J2     -0.616000
     17 N17         1.9480   -0.3450   -1.3500 nu        1 1J2     -0.816900
     18 C18         1.2650    0.0460   -2.5720 c3        1 1J2      0.206500
     19 C19         2.1430   -0.2780   -3.7970 c3        1 1J2     -0.092900
     20 C20         1.3900    0.0250   -5.0720 c3        1 1J2     -0.092900
     21 C21         0.9550    1.4870   -5.1190 c3        1 1J2      0.139100
     22 C22         0.1180    1.8440   -3.8940 c3        1 1J2     -0.092900
     23 C23         0.8730    1.5340   -2.6220 c3        1 1J2     -0.092900
     24 O24         0.1360    1.7400   -6.2540 oh        1 1J2     -0.597800
     25 C25         6.0400   -1.2200    7.4630 c3        1 1J2      0.179800
     26 C26         6.3060   -0.9210    8.9350 c3        1 1J2     -0.055900
     27 C27         7.2030    0.2980    9.0970 c3        1 1J2     -0.284900
     28 C28         6.5820    1.4720    8.3650 c3        1 1J2     -0.055900
     29 C29         6.3030    1.1330    6.9020 c3        1 1J2      0.179800
     30 S30         7.4630    0.5990   10.7740 s6        1 1J2      1.326000
     31 O31         6.2870    1.0630   11.3770 o         1 1J2     -0.650300
     32 O32         8.0830   -0.5220   11.3450 o         1 1J2     -0.650300
     33 C33         8.5810    1.8640   10.6800 c3        1 1J2     -0.368300
     34 H1         -0.5220   -0.8960    3.2310 ha        1 1J2      0.159000
     35 H2         -1.7950   -0.8790    1.0520 h4        1 1J2      0.029100
     36 H3          2.5430    0.2850    6.6370 ha        1 1J2      0.173000
     37 H4          0.5590    0.0900    4.7610 h4        1 1J2      0.172000
     38 H5          4.3480   -1.1960    1.5870 ha        1 1J2      0.159000
     39 H6          6.6820   -1.2960    2.4110 ha        1 1J2      0.132000
     40 H7          7.2580   -0.7870    4.7480 ha        1 1J2      0.130000
     41 H8          2.8880   -0.0090   -1.2830 hn        1 1J2      0.422800
     42 H9          0.3200   -0.5700   -2.6550 h1        1 1J2      0.091700
     43 H10         3.0870    0.3280   -3.7620 hc        1 1J2      0.050200
     44 H11         2.4310   -1.3610   -3.7840 hc        1 1J2      0.050200
     45 H12         0.4830   -0.6290   -5.1510 hc        1 1J2      0.055950
     46 H13         2.0450   -0.1990   -5.9540 hc        1 1J2      0.055950
     47 H14         1.8650    2.1500   -5.1670 h1        1 1J2      0.031700
     48 H15        -0.1390    2.9340   -3.9310 hc        1 1J2      0.055950
     49 H16        -0.8440    1.2690   -3.9270 hc        1 1J2      0.055950
     50 H17         0.2250    1.7840   -1.7420 hc        1 1J2      0.050200
     51 H18         1.7940    2.1710   -2.5610 hc        1 1J2      0.050200
     52 H19         0.6380    1.4580   -7.0280 ho        1 1J2      0.399000
     53 H20         5.2810   -2.0500    7.3920 h1        1 1J2      0.040700
     54 H21         6.9990   -1.5870    6.9920 h1        1 1J2      0.040700
     55 H22         6.7990   -1.8180    9.3950 hc        1 1J2      0.065200
     56 H23         5.3340   -0.7380    9.4660 hc        1 1J2      0.065200
     57 H24         8.1820    0.0580    8.5930 h1        1 1J2      0.107700
     58 H25         5.6260    1.7650    8.8770 hc        1 1J2      0.065200
     59 H26         7.2780    2.3520    8.3890 hc        1 1J2      0.065200
     60 H27         7.2920    1.0430    6.3620 h1        1 1J2      0.040700
     61 H28         5.7320    1.9840    6.4350 h1        1 1J2      0.040700
     62 H29         8.0910    2.8630   10.5720 h1        1 1J2      0.117367
     63 H30         9.2000    1.9200   11.6130 h1        1 1J2      0.117367
     64 H31         9.3090    1.7730    9.8380 h1        1 1J2      0.117367
@<TRIPOS>BOND
     1    1    2 ar  
     2    1    6 ar  
     3    2    3 ar  
     4    2   17 1   
     5    3    4 ar  
     6    4    5 ar  
     7    4    7 1   
     8    5    6 ar  
     9    5   34 1   
    10    6   35 1   
    11    7    9 1   
    12    7   11 1   
    13    8    9 2   
    14    8   10 1   
    15    8   36 1   
    16    9   37 1   
    17   10   11 ar  
    18   10   15 ar  
    19   11   12 ar  
    20   12   13 ar  
    21   12   38 1   
    22   13   14 ar  
    23   13   39 1   
    24   14   15 ar  
    25   14   40 1   
    26   15   16 1   
    27   16   25 1   
    28   16   29 1   
    29   17   18 1   
    30   17   41 1   
    31   18   19 1   
    32   18   23 1   
    33   18   42 1   
    34   19   20 1   
    35   19   43 1   
    36   19   44 1   
    37   20   21 1   
    38   20   45 1   
    39   20   46 1   
    40   21   22 1   
    41   21   24 1   
    42   21   47 1   
    43   22   23 1   
    44   22   48 1   
    45   22   49 1   
    46   23   50 1   
    47   23   51 1   
    48   24   52 1   
    49   25   26 1   
    50   25   53 1   
    51   25   54 1   
    52   26   27 1   
    53   26   55 1   
    54   26   56 1   
    55   27   28 1   
    56   27   30 1   
    57   27   57 1   
    58   28   29 1   
    59   28   58 1   
    60   28   59 1   
    61   29   60 1   
    62   29   61 1   
    63   30   31 2   
    64   30   32 2   
    65   30   33 1   
    66   33   62 1   
    67   33   63 1   
    68   33   64 1   
@<TRIPOS>SUBSTRUCTURE
     1 1J2         1 TEMP              0 ****  ****    0 ROOT
