@<TRIPOS>MOLECULE
1J2
   64    68     1     0     0
SMALL
bcc


@<TRIPOS>ATOM
      1 N1         -4.9480   -1.9150   -0.6950 nb        1 1J2     -0.755000
      2 C2         -4.3390   -0.6700   -0.5740 ca        1 1J2      0.893900
      3 N3         -2.9680   -0.4650   -0.4890 nb        1 1J2     -0.793000
      4 C4         -2.1700   -1.5670   -0.5910 ca        1 1J2      0.596800
      5 C5         -2.7220   -2.8730   -0.7530 ca        1 1J2     -0.446600
      6 C6         -4.1200   -2.9650   -0.7880 ca        1 1J2      0.479200
      7 N7         -0.7750   -1.4080   -0.5340 na        1 1J2     -0.124200
      8 C8          1.3870   -1.9180    0.0490 cc        1 1J2     -0.143200
      9 C9          0.1030   -2.4160   -0.0620 cd        1 1J2     -0.110100
     10 C10         1.3470   -0.5230   -0.3440 ca        1 1J2     -0.075800
     11 C11        -0.0230   -0.2200   -0.6880 ca        1 1J2     -0.015200
     12 C12        -0.3830    1.0570   -1.1340 ca        1 1J2     -0.115000
     13 C13         0.6180    2.0180   -1.2160 ca        1 1J2     -0.117000
     14 C14         1.9470    1.7430   -0.8780 ca        1 1J2     -0.174000
     15 C15         2.3390    0.4680   -0.4400 ca        1 1J2      0.123600
     16 N16         3.6890    0.1260   -0.0900 nh        1 1J2     -0.616000
     17 N17        -5.1300    0.4900   -0.6110 nh        1 1J2     -0.817900
     18 C18        -6.5410    0.4380   -0.2640 c3        1 1J2      0.208500
     19 C19        -7.2370    1.7530   -0.6660 c3        1 1J2     -0.092900
     20 C20        -8.7250    1.6550   -0.4150 c3        1 1J2     -0.092900
     21 C21        -9.0080    1.3520    1.0540 c3        1 1J2      0.139100
     22 C22        -8.2930    0.0790    1.4930 c3        1 1J2     -0.092900
     23 C23        -6.8070    0.1720    1.2290 c3        1 1J2     -0.092900
     24 O24       -10.4190    1.2140    1.1710 oh        1 1J2     -0.597800
     25 C25         4.6000    0.2310   -1.2260 c3        1 1J2      0.179800
     26 C26         6.0310   -0.1620   -0.8670 c3        1 1J2     -0.055900
     27 C27         6.5430    0.6430    0.3190 c3        1 1J2     -0.284900
     28 C28         5.5830    0.4790    1.4820 c3        1 1J2     -0.055900
     29 C29         4.1570    0.8530    1.0850 c3        1 1J2      0.179800
     30 S30         8.1540    0.1540    0.6890 s6        1 1J2      1.326000
     31 O31         8.1620   -1.1370    1.2330 o         1 1J2     -0.650300
     32 O32         8.9670    0.3900   -0.4280 o         1 1J2     -0.650300
     33 C33         8.5340    1.2740    1.8980 c3        1 1J2     -0.368300
     34 H1         -2.0990   -3.7660   -0.8620 ha        1 1J2      0.159000
     35 H2         -4.6150   -3.9490   -0.8980 h4        1 1J2      0.029100
     36 H3          2.2790   -2.4530    0.3670 ha        1 1J2      0.173000
     37 H4         -0.2740   -3.4170    0.1570 h4        1 1J2      0.172000
     38 H5         -1.4150    1.3060   -1.4150 ha        1 1J2      0.159000
     39 H6          0.3570    3.0310   -1.5610 ha        1 1J2      0.132000
     40 H7          2.6930    2.5470   -0.9650 ha        1 1J2      0.130000
     41 H8         -4.6650    1.3230   -0.3100 hn        1 1J2      0.423800
     42 H9         -7.0150   -0.3980   -0.8610 h1        1 1J2      0.091700
     43 H10        -6.8090    2.6070   -0.0800 hc        1 1J2      0.050450
     44 H11        -7.0610    1.9600   -1.7530 hc        1 1J2      0.050450
     45 H12        -9.2220    2.6200   -0.6930 hc        1 1J2      0.055950
     46 H13        -9.1770    0.8490   -1.0490 hc        1 1J2      0.055950
     47 H14        -8.6690    2.2160    1.6940 h1        1 1J2      0.031700
     48 H15        -8.4690   -0.0910    2.5870 hc        1 1J2      0.055950
     49 H16        -8.7280   -0.7950    0.9410 hc        1 1J2      0.055950
     50 H17        -6.3170   -0.7880    1.5360 hc        1 1J2      0.050450
     51 H18        -6.3640    0.9960    1.8470 hc        1 1J2      0.050450
     52 H19       -10.5970    0.9440    2.0790 ho        1 1J2      0.400000
     53 H20         4.2220   -0.4660   -2.0250 h1        1 1J2      0.040700
     54 H21         4.6120    1.2760   -1.6550 h1        1 1J2      0.040700
     55 H22         6.0720   -1.2560   -0.6180 hc        1 1J2      0.065200
     56 H23         6.6830    0.0240   -1.7620 hc        1 1J2      0.065200
     57 H24         6.5300    1.7280    0.0130 h1        1 1J2      0.107700
     58 H25         5.6120   -0.5860    1.8390 hc        1 1J2      0.065200
     59 H26         5.8910    1.1440    2.3310 hc        1 1J2      0.065200
     60 H27         4.1120    1.9720    0.9260 h1        1 1J2      0.040700
     61 H28         3.4650    0.5980    1.9350 h1        1 1J2      0.040700
     62 H29         8.1950    0.9430    2.9120 h1        1 1J2      0.117367
     63 H30         9.6430    1.4200    1.9730 h1        1 1J2      0.117367
     64 H31         8.1040    2.2910    1.7350 h1        1 1J2      0.117367
@<TRIPOS>BOND
     1    1    2 ar  
     2    1    6 ar  
     3    2    3 ar  
     4    2   17 1   
     5    3    4 ar  
     6    4    5 ar  
     7    4    7 1   
     8    5    6 ar  
     9    5   34 1   
    10    6   35 1   
    11    7    9 1   
    12    7   11 1   
    13    8    9 2   
    14    8   10 1   
    15    8   36 1   
    16    9   37 1   
    17   10   11 ar  
    18   10   15 ar  
    19   11   12 ar  
    20   12   13 ar  
    21   12   38 1   
    22   13   14 ar  
    23   13   39 1   
    24   14   15 ar  
    25   14   40 1   
    26   15   16 1   
    27   16   25 1   
    28   16   29 1   
    29   17   18 1   
    30   17   41 1   
    31   18   19 1   
    32   18   23 1   
    33   18   42 1   
    34   19   20 1   
    35   19   43 1   
    36   19   44 1   
    37   20   21 1   
    38   20   45 1   
    39   20   46 1   
    40   21   22 1   
    41   21   24 1   
    42   21   47 1   
    43   22   23 1   
    44   22   48 1   
    45   22   49 1   
    46   23   50 1   
    47   23   51 1   
    48   24   52 1   
    49   25   26 1   
    50   25   53 1   
    51   25   54 1   
    52   26   27 1   
    53   26   55 1   
    54   26   56 1   
    55   27   28 1   
    56   27   30 1   
    57   27   57 1   
    58   28   29 1   
    59   28   58 1   
    60   28   59 1   
    61   29   60 1   
    62   29   61 1   
    63   30   31 2   
    64   30   32 2   
    65   30   33 1   
    66   33   62 1   
    67   33   63 1   
    68   33   64 1   
@<TRIPOS>SUBSTRUCTURE
     1 1J2         1 TEMP              0 ****  ****    0 ROOT
