@<TRIPOS>MOLECULE
1J2
   64    68     1     0     0
SMALL
bcc


@<TRIPOS>ATOM
      1 N1         -0.1330   -0.5330   -0.1300 nb        1 1J2     -0.753000
      2 C2          1.2490   -0.3770   -0.1250 ca        1 1J2      0.892900
      3 N3          2.0350   -0.3210    1.0190 nb        1 1J2     -0.792000
      4 C4          1.4000   -0.4900    2.2140 ca        1 1J2      0.595800
      5 C5         -0.0110   -0.6900    2.2860 ca        1 1J2     -0.445600
      6 C6         -0.7080   -0.6910    1.0710 ca        1 1J2      0.479200
      7 N7          2.1560   -0.4640    3.3990 na        1 1J2     -0.124200
      8 C8          2.6370    0.0400    5.5880 cc        1 1J2     -0.143200
      9 C9          1.6270   -0.0570    4.6500 cd        1 1J2     -0.110100
     10 C10         3.8810   -0.2940    4.9220 ca        1 1J2     -0.074800
     11 C11         3.5580   -0.5890    3.5450 ca        1 1J2     -0.015200
     12 C12         4.5560   -0.9730    2.6420 ca        1 1J2     -0.115000
     13 C13         5.8610   -1.0430    3.1140 ca        1 1J2     -0.117000
     14 C14         6.1920   -0.7510    4.4410 ca        1 1J2     -0.174000
     15 C15         5.2100   -0.3760    5.3720 ca        1 1J2      0.123600
     16 N16         5.4890   -0.0770    6.7480 nh        1 1J2     -0.616000
     17 N17         1.9430   -0.3440   -1.3470 nh        1 1J2     -0.816900
     18 C18         1.2660    0.0500   -2.5710 c3        1 1J2      0.206500
     19 C19         2.1410   -0.2880   -3.7950 c3        1 1J2     -0.092900
     20 C20         1.3920    0.0200   -5.0720 c3        1 1J2     -0.092900
     21 C21         0.9730    1.4860   -5.1240 c3        1 1J2      0.139100
     22 C22         0.1410    1.8570   -3.9000 c3        1 1J2     -0.092900
     23 C23         0.8910    1.5420   -2.6270 c3        1 1J2     -0.092900
     24 O24         0.1580    1.7440   -6.2600 oh        1 1J2     -0.597800
     25 C25         6.0240   -1.2270    7.4700 c3        1 1J2      0.179800
     26 C26         6.2930   -0.9230    8.9410 c3        1 1J2     -0.055900
     27 C27         7.2020    0.2870    9.0960 c3        1 1J2     -0.284900
     28 C28         6.5920    1.4640    8.3580 c3        1 1J2     -0.055900
     29 C29         6.3100    1.1200    6.8980 c3        1 1J2      0.179800
     30 S30         7.4650    0.5940   10.7720 s6        1 1J2      1.326000
     31 O31         6.2930    1.0720   11.3730 o         1 1J2     -0.650300
     32 O32         8.0750   -0.5290   11.3480 o         1 1J2     -0.650300
     33 C33         8.5950    1.8490   10.6710 c3        1 1J2     -0.368300
     34 H1         -0.5350   -0.8510    3.2330 ha        1 1J2      0.159000
     35 H2         -1.8060   -0.8280    1.0540 h4        1 1J2      0.029100
     36 H3          2.5420    0.3120    6.6360 ha        1 1J2      0.173000
     37 H4          0.5570    0.1300    4.7610 h4        1 1J2      0.172000
     38 H5          4.3310   -1.2160    1.5940 ha        1 1J2      0.159000
     39 H6          6.6630   -1.3390    2.4200 ha        1 1J2      0.132000
     40 H7          7.2450   -0.8240    4.7540 ha        1 1J2      0.130000
     41 H8          2.8870   -0.0190   -1.2810 hn        1 1J2      0.422800
     42 H9          0.3140   -0.5550   -2.6530 h1        1 1J2      0.091700
     43 H10         2.4160   -1.3740   -3.7780 hc        1 1J2      0.050200
     44 H11         3.0910    0.3070   -3.7610 hc        1 1J2      0.050200
     45 H12         0.4770   -0.6250   -5.1490 hc        1 1J2      0.055950
     46 H13         2.0450   -0.2150   -5.9520 hc        1 1J2      0.055950
     47 H14         1.8910    2.1390   -5.1740 h1        1 1J2      0.031700
     48 H15        -0.8280    1.2930   -3.9310 hc        1 1J2      0.055950
     49 H16        -0.1040    2.9500   -3.9410 hc        1 1J2      0.055950
     50 H17         1.8190    2.1690   -2.5670 hc        1 1J2      0.050200
     51 H18         0.2460    1.8030   -1.7480 hc        1 1J2      0.050200
     52 H19         0.6570    1.4540   -7.0320 ho        1 1J2      0.399000
     53 H20         6.9790   -1.6060    7.0010 h1        1 1J2      0.040700
     54 H21         5.2580   -2.0500    7.4040 h1        1 1J2      0.040700
     55 H22         5.3230   -0.7290    9.4710 hc        1 1J2      0.065200
     56 H23         6.7780   -1.8230    9.4050 hc        1 1J2      0.065200
     57 H24         8.1780    0.0350    8.5930 h1        1 1J2      0.107700
     58 H25         7.2960    2.3370    8.3770 hc        1 1J2      0.065200
     59 H26         5.6390    1.7680    8.8700 hc        1 1J2      0.065200
     60 H27         5.7470    1.9740    6.4260 h1        1 1J2      0.040700
     61 H28         7.2970    1.0170    6.3580 h1        1 1J2      0.040700
     62 H29         8.1130    2.8530   10.5590 h1        1 1J2      0.117367
     63 H30         9.2150    1.9040   11.6030 h1        1 1J2      0.117367
     64 H31         9.3200    1.7480    9.8290 h1        1 1J2      0.117367
@<TRIPOS>BOND
     1    1    2 ar  
     2    1    6 ar  
     3    2    3 ar  
     4    2   17 1   
     5    3    4 ar  
     6    4    5 ar  
     7    4    7 1   
     8    5    6 ar  
     9    5   34 1   
    10    6   35 1   
    11    7    9 1   
    12    7   11 1   
    13    8    9 2   
    14    8   10 1   
    15    8   36 1   
    16    9   37 1   
    17   10   11 ar  
    18   10   15 ar  
    19   11   12 ar  
    20   12   13 ar  
    21   12   38 1   
    22   13   14 ar  
    23   13   39 1   
    24   14   15 ar  
    25   14   40 1   
    26   15   16 1   
    27   16   25 1   
    28   16   29 1   
    29   17   18 1   
    30   17   41 1   
    31   18   19 1   
    32   18   23 1   
    33   18   42 1   
    34   19   20 1   
    35   19   43 1   
    36   19   44 1   
    37   20   21 1   
    38   20   45 1   
    39   20   46 1   
    40   21   22 1   
    41   21   24 1   
    42   21   47 1   
    43   22   23 1   
    44   22   48 1   
    45   22   49 1   
    46   23   50 1   
    47   23   51 1   
    48   24   52 1   
    49   25   26 1   
    50   25   53 1   
    51   25   54 1   
    52   26   27 1   
    53   26   55 1   
    54   26   56 1   
    55   27   28 1   
    56   27   30 1   
    57   27   57 1   
    58   28   29 1   
    59   28   58 1   
    60   28   59 1   
    61   29   60 1   
    62   29   61 1   
    63   30   31 2   
    64   30   32 2   
    65   30   33 1   
    66   33   62 1   
    67   33   63 1   
    68   33   64 1   
@<TRIPOS>SUBSTRUCTURE
     1 1J2         1 TEMP              0 ****  ****    0 ROOT
