@<TRIPOS>MOLECULE
1J3
   77    81     1     0     0
SMALL
bcc


@<TRIPOS>ATOM
      1 C1          1.6210    4.5980   -0.0970 c3        1 1J3      0.115700
      2 O2          0.9220    3.3910   -0.3890 os        1 1J3     -0.340900
      3 C3          1.7030    2.2780   -0.6440 ca        1 1J3      0.088100
      4 C4          3.0790    2.2360   -0.4120 ca        1 1J3     -0.143000
      5 C5          3.7930    1.0650   -0.6790 ca        1 1J3     -0.118600
      6 C6          3.1380   -0.0510   -1.1980 ca        1 1J3     -0.133000
      7 C7          1.7670   -0.0130   -1.4440 ca        1 1J3     -0.085000
      8 C8          1.0130    1.1410   -1.1660 ca        1 1J3      0.117600
      9 N9         -0.3640    1.2090   -1.4820 nh        1 1J3     -0.682300
     10 C10        -1.2950    0.3570   -0.8390 ca        1 1J3      0.861900
     11 N11        -0.8590   -0.8340   -0.2800 nb        1 1J3     -0.723000
     12 C12        -1.7980   -1.6380    0.2260 ca        1 1J3      0.459200
     13 C13        -3.1830   -1.3280    0.2300 ca        1 1J3     -0.250000
     14 N14        -4.1280   -2.2070    0.7950 n         1 1J3     -0.360000
     15 C15        -3.9340   -2.5860    2.1750 c3        1 1J3      0.076300
     16 C16        -5.3590   -2.4510    0.1910 c         1 1J3      0.681500
     17 O17        -6.2690   -3.0050    0.8330 o         1 1J3     -0.614500
     18 C18        -5.5690   -2.0340   -1.2920 c3        1 1J3      0.126500
     19 F19        -4.4990   -2.4570   -2.0720 f         1 1J3     -0.217300
     20 C20        -5.7050   -0.4730   -1.3810 c3        1 1J3      0.177800
     21 N21        -4.9280    0.3320   -0.4760 nh        1 1J3     -0.760300
     22 C22        -5.5740    0.7050    0.7800 c3        1 1J3      0.202500
     23 C23        -4.6560    1.4370    1.7800 c3        1 1J3     -0.083400
     24 C24        -5.5740    2.3100    2.6210 c3        1 1J3     -0.077900
     25 C25        -6.8610    2.5110    1.8320 c3        1 1J3     -0.077900
     26 C26        -6.7670    1.6670    0.5690 c3        1 1J3     -0.083400
     27 C27        -3.5510   -0.0680   -0.3690 ca        1 1J3      0.663200
     28 N28        -2.6200    0.7660   -0.8900 nb        1 1J3     -0.708000
     29 C29        -6.8720   -2.6280   -1.7740 c2        1 1J3     -0.202200
     30 C30        -7.0390   -3.1710   -2.9760 c2        1 1J3     -0.181000
     31 C31         5.2660    1.0720   -0.4240 c         1 1J3      0.673700
     32 O32         5.9710    2.0380   -0.7520 o         1 1J3     -0.550100
     33 N33         5.7410   -0.0380    0.3060 n         1 1J3     -0.421300
     34 N34         7.0910   -0.2830    0.4120 n3        1 1J3     -0.466600
     35 C35         7.4950   -0.5680    1.8090 c3        1 1J3      0.143300
     36 C36         9.0160   -0.7670    1.9270 c3        1 1J3      0.169300
     37 N37         9.5260   -1.7900    1.0250 n3        1 1J3     -0.735600
     38 C38        10.9560   -1.9640    1.1380 c3        1 1J3      0.157100
     39 C39         9.1000   -1.5640   -0.3480 c3        1 1J3      0.169300
     40 C40         7.5800   -1.3630   -0.4770 c3        1 1J3      0.143300
     41 H1          0.8040    5.3620   -0.0470 h1        1 1J3      0.050367
     42 H2          2.1430    4.5150    0.8870 h1        1 1J3      0.050367
     43 H3          2.3460    4.8450   -0.9090 h1        1 1J3      0.050367
     44 H4          3.6190    3.1140   -0.0260 ha        1 1J3      0.162000
     45 H5          3.6940   -0.9690   -1.4420 ha        1 1J3      0.135000
     46 H6          1.2740   -0.9040   -1.8660 ha        1 1J3      0.162000
     47 H7         -0.6960    2.1500   -1.6100 hn        1 1J3      0.449800
     48 H8         -1.4220   -2.5860    0.6580 h4        1 1J3      0.036100
     49 H9         -4.1980   -1.7340    2.8580 h1        1 1J3      0.052033
     50 H10        -4.5920   -3.4640    2.4160 h1        1 1J3      0.052033
     51 H11        -2.8620   -2.8700    2.3400 h1        1 1J3      0.052033
     52 H12        -5.3950   -0.1900   -2.4290 h1        1 1J3      0.083200
     53 H13        -6.7910   -0.2110   -1.2400 h1        1 1J3      0.083200
     54 H14        -5.9760   -0.2220    1.2960 h1        1 1J3      0.032700
     55 H15        -4.0990    0.7010    2.4090 hc        1 1J3      0.053950
     56 H16        -3.9070    2.0750    1.2450 hc        1 1J3      0.053950
     57 H17        -5.7930    1.8130    3.6000 hc        1 1J3      0.044450
     58 H18        -5.0850    3.2900    2.8470 hc        1 1J3      0.044450
     59 H19        -7.7450    2.2020    2.4440 hc        1 1J3      0.044450
     60 H20        -7.0000    3.5890    1.5680 hc        1 1J3      0.044450
     61 H21        -6.6020    2.3210   -0.3240 hc        1 1J3      0.053950
     62 H22        -7.7080    1.0870    0.4000 hc        1 1J3      0.053950
     63 H23        -7.6820   -2.5780   -1.0280 ha        1 1J3      0.156000
     64 H24        -8.0050   -3.5840   -3.2950 ha        1 1J3      0.124000
     65 H25        -6.2290   -3.2440   -3.7150 ha        1 1J3      0.124000
     66 H26         5.1440   -0.8470    0.2910 hn        1 1J3      0.280500
     67 H27         7.2160    0.3190    2.4430 h1        1 1J3      0.046700
     68 H28         6.9720   -1.4770    2.2250 h1        1 1J3      0.046700
     69 H29         9.5260    0.2280    1.7640 h1        1 1J3      0.042950
     70 H30         9.2330   -1.0990    2.9810 h1        1 1J3      0.042950
     71 H32        11.2050   -2.2160    2.2020 h1        1 1J3      0.033700
     72 H33        11.2680   -2.8180    0.4820 h1        1 1J3      0.033700
     73 H34        11.5420   -1.0510    0.8400 h1        1 1J3      0.033700
     74 H35         9.6210   -0.6740   -0.8090 h1        1 1J3      0.042950
     75 H36         9.3740   -2.4760   -0.9490 h1        1 1J3      0.042950
     76 H37         7.0630   -2.3460   -0.2760 h1        1 1J3      0.046700
     77 H38         7.3670   -1.0650   -1.5410 h1        1 1J3      0.046700
@<TRIPOS>BOND
     1    1    2 1   
     2    1   41 1   
     3    1   42 1   
     4    1   43 1   
     5    2    3 1   
     6    3    4 ar  
     7    3    8 ar  
     8    4    5 ar  
     9    4   44 1   
    10    5    6 ar  
    11    5   31 1   
    12    6    7 ar  
    13    6   45 1   
    14    7    8 ar  
    15    7   46 1   
    16    8    9 1   
    17    9   10 1   
    18    9   47 1   
    19   10   11 ar  
    20   10   28 ar  
    21   11   12 ar  
    22   12   13 ar  
    23   12   48 1   
    24   13   14 1   
    25   13   27 ar  
    26   14   15 1   
    27   14   16 1   
    28   15   49 1   
    29   15   50 1   
    30   15   51 1   
    31   16   17 2   
    32   16   18 1   
    33   18   19 1   
    34   18   20 1   
    35   18   29 1   
    36   20   21 1   
    37   20   52 1   
    38   20   53 1   
    39   21   22 1   
    40   21   27 1   
    41   22   23 1   
    42   22   26 1   
    43   22   54 1   
    44   23   24 1   
    45   23   55 1   
    46   23   56 1   
    47   24   25 1   
    48   24   57 1   
    49   24   58 1   
    50   25   26 1   
    51   25   59 1   
    52   25   60 1   
    53   26   61 1   
    54   26   62 1   
    55   27   28 ar  
    56   29   30 2   
    57   29   63 1   
    58   30   64 1   
    59   30   65 1   
    60   31   32 2   
    61   31   33 1   
    62   33   34 1   
    63   33   66 1   
    64   34   35 1   
    65   34   40 1   
    66   35   36 1   
    67   35   67 1   
    68   35   68 1   
    69   36   37 1   
    70   36   69 1   
    71   36   70 1   
    72   37   38 1   
    73   37   39 1   
    74   38   71 1   
    75   38   72 1   
    76   38   73 1   
    77   39   40 1   
    78   39   74 1   
    79   39   75 1   
    80   40   76 1   
    81   40   77 1   
@<TRIPOS>SUBSTRUCTURE
     1 1J3         1 TEMP              0 ****  ****    0 ROOT
