@<TRIPOS>MOLECULE
1J3
   77    75     1     0     0
SMALL
bcc


@<TRIPOS>ATOM
      1 C1         -3.1000    2.5800   -2.5280 c3        1 1J3     -0.073000
      2 O2         -1.9050    2.0760   -1.9500 os        1 1J3     -0.222000
      3 C3         -2.1060    1.3930   -0.6780 c2        1 1J3      0.044000
      4 C4         -2.7070    2.0480    0.3640 c2        1 1J3     -0.172000
      5 C5         -2.8720    1.4030    1.5960 c1        1 1J3     -0.098000
      6 C6         -2.4230    0.0880    1.7620 c2        1 1J3     -0.101000
      7 C7         -1.8160   -0.5740    0.7100 c1        1 1J3     -0.084000
      8 C8         -1.6520    0.0640   -0.5080 c1        1 1J3      0.035000
      9 N9         -0.9670   -0.6080   -1.5910 n2        1 1J3     -0.201000
     10 C10         0.3610   -1.1570   -1.3770 c2        1 1J3      0.140000
     11 N11         1.2020   -0.5800   -0.4570 n2        1 1J3     -0.194000
     12 C12         2.4760   -1.0320   -0.3260 c1        1 1J3     -0.005000
     13 C13         2.9270   -2.0760   -1.1210 c1        1 1J3     -0.111000
     14 N14         4.0030   -2.9830   -0.7620 n         1 1J3     -0.263000
     15 C15         4.0470   -3.7620    0.4570 c3        1 1J3     -0.078000
     16 C16         5.0430   -2.8950   -1.6660 c2        1 1J3      0.289000
     17 O17         6.0820   -3.4880   -1.5600 o         1 1J3     -0.339000
     18 C18         4.7890   -1.8030   -2.6760 c3        1 1J3      0.100000
     19 F19         4.3110   -0.6780   -2.0830 f         1 1J3     -0.146000
     20 C20         3.8180   -2.3990   -3.7370 c3        1 1J3     -0.059000
     21 N21         2.8480   -3.3250   -3.0950 n3        1 1J3     -0.251000
     22 C22         3.5530   -4.4800   -2.5330 c3        1 1J3      0.005000
     23 C23         2.7050   -5.3370   -2.0990 c3        1 1J3     -0.162000
     24 C24         3.3790   -6.7730   -2.3740 c3        1 1J3     -0.156500
     25 C25         4.5940   -6.4940   -3.3160 c3        1 1J3     -0.156500
     26 C26         4.4300   -5.2520   -3.7270 c3        1 1J3     -0.162000
     27 C27         2.0900   -2.6470   -2.0330 c1        1 1J3      0.141000
     28 N28         0.8070   -2.1900   -2.1630 n1        1 1J3     -0.182000
     29 C29         6.1010   -1.2690   -3.3360 c2        1 1J3     -0.197000
     30 C30         6.7130   -0.1190   -2.8390 c1        1 1J3     -0.182000
     31 C31        -3.5820    2.1270    2.7550 c1        1 1J3      0.349000
     32 O32        -3.7290    1.5510    3.8490 o         1 1J3     -0.306000
     33 N33        -3.9200    3.5400    2.6270 n3        1 1J3     -0.304000
     34 N34        -4.6120    4.1820    3.6510 n3        1 1J3     -0.118000
     35 C35        -5.8880    4.5460    3.2000 c3        1 1J3     -0.093500
     36 C36        -6.6540    5.3770    4.2290 c3        1 1J3     -0.067000
     37 N37        -5.9050    6.4920    4.6920 n3        1 1J3     -0.261000
     38 C38        -6.6190    7.1320    5.7410 c3        1 1J3     -0.119000
     39 C39        -4.6150    6.1300    5.1470 c3        1 1J3     -0.067000
     40 C40        -3.8520    5.3060    4.1220 c3        1 1J3     -0.093500
     41 H1         -2.9830    2.6680   -3.4890 h1        1 1J3      0.087000
     42 H2         -3.3040    3.4640   -2.1400 h1        1 1J3      0.087000
     43 H3         -3.8730    1.9340   -2.3350 h1        1 1J3      0.087000
     44 H4         -3.0350    3.0050    0.2430 ha        1 1J3      0.138000
     45 H5         -2.5340   -0.3480    2.5910 ha        1 1J3      0.158000
     46 H6         -1.5060   -1.4810    0.8260 ha        1 1J3      0.162000
     47 H7         -1.4160   -0.7680   -2.4020 hn        1 1J3      0.243000
     48 H8          3.0770   -0.6200    0.3280 ha        1 1J3      0.175000
     49 H9          4.4150   -3.2190    1.1740 h1        1 1J3      0.091333
     50 H10         3.1670   -4.0410    0.6900 h1        1 1J3      0.091333
     51 H11         4.6240   -4.5660    0.3160 h1        1 1J3      0.091333
     52 H12         4.3180   -2.8770   -4.3640 h1        1 1J3      0.121500
     53 H13         3.3270   -1.6770   -4.1490 h1        1 1J3      0.121500
     54 H14         4.1080   -4.2140   -1.8520 h1        1 1J3      0.072000
     55 H15         1.8480   -5.2550   -2.5920 hc        1 1J3      0.093250
     56 H16         2.5580   -5.2110   -1.1330 hc        1 1J3      0.093250
     57 H17         2.7620   -7.3470   -2.7980 hc        1 1J3      0.083500
     58 H18         3.6680   -7.1460   -1.5820 hc        1 1J3      0.083500
     59 H19         5.4070   -6.5770   -2.8380 hc        1 1J3      0.083500
     60 H20         4.5820   -7.1310   -4.1040 hc        1 1J3      0.083500
     61 H21         5.3130   -4.8100   -3.8390 hc        1 1J3      0.093250
     62 H22         3.9340   -5.2380   -4.5740 hc        1 1J3      0.093250
     63 H23         6.5070   -1.7580   -4.1170 ha        1 1J3      0.156000
     64 H24         6.3290    0.3440   -2.0980 DU        1 1J3      0.125000
     65 H25         7.5540    0.2220   -3.2610 ha        1 1J3      0.123000
     66 H26        -3.7410    4.0020    1.8080 hn        1 1J3      0.194000
     67 H27        -5.7910    5.0880    2.3460 h1        1 1J3      0.085250
     68 H28        -6.4190    3.7030    2.9990 h1        1 1J3      0.085250
     69 H29        -6.8760    4.8020    4.9980 h1        1 1J3      0.082250
     70 H30        -7.5240    5.7150    3.8030 h1        1 1J3      0.082250
     71 H32        -6.6830    6.5110    6.5350 h1        1 1J3      0.073000
     72 H33        -7.5120    7.3550    5.4320 h1        1 1J3      0.073000
     73 H34        -6.1640    7.9280    5.9950 h1        1 1J3      0.073000
     74 H35        -4.7030    5.6220    5.9520 h1        1 1J3      0.082250
     75 H36        -4.0930    6.9690    5.3450 h1        1 1J3      0.082250
     76 H37        -3.6380    5.8460    3.4040 h1        1 1J3      0.085250
     77 H38        -3.0570    4.9910    4.5140 h1        1 1J3      0.085250
@<TRIPOS>BOND
     1    1    2 1   
     2    1   41 1   
     3    1   42 1   
     4    1   43 1   
     5    2    3 1   
     6    3    4 1   
     7    3    8 1   
     8    4    5 1   
     9    4   44 1   
    10    5    6 1   
    11    6    7 1   
    12    6   45 1   
    13    7   46 1   
    14    9   10 1   
    15    9   47 1   
    16   10   11 1   
    17   10   28 1   
    18   11   12 1   
    19   12   48 1   
    20   13   14 1   
    21   13   27 1   
    22   14   15 1   
    23   14   16 1   
    24   15   49 1   
    25   15   50 1   
    26   15   51 1   
    27   16   17 1   
    28   16   18 1   
    29   18   19 1   
    30   18   20 1   
    31   18   29 1   
    32   20   21 1   
    33   20   52 1   
    34   20   53 1   
    35   21   22 1   
    36   21   27 1   
    37   22   23 1   
    38   22   26 1   
    39   22   54 1   
    40   23   24 1   
    41   23   55 1   
    42   23   56 1   
    43   24   25 1   
    44   24   57 1   
    45   24   58 1   
    46   25   26 1   
    47   25   59 1   
    48   25   60 1   
    49   26   61 1   
    50   26   62 1   
    51   29   30 1   
    52   29   63 1   
    53   30   65 1   
    54   31   32 1   
    55   31   33 1   
    56   33   34 1   
    57   33   66 1   
    58   34   35 1   
    59   34   40 1   
    60   35   36 1   
    61   35   67 1   
    62   35   68 1   
    63   36   37 1   
    64   36   69 1   
    65   36   70 1   
    66   37   38 1   
    67   37   39 1   
    68   38   71 1   
    69   38   72 1   
    70   38   73 1   
    71   39   40 1   
    72   39   74 1   
    73   39   75 1   
    74   40   76 1   
    75   40   77 1   
@<TRIPOS>SUBSTRUCTURE
     1 1J3         1 TEMP              0 ****  ****    0 ROOT
