@<TRIPOS>MOLECULE
1J3
   79    83     1     0     0
SMALL
bcc


@<TRIPOS>ATOM
      1 C1         -0.0050   -2.9570    1.7130 c3        1 1J3      0.111700
      2 O2          1.1310   -2.4190    1.0210 os        1 1J3     -0.332900
      3 C3          1.6460   -1.2340    1.4620 ca        1 1J3      0.190100
      4 C4          1.1140   -0.4890    2.5300 ca        1 1J3     -0.130000
      5 C5          1.7020    0.7270    2.8820 ca        1 1J3     -0.094600
      6 C6          2.8170    1.2160    2.1910 ca        1 1J3     -0.134000
      7 C7          3.3500    0.4880    1.1300 ca        1 1J3     -0.045000
      8 C8          2.7740   -0.7360    0.7530 ca        1 1J3     -0.030400
      9 N9          3.3120   -1.4850   -0.3850 n4        1 1J3     -0.592100
     10 C10         4.7120   -1.9610   -0.1450 ca        1 1J3      0.611900
     11 N11         4.8500   -3.1880    0.4500 nb        1 1J3     -0.615000
     12 C12         6.1080   -3.6030    0.6220 ca        1 1J3      0.378200
     13 C13         7.2570   -2.8340    0.2360 ca        1 1J3     -0.068000
     14 N14         8.5330   -3.3060    0.4460 n         1 1J3     -0.362000
     15 C15         8.7450   -4.7350    0.5560 c3        1 1J3      0.052300
     16 C16         9.6520   -2.4440    0.6290 c         1 1J3      0.681500
     17 O17        10.7790   -2.8540    0.3510 o         1 1J3     -0.508500
     18 C18         9.4020   -1.0190    1.1950 c3        1 1J3      0.128500
     19 F19         8.4640   -1.0650    2.2230 f         1 1J3     -0.229300
     20 C20         8.8660   -0.1050    0.0420 c3        1 1J3      0.176800
     21 N21         8.0130   -0.7210   -0.9390 nh        1 1J3     -0.769300
     22 C22         8.6560   -1.2010   -2.1670 c3        1 1J3      0.196500
     23 C23         7.6910   -1.8440   -3.1830 c3        1 1J3     -0.081400
     24 C24         8.3520   -1.6610   -4.5420 c3        1 1J3     -0.080400
     25 C25         9.3160   -0.4880   -4.4200 c3        1 1J3     -0.080400
     26 C26         9.3600   -0.0720   -2.9560 c3        1 1J3     -0.081400
     27 C27         6.9810   -1.5580   -0.4240 ca        1 1J3      0.623200
     28 N28         5.7050   -1.1250   -0.5760 nb        1 1J3     -0.636000
     29 C29        10.7250   -0.4650    1.6620 c2        1 1J3     -0.227200
     30 C30        10.9160    0.1210    2.8400 c2        1 1J3     -0.145000
     31 C31         1.0540    1.5080    3.9520 c         1 1J3      0.587700
     32 O32        -0.1280    1.7720    4.0800 o         1 1J3     -0.374100
     33 N33         1.9850    2.0550    5.0430 n4        1 1J3     -0.463600
     34 N34         1.9350    1.2250    6.2120 n3        1 1J3     -0.485400
     35 C35         3.2000    1.2750    6.9880 c3        1 1J3      0.107800
     36 C36         3.1200    0.3770    8.2430 c3        1 1J3      0.177800
     37 N37         1.9830    0.7220    9.0750 n3        1 1J3     -0.743600
     38 C38         1.9520    0.0190   10.3380 c3        1 1J3      0.154100
     39 C39         0.7400    0.6400    8.3300 c3        1 1J3      0.177800
     40 C40         0.7710    1.5420    7.0770 c3        1 1J3      0.107800
     41 H1         -0.8750   -2.2630    1.6230 h1        1 1J3      0.080033
     42 H2         -0.1940   -3.9140    1.1570 h1        1 1J3      0.080033
     43 H3          0.2540   -3.1600    2.7800 h1        1 1J3      0.080033
     44 H4          0.2280   -0.8600    3.0740 ha        1 1J3      0.191000
     45 H5          3.2670    2.1910    2.4380 ha        1 1J3      0.162000
     46 H6          4.2250    0.8920    0.5860 ha        1 1J3      0.197000
     47 H7          3.3080   -0.8740   -1.2170 hn        1 1J3      0.490800
     48 H8          6.2130   -4.6030    1.0920 h4        1 1J3      0.073100
     49 H9          8.1300   -5.2760   -0.2110 h1        1 1J3      0.076700
     50 H10         9.8310   -4.9650    0.3770 h1        1 1J3      0.076700
     51 H11         8.4610   -5.0880    1.5840 h1        1 1J3      0.076700
     52 H12         9.7520    0.3470   -0.4890 h1        1 1J3      0.093700
     53 H13         8.2820    0.7260    0.5350 h1        1 1J3      0.093700
     54 H14         9.4410   -1.9720   -1.8960 h1        1 1J3      0.043700
     55 H15         7.5300   -2.9240   -2.9500 hc        1 1J3      0.050700
     56 H16         6.6970   -1.3300   -3.1750 hc        1 1J3      0.050700
     57 H17         7.5830   -1.4700   -5.3310 hc        1 1J3      0.060200
     58 H18         8.9050   -2.5900   -4.8320 hc        1 1J3      0.060200
     59 H19        10.3350   -0.7830   -4.7750 hc        1 1J3      0.060200
     60 H20         8.9790    0.3700   -5.0550 hc        1 1J3      0.060200
     61 H21        10.4150    0.0460   -2.6050 hc        1 1J3      0.050700
     62 H22         8.8380    0.9070   -2.8150 hc        1 1J3      0.050700
     63 H23        11.5400   -0.6020    0.9310 ha        1 1J3      0.168000
     64 H24        10.1190    0.2430    3.5870 ha        1 1J3      0.134500
     65 H25        11.9010    0.5160    3.1340 ha        1 1J3      0.134500
     66 H26         2.9510    2.0520    4.6830 hn        1 1J3      0.450300
     67 H27         3.4540    2.3260    7.3120 h1        1 1J3      0.076950
     68 H28         4.0310    0.8770    6.3400 h1        1 1J3      0.076950
     69 H29         3.1080   -0.7040    7.9160 h1        1 1J3      0.070200
     70 H30         4.0640    0.5560    8.8340 h1        1 1J3      0.070200
     71 H32         1.8250   -1.0920   10.2210 h1        1 1J3      0.057033
     72 H33         1.0990    0.4190   10.9490 h1        1 1J3      0.057033
     73 H34         2.9110    0.2200   10.8840 h1        1 1J3      0.057033
     74 H35         0.4910   -0.4140    8.0150 h1        1 1J3      0.070200
     75 H36        -0.0960    1.0190    8.9850 h1        1 1J3      0.070200
     76 H37         0.7780    2.6220    7.4090 h1        1 1J3      0.076950
     77 H38        -0.1710    1.3490    6.4880 h1        1 1J3      0.076950
     78 H92         2.7140   -2.3110   -0.5650 hn        1 1J3      0.490800
     79 H332        1.7060    3.0320    5.2470 hn        1 1J3      0.450300
@<TRIPOS>BOND
     1    1    2 1   
     2    1   41 1   
     3    1   42 1   
     4    1   43 1   
     5    2    3 1   
     6    3    4 ar  
     7    3    8 ar  
     8    4    5 ar  
     9    4   44 1   
    10    5    6 ar  
    11    5   31 1   
    12    6    7 ar  
    13    6   45 1   
    14    7    8 ar  
    15    7   46 1   
    16    8    9 1   
    17    9   10 1   
    18    9   47 1   
    19    9   78 1   
    20   10   11 ar  
    21   10   28 ar  
    22   11   12 ar  
    23   12   13 ar  
    24   12   48 1   
    25   13   14 1   
    26   13   27 ar  
    27   14   15 1   
    28   14   16 1   
    29   15   49 1   
    30   15   50 1   
    31   15   51 1   
    32   16   17 2   
    33   16   18 1   
    34   18   19 1   
    35   18   20 1   
    36   18   29 1   
    37   20   21 1   
    38   20   52 1   
    39   20   53 1   
    40   21   22 1   
    41   21   27 1   
    42   22   23 1   
    43   22   26 1   
    44   22   54 1   
    45   23   24 1   
    46   23   55 1   
    47   23   56 1   
    48   24   25 1   
    49   24   57 1   
    50   24   58 1   
    51   25   26 1   
    52   25   59 1   
    53   25   60 1   
    54   26   61 1   
    55   26   62 1   
    56   27   28 ar  
    57   29   30 2   
    58   29   63 1   
    59   30   64 1   
    60   30   65 1   
    61   31   32 2   
    62   31   33 1   
    63   33   34 1   
    64   33   66 1   
    65   33   79 1   
    66   34   35 1   
    67   34   40 1   
    68   35   36 1   
    69   35   67 1   
    70   35   68 1   
    71   36   37 1   
    72   36   69 1   
    73   36   70 1   
    74   37   38 1   
    75   37   39 1   
    76   38   71 1   
    77   38   72 1   
    78   38   73 1   
    79   39   40 1   
    80   39   74 1   
    81   39   75 1   
    82   40   76 1   
    83   40   77 1   
@<TRIPOS>SUBSTRUCTURE
     1 1J3         1 TEMP              0 ****  ****    0 ROOT
