@<TRIPOS>MOLECULE
1J3
   78    82     1     0     0
SMALL
bcc


@<TRIPOS>ATOM
      1 C1          0.2340    0.9090   -0.2610 c3        1 1J3      0.112700
      2 O2          1.5810    0.5410    0.0280 os        1 1J3     -0.332900
      3 C3          1.9730    0.6020    1.3520 ca        1 1J3      0.050100
      4 C4          1.1410    0.9980    2.3790 ca        1 1J3     -0.094000
      5 C5          1.6190    1.0530    3.7120 ca        1 1J3     -0.245600
      6 C6          2.9490    0.6960    3.9720 ca        1 1J3     -0.037000
      7 C7          3.7910    0.2940    2.9500 ca        1 1J3     -0.188000
      8 C8          3.3480    0.2120    1.6050 ca        1 1J3      0.284600
      9 N9          4.1360   -0.1710    0.5500 nu        1 1J3     -0.701300
     10 C10         5.4110   -0.7960    0.6220 ca        1 1J3      0.832900
     11 N11         5.7150   -1.6040    1.6960 nb        1 1J3     -0.704000
     12 C12         6.9170   -2.1950    1.6750 ca        1 1J3      0.424200
     13 C13         7.8550   -2.0300    0.6210 ca        1 1J3     -0.180000
     14 N14         9.0950   -2.6780    0.6390 n         1 1J3     -0.376000
     15 C15         9.1410   -4.0340    1.1350 c3        1 1J3      0.071300
     16 C16        10.2730   -2.0580    0.2040 c         1 1J3      0.685500
     17 O17        11.2900   -2.7400    0.0090 o         1 1J3     -0.580500
     18 C18        10.2770   -0.5190   -0.0150 c3        1 1J3      0.125500
     19 F19         9.7090    0.1190    1.0830 f         1 1J3     -0.224300
     20 C20         9.4680   -0.1630   -1.3080 c3        1 1J3      0.175800
     21 N21         8.2910   -0.9390   -1.6040 nh        1 1J3     -0.760300
     22 C22         8.4700   -2.0720   -2.5120 c3        1 1J3      0.200500
     23 C23         7.2030   -2.9260   -2.7230 c3        1 1J3     -0.082400
     24 C24         7.3540   -3.5500   -4.1020 c3        1 1J3     -0.078900
     25 C25         8.3370   -2.6880   -4.8830 c3        1 1J3     -0.078900
     26 C26         8.8860   -1.6320   -3.9350 c3        1 1J3     -0.082400
     27 C27         7.4390   -1.1840   -0.4780 ca        1 1J3      0.656200
     28 N28         6.2330   -0.5640   -0.4650 nb        1 1J3     -0.673000
     29 C29        11.7040   -0.0770   -0.2360 c2        1 1J3     -0.210200
     30 C30        12.2350    1.0160    0.3030 c2        1 1J3     -0.168000
     31 C31         0.6650    1.4620    4.7110 c         1 1J3      0.609700
     32 O32        -0.5520    1.5840    4.6510 o         1 1J3     -0.467100
     33 N33         1.2310    1.9030    6.0900 ny        1 1J3     -0.467600
     34 N34         1.4770    0.8230    6.9830 n3        1 1J3     -0.492400
     35 C35         2.0780    1.2830    8.2590 c3        1 1J3      0.116800
     36 C36         2.3650    0.0960    9.2030 c3        1 1J3      0.173800
     37 N37         1.1760   -0.7030    9.4450 n3        1 1J3     -0.740600
     38 C38         1.3870   -1.7610   10.4080 c3        1 1J3      0.154100
     39 C39         0.5850   -1.1670    8.2010 c3        1 1J3      0.173800
     40 C40         0.2730   -0.0030    7.2400 c3        1 1J3      0.116800
     41 H1         -0.4800    0.2250    0.2580 h1        1 1J3      0.058033
     42 H2          0.1720    0.7780   -1.3730 h1        1 1J3      0.058033
     43 H3          0.0470    1.9730    0.0230 h1        1 1J3      0.058033
     44 H4          0.0900    1.2720    2.1830 ha        1 1J3      0.168000
     45 H5          3.3600    0.7010    4.9950 ha        1 1J3      0.141000
     46 H6          4.8310    0.0380    3.2090 ha        1 1J3      0.180000
     47 H7          3.7840    0.0030   -0.3740 hn        1 1J3      0.490800
     48 H8          7.1390   -2.8440    2.5430 h4        1 1J3      0.045100
     49 H9         10.0500   -4.5540    0.7270 h1        1 1J3      0.059367
     50 H10         8.2210   -4.5900    0.8120 h1        1 1J3      0.059367
     51 H11         9.1960   -4.0310    2.2570 h1        1 1J3      0.059367
     52 H12         9.1400    0.9110   -1.1910 h1        1 1J3      0.088200
     53 H13        10.1680   -0.2330   -2.1880 h1        1 1J3      0.088200
     54 H14         9.2850   -2.7530   -2.1150 h1        1 1J3      0.037700
     55 H15         7.1160   -3.7050   -1.9280 hc        1 1J3      0.052950
     56 H16         6.2810   -2.2910   -2.6920 hc        1 1J3      0.052950
     57 H17         7.7390   -4.5970   -4.0140 hc        1 1J3      0.049700
     58 H18         6.3640   -3.6000   -4.6200 hc        1 1J3      0.049700
     59 H19         9.1670   -3.3180   -5.2920 hc        1 1J3      0.049700
     60 H20         7.8310   -2.2010   -5.7540 hc        1 1J3      0.049700
     61 H21         8.4620   -0.6270   -4.1860 hc        1 1J3      0.052950
     62 H22         9.9990   -1.5640   -4.0100 hc        1 1J3      0.052950
     63 H23        12.2790   -0.7540   -0.8900 ha        1 1J3      0.161000
     64 H24        11.6750    1.6840    0.9730 ha        1 1J3      0.128000
     65 H25        13.2750    1.3100    0.1080 ha        1 1J3      0.128000
     66 H26         0.5700    2.5940    6.4860 hn        1 1J3      0.442300
     67 H27         1.4130    2.0210    8.7950 h1        1 1J3      0.072200
     68 H28         3.0640    1.7790    8.0320 h1        1 1J3      0.072200
     69 H29         2.7070    0.5310   10.1850 h1        1 1J3      0.064450
     70 H30         3.2130   -0.5130    8.7730 h1        1 1J3      0.064450
     71 H32         1.7570   -1.3070   11.3640 h1        1 1J3      0.050033
     72 H33         2.1290   -2.5320   10.0610 h1        1 1J3      0.050033
     73 H34         0.4050   -2.2670   10.6040 h1        1 1J3      0.050033
     74 H35         1.2410   -1.9150    7.6680 h1        1 1J3      0.064450
     75 H36        -0.3960   -1.6680    8.4410 h1        1 1J3      0.064450
     76 H37        -0.5710    0.6120    7.6690 h1        1 1J3      0.072200
     77 H38        -0.0680   -0.4470    6.2620 h1        1 1J3      0.072200
     78 H332        2.1390    2.3610    5.9290 hn        1 1J3      0.442300
@<TRIPOS>BOND
     1    1    2 1   
     2    1   41 1   
     3    1   42 1   
     4    1   43 1   
     5    2    3 1   
     6    3    4 ar  
     7    3    8 ar  
     8    4    5 ar  
     9    4   44 1   
    10    5    6 ar  
    11    5   31 1   
    12    6    7 ar  
    13    6   45 1   
    14    7    8 ar  
    15    7   46 1   
    16    8    9 1   
    17    9   10 1   
    18    9   47 1   
    19   10   11 ar  
    20   10   28 ar  
    21   11   12 ar  
    22   12   13 ar  
    23   12   48 1   
    24   13   14 1   
    25   13   27 ar  
    26   14   15 1   
    27   14   16 1   
    28   15   49 1   
    29   15   50 1   
    30   15   51 1   
    31   16   17 2   
    32   16   18 1   
    33   18   19 1   
    34   18   20 1   
    35   18   29 1   
    36   20   21 1   
    37   20   52 1   
    38   20   53 1   
    39   21   22 1   
    40   21   27 1   
    41   22   23 1   
    42   22   26 1   
    43   22   54 1   
    44   23   24 1   
    45   23   55 1   
    46   23   56 1   
    47   24   25 1   
    48   24   57 1   
    49   24   58 1   
    50   25   26 1   
    51   25   59 1   
    52   25   60 1   
    53   26   61 1   
    54   26   62 1   
    55   27   28 ar  
    56   29   30 2   
    57   29   63 1   
    58   30   64 1   
    59   30   65 1   
    60   31   32 2   
    61   31   33 1   
    62   33   34 1   
    63   33   66 1   
    64   33   78 1   
    65   34   35 1   
    66   34   40 1   
    67   35   36 1   
    68   35   67 1   
    69   35   68 1   
    70   36   37 1   
    71   36   69 1   
    72   36   70 1   
    73   37   38 1   
    74   37   39 1   
    75   38   71 1   
    76   38   72 1   
    77   38   73 1   
    78   39   40 1   
    79   39   74 1   
    80   39   75 1   
    81   40   76 1   
    82   40   77 1   
@<TRIPOS>SUBSTRUCTURE
     1 1J3         1 TEMP              0 ****  ****    0 ROOT
