@<TRIPOS>MOLECULE
1J3
   78    82     1     0     0
SMALL
bcc


@<TRIPOS>ATOM
      1 C1          0.1970    0.8080   -0.2490 c3        1 1J3      0.112700
      2 O2          1.5500    0.4630    0.0360 os        1 1J3     -0.332900
      3 C3          1.9490    0.5440    1.3580 ca        1 1J3      0.050100
      4 C4          1.1150    0.9380    2.3850 ca        1 1J3     -0.094000
      5 C5          1.6000    1.0150    3.7150 ca        1 1J3     -0.245600
      6 C6          2.9380    0.6830    3.9710 ca        1 1J3     -0.037000
      7 C7          3.7800    0.2840    2.9490 ca        1 1J3     -0.187000
      8 C8          3.3320    0.1810    1.6070 ca        1 1J3      0.284600
      9 N9          4.1200   -0.2010    0.5520 nh        1 1J3     -0.701300
     10 C10         5.4050   -0.8050    0.6230 ca        1 1J3      0.832900
     11 N11         5.7290   -1.5950    1.7050 nb        1 1J3     -0.704000
     12 C12         6.9400   -2.1660    1.6830 ca        1 1J3      0.424200
     13 C13         7.8690   -2.0000    0.6210 ca        1 1J3     -0.180000
     14 N14         9.1190   -2.6280    0.6390 n         1 1J3     -0.376000
     15 C15         9.1890   -3.9760    1.1510 c3        1 1J3      0.071300
     16 C16        10.2840   -1.9950    0.1890 c         1 1J3      0.685500
     17 O17        11.3100   -2.6630   -0.0060 o         1 1J3     -0.580500
     18 C18        10.2630   -0.4590   -0.0500 c3        1 1J3      0.125500
     19 F19         9.6910    0.1840    1.0440 f         1 1J3     -0.224300
     20 C20         9.4390   -0.1310   -1.3420 c3        1 1J3      0.175800
     21 N21         8.2730   -0.9290   -1.6200 nh        1 1J3     -0.760300
     22 C22         8.4630   -2.0710   -2.5150 c3        1 1J3      0.200500
     23 C23         7.2090   -2.9460   -2.7080 c3        1 1J3     -0.082400
     24 C24         7.3610   -3.5840   -4.0800 c3        1 1J3     -0.078900
     25 C25         8.3260   -2.7170   -4.8780 c3        1 1J3     -0.078900
     26 C26         8.8650   -1.6420   -3.9460 c3        1 1J3     -0.082400
     27 C27         7.4320   -1.1740   -0.4860 ca        1 1J3      0.656200
     28 N28         6.2170   -0.5730   -0.4720 nb        1 1J3     -0.674000
     29 C29        11.6800    0.0030   -0.2860 c2        1 1J3     -0.210200
     30 C30        12.1980    1.1110    0.2360 c2        1 1J3     -0.168000
     31 C31         0.6450    1.4190    4.7150 c         1 1J3      0.609700
     32 O32        -0.5740    1.5200    4.6600 o         1 1J3     -0.467100
     33 N33         1.2110    1.8830    6.0860 n4        1 1J3     -0.467600
     34 N34         1.4800    0.8180    6.9880 n3        1 1J3     -0.492400
     35 C35         2.0810    1.3010    8.2560 c3        1 1J3      0.116800
     36 C36         2.3930    0.1290    9.2100 c3        1 1J3      0.173800
     37 N37         1.2190   -0.6860    9.4690 n3        1 1J3     -0.740600
     38 C38         1.4530   -1.7310   10.4400 c3        1 1J3      0.154100
     39 C39         0.6280   -1.1730    8.2330 c3        1 1J3      0.173800
     40 C40         0.2900   -0.0250    7.2620 c3        1 1J3      0.116800
     41 H1         -0.5040    0.1190    0.2800 h1        1 1J3      0.058033
     42 H2          0.1310    0.6650   -1.3590 h1        1 1J3      0.058033
     43 H3         -0.0030    1.8720    0.0250 h1        1 1J3      0.058033
     44 H4          0.0590    1.1910    2.1920 ha        1 1J3      0.168000
     45 H5          3.3540    0.7060    4.9910 ha        1 1J3      0.141000
     46 H6          4.8270    0.0480    3.2040 ha        1 1J3      0.180000
     47 H7          3.7600   -0.0430   -0.3720 hn        1 1J3      0.490800
     48 H8          7.1790   -2.8020    2.5580 h4        1 1J3      0.045100
     49 H9         10.1030   -4.4870    0.7420 h1        1 1J3      0.059367
     50 H10         8.2760   -4.5510    0.8420 h1        1 1J3      0.059367
     51 H11         9.2530   -3.9590    2.2720 h1        1 1J3      0.059367
     52 H12        10.1350   -0.2000   -2.2250 h1        1 1J3      0.088200
     53 H13         9.0950    0.9390   -1.2350 h1        1 1J3      0.088200
     54 H14         9.2920   -2.7340   -2.1160 h1        1 1J3      0.037700
     55 H15         7.1390   -3.7170   -1.9030 hc        1 1J3      0.052950
     56 H16         6.2780   -2.3250   -2.6790 hc        1 1J3      0.052950
     57 H17         6.3690   -3.6570   -4.5920 hc        1 1J3      0.049700
     58 H18         7.7630   -4.6240   -3.9820 hc        1 1J3      0.049700
     59 H19         9.1630   -3.3400   -5.2840 hc        1 1J3      0.049700
     60 H20         7.8080   -2.2490   -5.7520 hc        1 1J3      0.049700
     61 H21         8.4240   -0.6460   -4.2060 hc        1 1J3      0.052950
     62 H22         9.9760   -1.5570   -4.0290 hc        1 1J3      0.052950
     63 H23        12.2620   -0.6730   -0.9360 ha        1 1J3      0.161000
     64 H24        11.6320    1.7780    0.9020 ha        1 1J3      0.128000
     65 H25        13.2320    1.4190    0.0300 ha        1 1J3      0.128000
     66 H26         0.5410    2.5670    6.4780 hn        1 1J3      0.442300
     67 H27         1.4070    2.0340    8.7880 h1        1 1J3      0.072200
     68 H28         3.0580    1.8100    8.0170 h1        1 1J3      0.072200
     69 H29         2.7340    0.5800   10.1850 h1        1 1J3      0.064450
     70 H30         3.2480   -0.4710    8.7810 h1        1 1J3      0.064450
     71 H32         2.2050   -2.4940   10.0980 h1        1 1J3      0.050033
     72 H33         0.4800   -2.2510   10.6480 h1        1 1J3      0.050033
     73 H34         1.8210   -1.2620   11.3900 h1        1 1J3      0.050033
     74 H35        -0.3430   -1.6870    8.4850 h1        1 1J3      0.064450
     75 H36         1.2920   -1.9170    7.7030 h1        1 1J3      0.064450
     76 H37        -0.0490   -0.4850    6.2910 h1        1 1J3      0.072200
     77 H38        -0.5600    0.5810    7.6900 h1        1 1J3      0.072200
     78 H332        2.1110    2.3550    5.9150 hn        1 1J3      0.442300
@<TRIPOS>BOND
     1    1    2 1   
     2    1   41 1   
     3    1   42 1   
     4    1   43 1   
     5    2    3 1   
     6    3    4 ar  
     7    3    8 ar  
     8    4    5 ar  
     9    4   44 1   
    10    5    6 ar  
    11    5   31 1   
    12    6    7 ar  
    13    6   45 1   
    14    7    8 ar  
    15    7   46 1   
    16    8    9 1   
    17    9   10 1   
    18    9   47 1   
    19   10   11 ar  
    20   10   28 ar  
    21   11   12 ar  
    22   12   13 ar  
    23   12   48 1   
    24   13   14 1   
    25   13   27 ar  
    26   14   15 1   
    27   14   16 1   
    28   15   49 1   
    29   15   50 1   
    30   15   51 1   
    31   16   17 2   
    32   16   18 1   
    33   18   19 1   
    34   18   20 1   
    35   18   29 1   
    36   20   21 1   
    37   20   52 1   
    38   20   53 1   
    39   21   22 1   
    40   21   27 1   
    41   22   23 1   
    42   22   26 1   
    43   22   54 1   
    44   23   24 1   
    45   23   55 1   
    46   23   56 1   
    47   24   25 1   
    48   24   57 1   
    49   24   58 1   
    50   25   26 1   
    51   25   59 1   
    52   25   60 1   
    53   26   61 1   
    54   26   62 1   
    55   27   28 ar  
    56   29   30 2   
    57   29   63 1   
    58   30   64 1   
    59   30   65 1   
    60   31   32 2   
    61   31   33 1   
    62   33   34 1   
    63   33   66 1   
    64   33   78 1   
    65   34   35 1   
    66   34   40 1   
    67   35   36 1   
    68   35   67 1   
    69   35   68 1   
    70   36   37 1   
    71   36   69 1   
    72   36   70 1   
    73   37   38 1   
    74   37   39 1   
    75   38   71 1   
    76   38   72 1   
    77   38   73 1   
    78   39   40 1   
    79   39   74 1   
    80   39   75 1   
    81   40   76 1   
    82   40   77 1   
@<TRIPOS>SUBSTRUCTURE
     1 1J3         1 TEMP              0 ****  ****    0 ROOT
