@<TRIPOS>MOLECULE
1J4
   74    78     1     0     0
SMALL
bcc


@<TRIPOS>ATOM
      1 O7         -5.3680    1.6550   -1.3730 o         1 1J4     -0.612100
      2 C6         -5.0090    0.9250   -0.4240 c         1 1J4      0.677700
      3 N8         -5.9120    0.1670    0.2860 n         1 1J4     -0.553900
      4 C9         -7.3000    0.0460   -0.1060 c3        1 1J4      0.096700
      5 C10        -7.6270   -1.3200   -0.7310 c3        1 1J4     -0.092400
      6 C11        -9.0940   -1.3690   -1.1490 c3        1 1J4      0.170300
      7 N12       -10.0140   -1.0700   -0.0600 n3        1 1J4     -0.734600
      8 C13       -11.3970   -1.1390   -0.4750 c3        1 1J4      0.158100
      9 C14        -9.7000    0.1820    0.6150 c3        1 1J4      0.170300
     10 C15        -8.2500    0.2700    1.0820 c3        1 1J4     -0.092400
     11 C5         -3.5810    0.9210    0.0210 ca        1 1J4     -0.147600
     12 C4         -2.8770    2.1220   -0.1320 ca        1 1J4     -0.126000
     13 C3         -1.5360    2.2160    0.2290 ca        1 1J4      0.076100
     14 O2         -0.7900    3.3740    0.1050 os        1 1J4     -0.339900
     15 C1         -1.4720    4.5160   -0.4040 c3        1 1J4      0.115700
     16 C16        -2.9090   -0.1970    0.5440 ca        1 1J4      0.127900
     17 F17        -3.5350   -1.3900    0.6990 f         1 1J4     -0.138900
     18 C18        -1.5530   -0.1100    0.9190 ca        1 1J4     -0.127000
     19 C19        -0.8420    1.0870    0.7680 ca        1 1J4      0.144600
     20 N20         0.4920    1.2070    1.2190 nh        1 1J4     -0.684300
     21 C21         1.5240    0.4150    0.6610 ca        1 1J4      0.864900
     22 N22         1.2060   -0.7740    0.0240 nb        1 1J4     -0.719000
     23 C23         2.2290   -1.5190   -0.4040 ca        1 1J4      0.466200
     24 C24         3.5910   -1.1470   -0.2520 ca        1 1J4     -0.257000
     25 N25         4.6280   -1.9590   -0.7530 n         1 1J4     -0.355000
     26 C26         4.5840   -2.2930   -2.1580 c3        1 1J4      0.075300
     27 C27         5.8020   -2.1800   -0.0430 c         1 1J4      0.656500
     28 O28         6.8010   -2.6850   -0.5780 o         1 1J4     -0.584500
     29 N40         2.8150    0.8780    0.8690 nb        1 1J4     -0.707000
     30 C39         3.8330    0.1030    0.4240 ca        1 1J4      0.662200
     31 N33         5.1710    0.5500    0.7010 nh        1 1J4     -0.760300
     32 C32         5.8600   -0.2440    1.6750 c3        1 1J4      0.164800
     33 C29         5.8510   -1.8080    1.4740 c3        1 1J4      0.314600
     34 F30         4.8360   -2.4090    2.1860 f         1 1J4     -0.217300
     35 F31         6.9700   -2.3660    2.0540 f         1 1J4     -0.217300
     36 C34         5.9480    1.0040   -0.4500 c3        1 1J4      0.204500
     37 C35         5.1250    1.7490   -1.5200 c3        1 1J4     -0.083400
     38 C36         6.1000    2.6950   -2.2050 c3        1 1J4     -0.077900
     39 C37         7.2780    2.8980   -1.2610 c3        1 1J4     -0.077900
     40 C38         7.0690    1.9940   -0.0550 c3        1 1J4     -0.083400
     41 H1         -5.5810   -0.4790    0.9650 hn        1 1J4      0.317500
     42 H2         -7.5060    0.8470   -0.8810 h1        1 1J4      0.088700
     43 H3         -6.9970   -1.4910   -1.6410 hc        1 1J4      0.053700
     44 H4         -7.4100   -2.1400    0.0010 hc        1 1J4      0.053700
     45 H5         -9.2410   -0.6630   -2.0200 h1        1 1J4      0.033450
     46 H6         -9.3280   -2.4100   -1.5110 h1        1 1J4      0.033450
     47 H8        -11.5960   -2.1560   -0.9020 h1        1 1J4      0.032367
     48 H9        -12.0520   -0.9910    0.4240 h1        1 1J4      0.032367
     49 H10       -11.6710   -0.3670   -1.2460 h1        1 1J4      0.032367
     50 H11        -9.9180    1.0740   -0.0450 h1        1 1J4      0.033450
     51 H12       -10.3710    0.2560    1.5170 h1        1 1J4      0.033450
     52 H13        -8.0570   -0.4950    1.8780 hc        1 1J4      0.053700
     53 H14        -8.0840    1.2840    1.5270 hc        1 1J4      0.053700
     54 H15        -3.4120    2.9820   -0.5690 ha        1 1J4      0.172000
     55 H16        -0.6810    5.3090   -0.3980 h1        1 1J4      0.052367
     56 H17        -1.8340    4.3260   -1.4430 h1        1 1J4      0.052367
     57 H18        -2.3210    4.7990    0.2660 h1        1 1J4      0.052367
     58 H19        -1.0680   -1.0090    1.3330 ha        1 1J4      0.177000
     59 H20         0.7640    2.1550    1.4140 hn        1 1J4      0.454800
     60 H21         1.9450   -2.4670   -0.9020 h4        1 1J4      0.041100
     61 H22         4.8170   -1.3890   -2.7840 h1        1 1J4      0.055367
     62 H23         5.3400   -3.0940   -2.3760 h1        1 1J4      0.055367
     63 H24         3.5610   -2.6680   -2.4210 h1        1 1J4      0.055367
     64 H25         6.9380    0.0790    1.7180 h1        1 1J4      0.094200
     65 H26         5.3790   -0.0550    2.6790 h1        1 1J4      0.094200
     66 H27         6.4440    0.1160   -0.9510 h1        1 1J4      0.033700
     67 H28         4.6790    1.0250   -2.2440 hc        1 1J4      0.054950
     68 H29         4.2920    2.3320   -1.0520 hc        1 1J4      0.054950
     69 H30         6.4500    2.2580   -3.1740 hc        1 1J4      0.045950
     70 H31         5.6020    3.6690   -2.4390 hc        1 1J4      0.045950
     71 H32         8.2380    2.6460   -1.7780 hc        1 1J4      0.045950
     72 H33         7.3470    3.9670   -0.9370 hc        1 1J4      0.045950
     73 H34         6.7730    2.6000    0.8380 hc        1 1J4      0.054950
     74 H35         8.0050    1.4390    0.2010 hc        1 1J4      0.054950
@<TRIPOS>BOND
     1    1    2 2   
     2    2    3 1   
     3    2   11 1   
     4    3    4 1   
     5    3   41 1   
     6    4    5 1   
     7    4   10 1   
     8    4   42 1   
     9    5    6 1   
    10    5   43 1   
    11    5   44 1   
    12    6    7 1   
    13    6   45 1   
    14    6   46 1   
    15    7    8 1   
    16    7    9 1   
    17    8   47 1   
    18    8   48 1   
    19    8   49 1   
    20    9   10 1   
    21    9   50 1   
    22    9   51 1   
    23   10   52 1   
    24   10   53 1   
    25   11   12 ar  
    26   11   16 ar  
    27   12   13 ar  
    28   12   54 1   
    29   13   14 1   
    30   13   19 ar  
    31   14   15 1   
    32   15   55 1   
    33   15   56 1   
    34   15   57 1   
    35   16   17 1   
    36   16   18 ar  
    37   18   19 ar  
    38   18   58 1   
    39   19   20 1   
    40   20   21 1   
    41   20   59 1   
    42   21   22 ar  
    43   21   29 ar  
    44   22   23 ar  
    45   23   24 ar  
    46   23   60 1   
    47   24   25 1   
    48   24   30 ar  
    49   25   26 1   
    50   25   27 1   
    51   26   61 1   
    52   26   62 1   
    53   26   63 1   
    54   27   28 2   
    55   27   33 1   
    56   29   30 ar  
    57   30   31 1   
    58   31   32 1   
    59   31   36 1   
    60   32   33 1   
    61   32   64 1   
    62   32   65 1   
    63   33   34 1   
    64   33   35 1   
    65   36   37 1   
    66   36   40 1   
    67   36   66 1   
    68   37   38 1   
    69   37   67 1   
    70   37   68 1   
    71   38   39 1   
    72   38   69 1   
    73   38   70 1   
    74   39   40 1   
    75   39   71 1   
    76   39   72 1   
    77   40   73 1   
    78   40   74 1   
@<TRIPOS>SUBSTRUCTURE
     1 1J4         1 TEMP              0 ****  ****    0 ROOT
