@<TRIPOS>MOLECULE
1J4
   75    79     1     0     0
SMALL
bcc


@<TRIPOS>ATOM
      1 O7          0.3150   -1.3520    0.4000 o         1 1J4     -0.426100
      2 C6          1.3540   -0.7440    0.1820 c         1 1J4      0.582700
      3 N8          2.1170   -0.2610    1.4090 ny        1 1J4     -0.679800
      4 C9          1.2990   -0.2260    2.6770 c3        1 1J4      0.127500
      5 C10         1.2430   -1.6010    3.3490 c3        1 1J4     -0.102900
      6 C11         0.4270   -1.5060    4.6390 c3        1 1J4      0.171300
      7 N12         0.9410   -0.4930    5.5490 n3        1 1J4     -0.740600
      8 C13         0.2550   -0.4790    6.8220 c3        1 1J4      0.155100
      9 C14         1.0110    0.8200    4.9280 c3        1 1J4      0.171300
     10 C15         1.8570    0.8160    3.6520 c3        1 1J4     -0.102900
     11 C5          1.9520   -0.3880   -1.0900 ca        1 1J4     -0.317600
     12 C4          3.3330   -0.1720   -1.2600 ca        1 1J4     -0.055000
     13 C3          3.8530    0.1710   -2.4910 ca        1 1J4      0.008100
     14 O2          5.2050    0.4700   -2.5900 os        1 1J4     -0.339900
     15 C1          6.0350   -0.6770   -2.8030 c3        1 1J4      0.104700
     16 C16         1.1150   -0.2850   -2.2360 ca        1 1J4      0.268900
     17 F17        -0.2070   -0.5200   -2.1210 f         1 1J4     -0.096900
     18 C18         1.6320    0.0720   -3.4860 ca        1 1J4     -0.238000
     19 C19         3.0090    0.3410   -3.6560 ca        1 1J4      0.298600
     20 N20         3.6000    0.7240   -4.8290 nu        1 1J4     -0.699300
     21 C21         2.9580    1.0260   -6.0640 ca        1 1J4      0.831900
     22 N22         1.6810    1.5420   -6.0620 nb        1 1J4     -0.696000
     23 C23         1.1560    1.8350   -7.2590 ca        1 1J4      0.431200
     24 C24         1.8460    1.6460   -8.4880 ca        1 1J4     -0.181000
     25 N25         1.2590    1.9840   -9.7110 n         1 1J4     -0.371000
     26 C26         0.4410    3.1740   -9.7650 c3        1 1J4      0.070300
     27 C27         1.4190    1.2100  -10.8640 c         1 1J4      0.659500
     28 O28         1.0920    1.6390  -11.9760 o         1 1J4     -0.547500
     29 N40         3.7330    0.8050   -7.1860 nb        1 1J4     -0.674000
     30 C39         3.1930    1.1240   -8.3880 ca        1 1J4      0.652200
     31 N33         3.9930    0.8830   -9.5520 nh        1 1J4     -0.761300
     32 C32         3.5380   -0.2020  -10.3700 c3        1 1J4      0.161800
     33 C29         2.0040   -0.2340  -10.7270 c3        1 1J4      0.315600
     34 F30         1.2860   -0.9850   -9.8200 f         1 1J4     -0.212300
     35 F31         1.8010   -0.9290  -11.8980 f         1 1J4     -0.212300
     36 C34         4.4880    2.0730  -10.2440 c3        1 1J4      0.201500
     37 C35         4.9120    3.2210   -9.3060 c3        1 1J4     -0.082400
     38 C36         5.9710    4.0030  -10.0680 c3        1 1J4     -0.078900
     39 C37         6.5410    3.0770  -11.1340 c3        1 1J4     -0.078900
     40 C38         5.7420    1.7830  -11.1020 c3        1 1J4     -0.082400
     41 H1          2.4700    0.6820    1.2140 hn        1 1J4      0.451800
     42 H2          0.2490    0.0730    2.3720 hx        1 1J4      0.116700
     43 H3          2.2780   -1.9640    3.5850 hc        1 1J4      0.070700
     44 H4          0.7470   -2.3430    2.6700 hc        1 1J4      0.070700
     45 H5          0.4850   -2.5020    5.1630 h1        1 1J4      0.056700
     46 H6         -0.6540   -1.3220    4.3670 h1        1 1J4      0.056700
     47 H8          0.3270   -1.5000    7.2800 h1        1 1J4      0.048033
     48 H9          0.7680    0.2550    7.4980 h1        1 1J4      0.048033
     49 H10        -0.8290   -0.1960    6.7380 h1        1 1J4      0.048033
     50 H11         1.4910    1.5260    5.6630 h1        1 1J4      0.056700
     51 H12        -0.0130    1.2270    4.6760 h1        1 1J4      0.056700
     52 H13         2.9230    0.5800    3.9100 hc        1 1J4      0.070700
     53 H14         1.8180    1.8420    3.2030 hc        1 1J4      0.070700
     54 H15         4.0420   -0.2900   -0.4250 ha        1 1J4      0.138000
     55 H16         5.7760   -1.1710   -3.7700 h1        1 1J4      0.054700
     56 H17         5.9290   -1.3950   -1.9560 h1        1 1J4      0.054700
     57 H18         7.0680   -0.2460   -2.8360 h1        1 1J4      0.054700
     58 H19         0.9230    0.1300   -4.3290 ha        1 1J4      0.202000
     59 H20         4.6030    0.7780   -4.8350 hn        1 1J4      0.486800
     60 H21         0.1290    2.2510   -7.2360 h4        1 1J4      0.052100
     61 H22         0.8920    3.9760   -9.1230 h1        1 1J4      0.063033
     62 H23         0.3800    3.5390  -10.8260 h1        1 1J4      0.063033
     63 H24        -0.5960    2.9440   -9.3990 h1        1 1J4      0.063033
     64 H25         4.1080   -0.1980  -11.3420 h1        1 1J4      0.100200
     65 H26         3.7540   -1.1670   -9.8260 h1        1 1J4      0.100200
     66 H27         3.6850    2.4690  -10.9390 h1        1 1J4      0.039700
     67 H28         5.3460    2.8220   -8.3540 hc        1 1J4      0.053700
     68 H29         4.0360    3.8630   -9.0480 hc        1 1J4      0.053700
     69 H30         5.5170    4.9090  -10.5440 hc        1 1J4      0.051450
     70 H31         6.7730    4.3580   -9.3740 hc        1 1J4      0.051450
     71 H32         6.4720    3.5560  -12.1430 hc        1 1J4      0.051450
     72 H33         7.6230    2.8680  -10.9400 hc        1 1J4      0.051450
     73 H34         5.4420    1.4690  -12.1330 hc        1 1J4      0.053700
     74 H35         6.3540    0.9590  -10.6560 hc        1 1J4      0.053700
     75 H82         2.9200   -0.8810    1.5530 hn        1 1J4      0.451800
@<TRIPOS>BOND
     1    1    2 2   
     2    2    3 1   
     3    2   11 1   
     4    3    4 1   
     5    3   41 1   
     6    3   75 1   
     7    4    5 1   
     8    4   10 1   
     9    4   42 1   
    10    5    6 1   
    11    5   43 1   
    12    5   44 1   
    13    6    7 1   
    14    6   45 1   
    15    6   46 1   
    16    7    8 1   
    17    7    9 1   
    18    8   47 1   
    19    8   48 1   
    20    8   49 1   
    21    9   10 1   
    22    9   50 1   
    23    9   51 1   
    24   10   52 1   
    25   10   53 1   
    26   11   12 ar  
    27   11   16 ar  
    28   12   13 ar  
    29   12   54 1   
    30   13   14 1   
    31   13   19 ar  
    32   14   15 1   
    33   15   55 1   
    34   15   56 1   
    35   15   57 1   
    36   16   17 1   
    37   16   18 ar  
    38   18   19 ar  
    39   18   58 1   
    40   19   20 1   
    41   20   21 1   
    42   20   59 1   
    43   21   22 ar  
    44   21   29 ar  
    45   22   23 ar  
    46   23   24 ar  
    47   23   60 1   
    48   24   25 1   
    49   24   30 ar  
    50   25   26 1   
    51   25   27 1   
    52   26   61 1   
    53   26   62 1   
    54   26   63 1   
    55   27   28 2   
    56   27   33 1   
    57   29   30 ar  
    58   30   31 1   
    59   31   32 1   
    60   31   36 1   
    61   32   33 1   
    62   32   64 1   
    63   32   65 1   
    64   33   34 1   
    65   33   35 1   
    66   36   37 1   
    67   36   40 1   
    68   36   66 1   
    69   37   38 1   
    70   37   67 1   
    71   37   68 1   
    72   38   39 1   
    73   38   69 1   
    74   38   70 1   
    75   39   40 1   
    76   39   71 1   
    77   39   72 1   
    78   40   73 1   
    79   40   74 1   
@<TRIPOS>SUBSTRUCTURE
     1 1J4         1 TEMP              0 ****  ****    0 ROOT
