@<TRIPOS>MOLECULE
1J4
   75    79     1     0     0
SMALL
bcc


@<TRIPOS>ATOM
      1 O7          0.3240   -1.3530    0.4010 o         1 1J4     -0.426100
      2 C6          1.3590   -0.7380    0.1830 c         1 1J4      0.582700
      3 N8          2.1170   -0.2480    1.4110 n4        1 1J4     -0.679800
      4 C9          1.3000   -0.2260    2.6790 c3        1 1J4      0.127500
      5 C10         1.2590   -1.6030    3.3470 c3        1 1J4     -0.102900
      6 C11         0.4430   -1.5200    4.6390 c3        1 1J4      0.171300
      7 N12         0.9470   -0.5050    5.5510 n3        1 1J4     -0.740600
      8 C13         0.2630   -0.5010    6.8250 c3        1 1J4      0.155100
      9 C14         1.0030    0.8100    4.9330 c3        1 1J4      0.171300
     10 C15         1.8480    0.8190    3.6570 c3        1 1J4     -0.102900
     11 C5          1.9560   -0.3790   -1.0880 ca        1 1J4     -0.318600
     12 C4          3.3350   -0.1510   -1.2560 ca        1 1J4     -0.055000
     13 C3          3.8540    0.1940   -2.4880 ca        1 1J4      0.008100
     14 O2          5.2040    0.5050   -2.5850 os        1 1J4     -0.339900
     15 C1          6.0450   -0.6350   -2.7950 c3        1 1J4      0.104700
     16 C16         1.1200   -0.2870   -2.2360 ca        1 1J4      0.269900
     17 F17        -0.2000   -0.5330   -2.1230 f         1 1J4     -0.096900
     18 C18         1.6360    0.0730   -3.4860 ca        1 1J4     -0.238000
     19 C19         3.0110    0.3540   -3.6540 ca        1 1J4      0.298600
     20 N20         3.5990    0.7390   -4.8270 nh        1 1J4     -0.699300
     21 C21         2.9570    1.0320   -6.0640 ca        1 1J4      0.831900
     22 N22         1.6760    1.5390   -6.0660 nb        1 1J4     -0.696000
     23 C23         1.1500    1.8230   -7.2630 ca        1 1J4      0.431200
     24 C24         1.8430    1.6350   -8.4910 ca        1 1J4     -0.181000
     25 N25         1.2540    1.9630   -9.7170 n         1 1J4     -0.371000
     26 C26         0.4280    3.1480   -9.7760 c3        1 1J4      0.070300
     27 C27         1.4210    1.1870  -10.8660 c         1 1J4      0.659500
     28 O28         1.0920    1.6090  -11.9800 o         1 1J4     -0.547500
     29 N40         3.7340    0.8120   -7.1840 nb        1 1J4     -0.674000
     30 C39         3.1930    1.1230   -8.3880 ca        1 1J4      0.652200
     31 N33         3.9950    0.8830   -9.5510 nh        1 1J4     -0.761300
     32 C32         3.5490   -0.2090  -10.3650 c3        1 1J4      0.161800
     33 C29         2.0160   -0.2530  -10.7230 c3        1 1J4      0.315600
     34 F30         1.3030   -1.0060   -9.8140 f         1 1J4     -0.212300
     35 F31         1.8190   -0.9540  -11.8910 f         1 1J4     -0.212300
     36 C34         4.4830    2.0740  -10.2470 c3        1 1J4      0.201500
     37 C35         4.8980    3.2280   -9.3130 c3        1 1J4     -0.082400
     38 C36         5.9520    4.0150  -10.0770 c3        1 1J4     -0.078900
     39 C37         6.5300    3.0890  -11.1390 c3        1 1J4     -0.078900
     40 C38         5.7390    1.7890  -11.1030 c3        1 1J4     -0.082400
     41 H1          2.9280   -0.8590    1.5530 hn        1 1J4      0.451800
     42 H2          0.2470    0.0640    2.3770 hx        1 1J4      0.116700
     43 H3          0.7690   -2.3490    2.6660 hc        1 1J4      0.070700
     44 H4          2.2970   -1.9570    3.5810 hc        1 1J4      0.070700
     45 H5          0.5110   -2.5180    5.1590 h1        1 1J4      0.056700
     46 H6         -0.6400   -1.3470    4.3670 h1        1 1J4      0.056700
     47 H8         -0.8250   -0.2290    6.7420 h1        1 1J4      0.048033
     48 H9          0.7690    0.2350    7.5030 h1        1 1J4      0.048033
     49 H10         0.3450   -1.5240    7.2790 h1        1 1J4      0.048033
     50 H11         1.4760    1.5190    5.6700 h1        1 1J4      0.056700
     51 H12        -0.0260    1.2070    4.6840 h1        1 1J4      0.056700
     52 H13         2.9160    0.5930    3.9140 hc        1 1J4      0.070700
     53 H14         1.7980    1.8460    3.2110 hc        1 1J4      0.070700
     54 H15         4.0440   -0.2620   -0.4210 ha        1 1J4      0.138000
     55 H16         7.0740   -0.1960   -2.8280 h1        1 1J4      0.054700
     56 H17         5.9430   -1.3530   -1.9460 h1        1 1J4      0.054700
     57 H18         5.7910   -1.1340   -3.7610 h1        1 1J4      0.054700
     58 H19         0.9270    0.1230   -4.3300 ha        1 1J4      0.202000
     59 H20         4.6030    0.8020   -4.8320 hn        1 1J4      0.486800
     60 H21         0.1200    2.2320   -7.2430 h4        1 1J4      0.052100
     61 H22        -0.6070    2.9130   -9.4090 h1        1 1J4      0.063033
     62 H23         0.8740    3.9550   -9.1370 h1        1 1J4      0.063033
     63 H24         0.3640    3.5090  -10.8380 h1        1 1J4      0.063033
     64 H25         3.7710   -1.1700   -9.8160 h1        1 1J4      0.100200
     65 H26         4.1200   -0.2040  -11.3360 h1        1 1J4      0.100200
     66 H27         3.6780    2.4610  -10.9440 h1        1 1J4      0.039700
     67 H28         5.3330    2.8360   -8.3590 hc        1 1J4      0.053700
     68 H29         4.0170    3.8650   -9.0580 hc        1 1J4      0.053700
     69 H30         5.4920    4.9160  -10.5570 hc        1 1J4      0.051450
     70 H31         6.7500    4.3780   -9.3840 hc        1 1J4      0.051450
     71 H32         6.4570    3.5630  -12.1500 hc        1 1J4      0.051450
     72 H33         7.6130    2.8880  -10.9440 hc        1 1J4      0.051450
     73 H34         6.3570    0.9710  -10.6530 hc        1 1J4      0.053700
     74 H35         5.4430    1.4690  -12.1320 hc        1 1J4      0.053700
     75 H82         2.4580    0.6990    1.2170 hn        1 1J4      0.451800
@<TRIPOS>BOND
     1    1    2 2   
     2    2    3 1   
     3    2   11 1   
     4    3    4 1   
     5    3   41 1   
     6    3   75 1   
     7    4    5 1   
     8    4   10 1   
     9    4   42 1   
    10    5    6 1   
    11    5   43 1   
    12    5   44 1   
    13    6    7 1   
    14    6   45 1   
    15    6   46 1   
    16    7    8 1   
    17    7    9 1   
    18    8   47 1   
    19    8   48 1   
    20    8   49 1   
    21    9   10 1   
    22    9   50 1   
    23    9   51 1   
    24   10   52 1   
    25   10   53 1   
    26   11   12 ar  
    27   11   16 ar  
    28   12   13 ar  
    29   12   54 1   
    30   13   14 1   
    31   13   19 ar  
    32   14   15 1   
    33   15   55 1   
    34   15   56 1   
    35   15   57 1   
    36   16   17 1   
    37   16   18 ar  
    38   18   19 ar  
    39   18   58 1   
    40   19   20 1   
    41   20   21 1   
    42   20   59 1   
    43   21   22 ar  
    44   21   29 ar  
    45   22   23 ar  
    46   23   24 ar  
    47   23   60 1   
    48   24   25 1   
    49   24   30 ar  
    50   25   26 1   
    51   25   27 1   
    52   26   61 1   
    53   26   62 1   
    54   26   63 1   
    55   27   28 2   
    56   27   33 1   
    57   29   30 ar  
    58   30   31 1   
    59   31   32 1   
    60   31   36 1   
    61   32   33 1   
    62   32   64 1   
    63   32   65 1   
    64   33   34 1   
    65   33   35 1   
    66   36   37 1   
    67   36   40 1   
    68   36   66 1   
    69   37   38 1   
    70   37   67 1   
    71   37   68 1   
    72   38   39 1   
    73   38   69 1   
    74   38   70 1   
    75   39   40 1   
    76   39   71 1   
    77   39   72 1   
    78   40   73 1   
    79   40   74 1   
@<TRIPOS>SUBSTRUCTURE
     1 1J4         1 TEMP              0 ****  ****    0 ROOT
