@<TRIPOS>MOLECULE
1J4
   76    80     1     0     0
SMALL
bcc


@<TRIPOS>ATOM
      1 O7          0.8690    1.4080    0.4980 o         1 1J4     -0.385100
      2 C6          1.5530    0.6320   -0.1570 c         1 1J4      0.554700
      3 N8          1.4940   -0.8230    0.1980 n4        1 1J4     -0.669800
      4 C9          1.0500   -1.1010    1.6250 c3        1 1J4      0.129500
      5 C10         0.6060   -2.5610    1.7600 c3        1 1J4     -0.105400
      6 C11         0.1940   -2.8280    3.2120 c3        1 1J4      0.172300
      7 N12         1.2590   -2.5100    4.1490 n3        1 1J4     -0.742600
      8 C13         0.9650   -2.9120    5.5070 c3        1 1J4      0.154100
      9 C14         1.6880   -1.1260    4.0390 c3        1 1J4      0.172300
     10 C15         2.1660   -0.7840    2.6220 c3        1 1J4     -0.105400
     11 C5          2.4400    1.0320   -1.2740 ca        1 1J4     -0.147600
     12 C4          2.8970    2.3530   -1.2520 ca        1 1J4     -0.110000
     13 C3          3.7040    2.8540   -2.2850 ca        1 1J4      0.177100
     14 O2          4.2180    4.1180   -2.3190 os        1 1J4     -0.329900
     15 C1          3.8160    5.0350   -1.2880 c3        1 1J4      0.110700
     16 C16         2.7940    0.1950   -2.3570 ca        1 1J4      0.132900
     17 F17         2.3630   -1.0870   -2.4180 f         1 1J4     -0.119900
     18 C18         3.5920    0.6850   -3.4060 ca        1 1J4     -0.084000
     19 C19         4.0460    2.0090   -3.3780 ca        1 1J4     -0.003400
     20 N20         4.8780    2.5220   -4.4710 n4        1 1J4     -0.594100
     21 C21         4.0960    2.6760   -5.7410 ca        1 1J4      0.617900
     22 N22         3.6280    3.9340   -6.0220 nb        1 1J4     -0.613000
     23 C23         2.9400    4.0500   -7.1600 ca        1 1J4      0.390200
     24 C24         2.6740    2.9460   -8.0400 ca        1 1J4     -0.074000
     25 N25         1.9280    3.1140   -9.1860 n         1 1J4     -0.358000
     26 C26         1.8610    4.4280   -9.7980 c3        1 1J4      0.051300
     27 C27         1.1520    2.0730   -9.7580 c         1 1J4      0.653500
     28 O28         0.8380    2.0990  -10.9460 o         1 1J4     -0.478500
     29 N40         3.9500    1.5430   -6.4930 nb        1 1J4     -0.634000
     30 C39         3.2710    1.6680   -7.6610 ca        1 1J4      0.619200
     31 N33         3.1690    0.5050   -8.4790 nh        1 1J4     -0.767300
     32 C32         1.8650   -0.0830   -8.5500 c3        1 1J4      0.160800
     33 C29         0.6750    0.9100   -8.8270 c3        1 1J4      0.319600
     34 F30         0.1290    1.3880   -7.6540 f         1 1J4     -0.204300
     35 F31        -0.3870    0.2550   -9.4000 f         1 1J4     -0.204300
     36 C34         3.9690    0.5170   -9.7090 c3        1 1J4      0.196500
     37 C35         5.3740    1.1310   -9.5440 c3        1 1J4     -0.081400
     38 C36         6.2310    0.4770  -10.6180 c3        1 1J4     -0.080400
     39 C37         5.5550   -0.8320  -11.0030 c3        1 1J4     -0.080400
     40 C38         4.2220   -0.9010  -10.2720 c3        1 1J4     -0.081400
     41 H1          2.4190   -1.2450    0.0520 hn        1 1J4      0.466800
     42 H2          0.1660   -0.4200    1.8230 hx        1 1J4      0.125700
     43 H3          1.4390   -3.2560    1.4760 hc        1 1J4      0.070700
     44 H4         -0.2770   -2.7710    1.1010 hc        1 1J4      0.070700
     45 H5         -0.7530   -2.2500    3.4280 h1        1 1J4      0.063700
     46 H6         -0.0410   -3.9260    3.3100 h1        1 1J4      0.063700
     47 H8          1.8720   -2.7250    6.1410 h1        1 1J4      0.054700
     48 H9          0.0920   -2.3600    5.9500 h1        1 1J4      0.054700
     49 H10         0.7410   -4.0110    5.5150 h1        1 1J4      0.054700
     50 H11         0.8730   -0.3990    4.3270 h1        1 1J4      0.063700
     51 H12         2.5540   -0.9720    4.7450 h1        1 1J4      0.063700
     52 H13         2.4200    0.3070    2.5900 hc        1 1J4      0.070700
     53 H14         3.0880   -1.3780    2.3880 hc        1 1J4      0.070700
     54 H15         2.6060    3.0150   -0.4140 ha        1 1J4      0.201000
     55 H16         2.7080    5.1690   -1.3010 h1        1 1J4      0.082367
     56 H17         4.3390    5.9800   -1.5930 h1        1 1J4      0.082367
     57 H18         4.1800    4.6770   -0.2960 h1        1 1J4      0.082367
     58 H19         3.8360    0.0040   -4.2450 ha        1 1J4      0.215000
     59 H20         5.2590    3.4480   -4.2040 hn        1 1J4      0.493800
     60 H21         2.5740    5.0740   -7.3880 h4        1 1J4      0.078100
     61 H22         2.8740    4.9090   -9.7820 h1        1 1J4      0.080033
     62 H23         1.5250    4.3230  -10.8670 h1        1 1J4      0.080033
     63 H24         1.1260    5.0720   -9.2440 h1        1 1J4      0.080033
     64 H25         1.8500   -0.8640   -9.3630 h1        1 1J4      0.105700
     65 H26         1.6390   -0.5820   -7.5640 h1        1 1J4      0.105700
     66 H27         3.4180    1.1090  -10.5020 h1        1 1J4      0.045700
     67 H28         5.7960    0.9070   -8.5330 hc        1 1J4      0.051700
     68 H29         5.3380    2.2400   -9.6710 hc        1 1J4      0.051700
     69 H30         7.2680    0.2990  -10.2370 hc        1 1J4      0.061950
     70 H31         6.3150    1.1490  -11.5100 hc        1 1J4      0.061950
     71 H32         6.1950   -1.7060  -10.7240 hc        1 1J4      0.061950
     72 H33         5.3980   -0.8780  -12.1110 hc        1 1J4      0.061950
     73 H34         4.2680   -1.6610   -9.4520 hc        1 1J4      0.051700
     74 H35         3.3970   -1.1940  -10.9690 hc        1 1J4      0.051700
     75 H82         0.8330   -1.2840   -0.4450 hn        1 1J4      0.466800
     76 H202        5.6570    1.8660   -4.6400 hn        1 1J4      0.493800
@<TRIPOS>BOND
     1    1    2 2   
     2    2    3 1   
     3    2   11 1   
     4    3    4 1   
     5    3   41 1   
     6    3   75 1   
     7    4    5 1   
     8    4   10 1   
     9    4   42 1   
    10    5    6 1   
    11    5   43 1   
    12    5   44 1   
    13    6    7 1   
    14    6   45 1   
    15    6   46 1   
    16    7    8 1   
    17    7    9 1   
    18    8   47 1   
    19    8   48 1   
    20    8   49 1   
    21    9   10 1   
    22    9   50 1   
    23    9   51 1   
    24   10   52 1   
    25   10   53 1   
    26   11   12 ar  
    27   11   16 ar  
    28   12   13 ar  
    29   12   54 1   
    30   13   14 1   
    31   13   19 ar  
    32   14   15 1   
    33   15   55 1   
    34   15   56 1   
    35   15   57 1   
    36   16   17 1   
    37   16   18 ar  
    38   18   19 ar  
    39   18   58 1   
    40   19   20 1   
    41   20   21 1   
    42   20   59 1   
    43   20   76 1   
    44   21   22 ar  
    45   21   29 ar  
    46   22   23 ar  
    47   23   24 ar  
    48   23   60 1   
    49   24   25 1   
    50   24   30 ar  
    51   25   26 1   
    52   25   27 1   
    53   26   61 1   
    54   26   62 1   
    55   26   63 1   
    56   27   28 2   
    57   27   33 1   
    58   29   30 ar  
    59   30   31 1   
    60   31   32 1   
    61   31   36 1   
    62   32   33 1   
    63   32   64 1   
    64   32   65 1   
    65   33   34 1   
    66   33   35 1   
    67   36   37 1   
    68   36   40 1   
    69   36   66 1   
    70   37   38 1   
    71   37   67 1   
    72   37   68 1   
    73   38   39 1   
    74   38   69 1   
    75   38   70 1   
    76   39   40 1   
    77   39   71 1   
    78   39   72 1   
    79   40   73 1   
    80   40   74 1   
@<TRIPOS>SUBSTRUCTURE
     1 1J4         1 TEMP              0 ****  ****    0 ROOT
