@<TRIPOS>MOLECULE
1J4
   74    72     1     0     0
SMALL
bcc


@<TRIPOS>ATOM
      1 O7         -1.9080   -0.3660    5.3160 o         1 1J4     -0.369000
      2 C6         -1.9380   -1.0550    4.3120 c1        1 1J4      0.350000
      3 N8         -2.8410   -2.1770    4.2330 n3        1 1J4     -0.365000
      4 C9         -3.6180   -2.4510    5.2300 c3        1 1J4      0.026000
      5 C10        -4.4520   -1.1840    5.6970 c3        1 1J4     -0.174000
      6 C11        -5.3980   -1.4980    6.8430 c3        1 1J4     -0.063000
      7 N12        -5.6260   -2.7840    6.9310 n3        1 1J4     -0.264000
      8 C13        -6.6210   -3.0300    7.9590 c3        1 1J4     -0.115000
      9 C14        -5.8000   -3.6230    5.9470 c3        1 1J4     -0.063000
     10 C15        -4.8500   -3.3230    4.7900 c3        1 1J4     -0.174000
     11 C5         -1.0380   -0.7080    3.1160 c1        1 1J4     -0.128000
     12 C4         -0.1500   -1.6580    2.6180 c1        1 1J4     -0.123000
     13 C3          0.7730   -1.3020    1.6370 c1        1 1J4      0.029000
     14 O2          1.7300   -2.2500    1.1880 o         1 1J4     -0.223000
     15 C1          1.1690   -3.3360    0.4640 c3        1 1J4     -0.075000
     16 C16        -1.0030    0.5980    2.6320 c1        1 1J4      0.092000
     17 F17        -1.8620    1.5130    3.1080 f         1 1J4     -0.105000
     18 C18        -0.0800    0.9540    1.6510 c1        1 1J4     -0.128000
     19 C19         0.8080    0.0050    1.1520 c2        1 1J4      0.063000
     20 N20         1.8800    0.4160    0.2800 n3        1 1J4     -0.205000
     21 C21         1.5900    0.8470   -1.0650 c2        1 1J4      0.144000
     22 N22         0.3250    0.6830   -1.5820 n2        1 1J4     -0.193000
     23 C23         0.0670    1.0280   -2.8650 c1        1 1J4     -0.024000
     24 C24         1.0810    1.5490   -3.6630 c1        1 1J4     -0.132000
     25 N25         1.1360    1.2130   -5.0770 n         1 1J4     -0.243000
     26 C26         1.3700   -0.1130   -5.5890 c3        1 1J4     -0.107000
     27 C27         0.7860    2.3330   -5.8790 c2        1 1J4      0.251000
     28 O28        -0.1990    2.3870   -6.5960 o         1 1J4     -0.263000
     29 N40         2.5940    1.3620   -1.8520 n1        1 1J4     -0.189000
     30 C39         2.3370    1.7120   -3.1490 c1        1 1J4      0.158000
     31 N33         2.9780    2.9090   -3.6970 n3        1 1J4     -0.246000
     32 C32         2.0110    3.7670   -4.3380 c3        1 1J4     -0.061000
     33 C29         1.8540    3.4040   -5.8090 c3        1 1J4      0.222000
     34 F30         3.0080    2.9830   -6.3380 f         1 1J4     -0.148500
     35 F31         1.5780    4.4700   -6.5840 f         1 1J4     -0.148500
     36 C34         4.0080    2.5140   -4.6700 c3        1 1J4      0.013000
     37 C35         4.7510    3.5390   -4.9760 c3        1 1J4     -0.163000
     38 C36         6.2200    2.9330   -5.2240 c3        1 1J4     -0.156500
     39 C37         6.1650    1.4650   -4.6870 c3        1 1J4     -0.156500
     40 C38         5.0210    1.3910   -4.0010 c3        1 1J4     -0.163000
     41 H1         -2.8230   -2.7290    3.5000 hn        1 1J4      0.229000
     42 H2         -3.1300   -2.8630    5.9790 h1        1 1J4      0.137000
     43 H3         -3.8280   -0.4820    5.9840 hc        1 1J4      0.089750
     44 H4         -4.9770   -0.8510    4.9350 hc        1 1J4      0.089750
     45 H5         -4.9980   -1.1830    7.6870 h1        1 1J4      0.073750
     46 H6         -6.2500   -1.0280    6.6950 h1        1 1J4      0.073750
     47 H8         -6.7210   -2.0600    7.8620 h1        1 1J4      0.071000
     48 H9         -6.8280   -3.7700    7.3490 h1        1 1J4      0.071000
     49 H10        -7.6050   -2.9650    7.9470 h1        1 1J4      0.071000
     50 H11        -6.7290   -3.5570    5.6270 h1        1 1J4      0.073750
     51 H12        -5.6350   -4.5400    6.2710 h1        1 1J4      0.073750
     52 H13        -5.3450   -2.8420    4.0900 hc        1 1J4      0.089750
     53 H14        -4.5210   -4.1740    4.4200 hc        1 1J4      0.089750
     54 H15        -0.1480   -2.5670    2.9860 ha        1 1J4      0.172000
     55 H16         0.2550   -3.1090    0.1900 h1        1 1J4      0.091333
     56 H17         1.7150   -3.5160   -0.3320 h1        1 1J4      0.091333
     57 H18         1.1500   -4.1360    1.0360 h1        1 1J4      0.091333
     58 H19        -0.0560    1.8740    1.3110 ha        1 1J4      0.176000
     59 H20         2.7410    0.4450    0.5950 hn        1 1J4      0.249000
     60 H21        -0.8370    0.9110   -3.2330 ha        1 1J4      0.175000
     61 H22         1.9630   -0.0630   -6.3720 h1        1 1J4      0.094000
     62 H23         1.7920   -0.6630   -4.8940 h1        1 1J4      0.094000
     63 H24         0.5120   -0.5190   -5.8530 h1        1 1J4      0.094000
     64 H25         1.1440    3.6690   -3.8860 h1        1 1J4      0.129000
     65 H26         2.3110    4.7030   -4.2650 h1        1 1J4      0.129000
     66 H27         3.5880    2.1510   -5.4770 h1        1 1J4      0.085000
     67 H28         4.4170    3.9710   -5.7940 hc        1 1J4      0.095500
     68 H29         4.7680    4.1820   -4.2320 hc        1 1J4      0.095500
     69 H30         6.8910    3.4520   -4.7260 hc        1 1J4      0.083750
     70 H31         6.4310    2.9360   -6.1860 hc        1 1J4      0.083750
     71 H32         6.1570    0.8260   -5.4360 hc        1 1J4      0.083750
     72 H33         6.9310    1.2880   -4.0940 hc        1 1J4      0.083750
     73 H34         5.1800    1.6010   -3.0540 hc        1 1J4      0.095500
     74 H35         4.6330    0.4920   -4.0880 hc        1 1J4      0.095500
@<TRIPOS>BOND
     1    1    2 1   
     2    2    3 1   
     3    3    4 1   
     4    3   41 1   
     5    4    5 1   
     6    4   10 1   
     7    4   42 1   
     8    5    6 1   
     9    5   43 1   
    10    5   44 1   
    11    6    7 1   
    12    6   45 1   
    13    6   46 1   
    14    7    8 1   
    15    7    9 1   
    16    8   47 1   
    17    8   48 1   
    18    8   49 1   
    19    9   10 1   
    20    9   50 1   
    21    9   51 1   
    22   10   52 1   
    23   10   53 1   
    24   11   16 1   
    25   12   13 1   
    26   12   54 1   
    27   13   19 1   
    28   14   15 1   
    29   15   55 1   
    30   15   56 1   
    31   15   57 1   
    32   16   17 1   
    33   18   19 1   
    34   18   58 1   
    35   19   20 1   
    36   20   21 1   
    37   20   59 1   
    38   21   22 1   
    39   21   29 1   
    40   22   23 1   
    41   23   60 1   
    42   24   25 1   
    43   24   30 1   
    44   25   26 1   
    45   25   27 1   
    46   26   61 1   
    47   26   62 1   
    48   26   63 1   
    49   27   28 1   
    50   27   33 1   
    51   30   31 1   
    52   31   32 1   
    53   31   36 1   
    54   32   33 1   
    55   32   64 1   
    56   32   65 1   
    57   33   34 1   
    58   33   35 1   
    59   36   37 1   
    60   36   40 1   
    61   36   66 1   
    62   37   38 1   
    63   37   67 1   
    64   37   68 1   
    65   38   39 1   
    66   38   69 1   
    67   38   70 1   
    68   39   40 1   
    69   39   71 1   
    70   39   72 1   
    71   40   73 1   
    72   40   74 1   
@<TRIPOS>SUBSTRUCTURE
     1 1J4         1 TEMP              0 ****  ****    0 ROOT
