@<TRIPOS>MOLECULE
1J5
   42    45     1     0     0
SMALL
bcc


@<TRIPOS>ATOM
      1 C1          0.0000    0.0000    0.0000 c3        1 1J5     -0.029100
      2 C2          1.5300    0.0000    0.0000 c3        1 1J5      0.205800
      3 O4          2.0070    0.0000    1.3470 oh        1 1J5     -0.558800
      4 C5          2.0320   -1.2300   -0.7110 cc        1 1J5      0.180800
      5 N6          2.5310   -1.2530   -1.9780 na        1 1J5      0.411700
      6 C7          2.8780   -2.5490   -2.2600 ca        1 1J5     -0.210200
      7 C8          2.5660   -3.2970   -1.1120 ca        1 1J5     -0.084900
      8 N9          2.0580   -2.4280   -0.2020 nd        1 1J5     -0.449100
      9 C10         2.8190   -4.6730   -1.1140 ca        1 1J5      0.495200
     10 N11         3.3380   -5.2670   -2.1650 nb        1 1J5     -0.593000
     11 C12         3.6510   -4.6050   -3.2760 ca        1 1J5      0.230800
     12 C13         3.4300   -3.2210   -3.3600 ca        1 1J5     -0.193100
     13 C14         3.8760   -2.8140   -4.6920 cc        1 1J5     -0.205200
     14 C15         4.3200   -3.9210   -5.3100 cd        1 1J5     -0.265100
     15 N16         4.1910   -5.0000   -4.4780 na        1 1J5      0.289900
     16 C18         2.6700   -0.1020   -2.8750 c3        1 1J5     -0.099000
     17 C20         4.1440    0.0780   -3.2470 c3        1 1J5     -0.277900
     18 C21         4.2890    1.2800   -4.1840 c3        1 1J5      0.277600
     19 C22         3.4680    1.0390   -5.4530 c3        1 1J5     -0.164600
     20 C24         1.9950    0.8580   -5.0810 c3        1 1J5      0.277600
     21 C25         1.8490   -0.3430   -4.1440 c3        1 1J5     -0.277900
     22 C26         3.6090    2.1940   -6.3540 c1        1 1J5      0.192700
     23 N27         3.7370    3.0820   -7.0510 n1        1 1J5     -0.340800
     24 H1         -0.3610   -0.3340    0.9650 hc        1 1J5      0.017033
     25 H2         -0.3610    1.0030   -0.1930 hc        1 1J5      0.017033
     26 H3         -0.3610   -0.6690   -0.7720 hc        1 1J5      0.017033
     27 H4          1.8910    0.8850   -0.5110 h1        1 1J5     -0.006300
     28 H5          2.2150    0.8820    1.6070 ho        1 1J5      0.383000
     29 H6          2.5700   -5.2700   -0.2450 h4        1 1J5     -0.013900
     30 H8          3.8500   -1.8080   -5.0930 ha        1 1J5      0.112000
     31 H9          4.7100   -3.9730   -6.3190 h4        1 1J5      0.140000
     32 H10         2.3130    0.7920   -2.3800 h1        1 1J5      0.066700
     33 H11         4.5280   -0.8620   -3.6220 hc        1 1J5      0.020200
     34 H12         4.2200    0.8300   -4.0230 hc        1 1J5      0.020200
     35 H13         5.3130    1.3300   -4.5330 hc        1 1J5      0.048200
     36 H14         4.0540    2.1830   -3.6340 hc        1 1J5      0.048200
     37 H15         3.8260    0.1440   -5.9470 hc        1 1J5      0.064700
     38 H16         1.4420    0.5740   -5.9670 hc        1 1J5      0.048200
     39 H17         1.6110    1.7990   -4.7060 hc        1 1J5      0.048200
     40 H18         2.0760    0.4370   -4.8610 hc        1 1J5      0.020200
     41 H19         2.1250   -1.3040   -4.5620 hc        1 1J5      0.020200
     42 H7          4.4560   -5.9330   -4.7250 hn        1 1J5      0.118700
@<TRIPOS>BOND
     1    1    2 1   
     2    1   24 1   
     3    1   25 1   
     4    1   26 1   
     5    2    3 1   
     6    2    4 1   
     7    2   27 1   
     8    3   28 1   
     9    4    5 1   
    10    4    8 2   
    11    5    6 1   
    12    5   16 1   
    13    6    7 ar  
    14    6   12 ar  
    15    7    8 1   
    16    7    9 ar  
    17    9   10 ar  
    18    9   29 1   
    19   10   11 ar  
    20   11   12 ar  
    21   11   15 1   
    22   12   13 1   
    23   13   14 2   
    24   13   30 1   
    25   14   15 1   
    26   14   31 1   
    27   15   42 1   
    28   16   17 1   
    29   16   21 1   
    30   16   32 1   
    31   17   18 1   
    32   17   33 1   
    33   17   34 1   
    34   18   19 1   
    35   18   35 1   
    36   18   36 1   
    37   19   20 1   
    38   19   22 1   
    39   19   37 1   
    40   20   21 1   
    41   20   38 1   
    42   20   39 1   
    43   21   40 1   
    44   21   41 1   
    45   22   23 3   
@<TRIPOS>SUBSTRUCTURE
     1 1J5         1 TEMP              0 ****  ****    0 ROOT
