@<TRIPOS>MOLECULE
1J5
   42    43     1     0     0
SMALL
bcc


@<TRIPOS>ATOM
      1 C1          0.2310   -0.6420    1.3120 c3        1 1J5     -0.236000
      2 C2          0.8620   -0.4240   -0.0490 c3        1 1J5      0.100000
      3 O4          1.8130    0.6310   -0.0170 oh        1 1J5     -0.343000
      4 C5          1.4970   -1.6830   -0.5920 c2        1 1J5     -0.065000
      5 N6          2.2440   -1.6880   -1.8060 na        1 1J5     -0.216000
      6 C7          2.6430   -3.0070   -2.0040 c2        1 1J5      0.031000
      7 C8          2.1160   -3.7660   -0.8870 c2        1 1J5     -0.160000
      8 N9          1.4130   -2.9080   -0.0320 n2        1 1J5     -0.099000
      9 C10         2.3610   -5.1680   -0.8120 c2        1 1J5      0.021000
     10 N11         3.0590   -5.8370   -1.7190 n2        1 1J5     -0.152000
     11 C12         3.5590   -5.1040   -2.7750 c2        1 1J5      0.033000
     12 C13         3.3890   -3.6730   -2.9830 c2        1 1J5     -0.127000
     13 C14         4.0770   -3.3410   -4.1990 c2        1 1J5     -0.203000
     14 C15         4.6280   -4.5250   -4.6910 c2        1 1J5     -0.078000
     15 N16         4.3240   -5.5900   -3.8450 na        1 1J5     -0.182000
     16 C18         2.5320   -0.5580   -2.6830 c3        1 1J5     -0.152000
     17 C20         3.9290   -0.3330   -3.0680 c1        1 1J5      0.014000
     18 C21         4.6890    2.3500   -5.2380 c3        1 1J5     -0.225000
     19 C22         3.7770    2.2880   -6.4500 c3        1 1J5     -0.012000
     20 C24         2.3190    2.3400   -6.0300 c3        1 1J5     -0.225000
     21 C25         1.6670   -0.3620   -3.8530 c1        1 1J5      0.014000
     22 C26         4.0830    3.3630   -7.3790 c1        1 1J5     -0.135000
     23 N27         4.3300    4.2200   -8.1260 n1        1 1J5     -0.069000
     24 H1         -0.1910    0.3250    1.6790 hc        1 1J5      0.098667
     25 H2         -0.5890   -1.3960    1.2410 hc        1 1J5      0.098667
     26 H3          0.9860   -1.0070    2.0490 hc        1 1J5      0.098667
     27 H4          0.0850   -0.0650   -0.7870 h1        1 1J5      0.123000
     28 H5          2.4100    0.4690    0.7240 ho        1 1J5      0.218000
     29 H6          1.9620   -5.7580    0.0350 h4        1 1J5      0.177000
     30 H8          4.1560   -2.3570   -4.6530 ha        1 1J5      0.153000
     31 H9          5.2230   -4.6880   -5.5930 h4        1 1J5      0.174000
     32 H10         2.3260    0.4190   -2.0700 h1        1 1J5      0.264000
     33 H11         4.6860   -1.0100   -2.6410 ha        1 1J5      0.069500
     34 H12         4.4550    1.4950   -4.5510 hc        1 1J5      0.091333
     35 H13         5.7580    2.2840   -5.5480 hc        1 1J5      0.091333
     36 H14         4.5380    3.3060   -4.6810 hc        1 1J5      0.091333
     37 H15         3.9620    1.3120   -6.9900 hc        1 1J5      0.108000
     38 H16         2.0970    3.2950   -5.4980 hc        1 1J5      0.091333
     39 H17         1.6520    2.2660   -6.9220 hc        1 1J5      0.091333
     40 H18         0.8900   -1.1180   -4.0440 ha        1 1J5      0.069500
     41 H19         2.0990    1.4850   -5.3390 hc        1 1J5      0.091333
     42 H7          4.5950   -6.5310   -3.9670 hn        1 1J5      0.264000
@<TRIPOS>BOND
     1    1    2 1   
     2    1   24 1   
     3    1   25 1   
     4    1   26 1   
     5    2    3 1   
     6    2    4 1   
     7    2   27 1   
     8    3   28 1   
     9    4    5 1   
    10    4    8 1   
    11    5    6 1   
    12    5   16 1   
    13    6    7 1   
    14    6   12 1   
    15    7    8 1   
    16    7    9 1   
    17    9   10 1   
    18    9   29 1   
    19   10   11 1   
    20   11   12 1   
    21   11   15 1   
    22   12   13 1   
    23   13   14 1   
    24   13   30 1   
    25   14   15 1   
    26   14   31 1   
    27   15   42 1   
    28   16   17 1   
    29   16   21 1   
    30   16   32 1   
    31   17   33 1   
    32   18   19 1   
    33   18   34 1   
    34   18   35 1   
    35   18   36 1   
    36   19   20 1   
    37   19   22 1   
    38   19   37 1   
    39   20   38 1   
    40   20   39 1   
    41   20   41 1   
    42   21   40 1   
    43   22   23 1   
@<TRIPOS>SUBSTRUCTURE
     1 1J5         1 TEMP              0 ****  ****    0 ROOT
