@<TRIPOS>MOLECULE
1J5
   42    35     1     0     0
SMALL
bcc


@<TRIPOS>ATOM
      1 C1         -3.5980    1.0760    1.3100 c3        1 1J5     -0.217000
      2 C2         -2.1820    1.5910    1.1190 c3        1 1J5      0.105000
      3 O4         -1.5550    1.7040    2.3640 oh        1 1J5     -0.329000
      4 C5         -1.3990    0.6170    0.2410 c2        1 1J5     -0.045000
      5 N6         -0.0710    0.3660    0.0960 n2        1 1J5     -0.153000
      6 C7          0.3910    1.1210   -0.9470 c1        1 1J5      0.023000
      7 C8         -0.6520    1.8330   -1.4410 c1        1 1J5     -0.155000
      8 N9         -1.7610    1.5220   -0.7060 n1        1 1J5     -0.126000
      9 C10        -0.4390    2.7670   -2.4810 c1        1 1J5      0.016000
     10 N11         0.8200    2.9530   -2.9900 n1        1 1J5     -0.153000
     11 C12         1.8900    2.2240   -2.4850 c1        1 1J5     -0.044000
     12 C13         1.6880    1.3140   -1.4720 c1        1 1J5     -0.044000
     13 C14         2.9240    0.8410   -1.0710 c1        1 1J5     -0.193000
     14 C15         3.8910    1.4650   -1.8430 c1        1 1J5     -0.089000
     15 N16         3.2580    2.3150   -2.7120 n1        1 1J5     -0.183000
     16 C18         0.5280   -0.9210   -0.3170 c2        1 1J5      0.046000
     17 C20        -0.5760   -1.8950   -0.6040 c3        1 1J5     -0.165000
     18 C21        -1.3290   -2.3230    0.6470 c3        1 1J5     -0.155500
     19 C22        -0.3940   -2.8500    1.7710 c3        1 1J5     -0.013000
     20 C24         0.7320   -1.8050    2.0280 c3        1 1J5     -0.155500
     21 C25         1.4570   -1.3840    0.7570 c3        1 1J5     -0.165000
     22 C26         0.1530   -4.2340    1.4350 c1        1 1J5     -0.138000
     23 N27         0.5640   -5.2730    1.1820 n1        1 1J5     -0.057000
     24 H1         -3.8930    0.6180    0.4910 hc        1 1J5      0.093000
     25 H2         -4.2000    1.8330    1.4980 hc        1 1J5      0.093000
     26 H3         -3.6190    0.4460    2.0640 hc        1 1J5      0.093000
     27 H4         -2.2100    2.4740    0.6850 h1        1 1J5      0.109000
     28 H5         -1.5620    2.5590    2.6250 ho        1 1J5      0.211000
     29 H6         -1.1990    3.2620   -2.8580 ha        1 1J5      0.175000
     30 H8          3.0870    0.1810   -0.3670 DU        1 1J5      0.195333
     31 H9          4.8620    1.3380   -1.7650 DU        1 1J5      0.195333
     32 H10         1.0440   -0.7790   -1.1400 ha        1 1J5      0.108000
     33 H11        -1.2110   -1.4790   -1.2290 hc        1 1J5      0.098000
     34 H12        -0.1900   -2.6930   -1.0290 hc        1 1J5      0.098000
     35 H13        -1.8310   -1.5540    0.9900 hc        1 1J5      0.102250
     36 H14        -1.9660   -3.0340    0.4050 hc        1 1J5      0.102250
     37 H15        -0.8920   -3.0370    2.5980 hc        1 1J5      0.120000
     38 H16         1.3880   -2.1940    2.6520 hc        1 1J5      0.102250
     39 H17         0.3340   -1.0090    2.4420 hc        1 1J5      0.102250
     40 H18         1.9740   -2.1510    0.4190 hc        1 1J5      0.098000
     41 H19         2.0780   -0.6540    0.9750 hc        1 1J5      0.098000
     42 H7          3.6660    2.8520   -3.3360 DU        1 1J5      0.195333
@<TRIPOS>BOND
     1    1    2 1   
     2    1   24 1   
     3    1   25 1   
     4    1   26 1   
     5    2    3 1   
     6    2    4 1   
     7    2   27 1   
     8    3   28 1   
     9    4    5 1   
    10    4    8 1   
    11    5    6 1   
    12    6    7 1   
    13    9   10 1   
    14    9   29 1   
    15   11   12 1   
    16   13   14 1   
    17   14   15 1   
    18   16   17 1   
    19   16   21 1   
    20   16   32 1   
    21   17   18 1   
    22   17   33 1   
    23   17   34 1   
    24   18   19 1   
    25   18   35 1   
    26   18   36 1   
    27   19   20 1   
    28   19   22 1   
    29   19   37 1   
    30   20   21 1   
    31   20   38 1   
    32   20   39 1   
    33   21   40 1   
    34   21   41 1   
    35   22   23 1   
@<TRIPOS>SUBSTRUCTURE
     1 1J5         1 TEMP              0 ****  ****    0 ROOT
