@<TRIPOS>MOLECULE
1J5
   42    45     1     0     0
SMALL
bcc


@<TRIPOS>ATOM
      1 C1         -0.9760    3.7450   -1.2340 c3        1 1J5     -0.133100
      2 C2         -1.1740    3.2260    0.1810 c3        1 1J5      0.143800
      3 O4         -2.1300    3.9930    0.8830 oh        1 1J5     -0.579800
      4 C5         -1.5530    1.7620    0.1320 cc        1 1J5      0.357800
      5 N6         -0.5920    0.7090    0.0980 na        1 1J5     -0.142300
      6 C7         -1.3210   -0.4820    0.0500 ca        1 1J5      0.000800
      7 C8         -2.7200   -0.0920    0.0540 ca        1 1J5     -0.083900
      8 N9         -2.8210    1.3030    0.1010 nd        1 1J5     -0.544100
      9 C10        -3.7400   -1.0840    0.0150 ca        1 1J5      0.483200
     10 N11        -3.4890   -2.3850   -0.0270 nb        1 1J5     -0.682000
     11 C12        -2.1600   -2.7490   -0.0290 ca        1 1J5      0.419800
     12 C13        -1.0120   -1.8500    0.0080 ca        1 1J5     -0.189100
     13 C14         0.1590   -2.6820   -0.0080 cc        1 1J5     -0.185200
     14 C15        -0.2740   -4.0080   -0.0520 cd        1 1J5     -0.116100
     15 N16        -1.6650   -4.0610   -0.0670 na        1 1J5     -0.270100
     16 C18         0.8420    0.8810    0.0560 c3        1 1J5      0.060000
     17 C20         1.5450    0.2940    1.2930 c3        1 1J5     -0.099400
     18 C21         3.0340    0.5510    1.2360 c3        1 1J5     -0.073400
     19 C22         3.6350   -0.0300   -0.0410 c3        1 1J5     -0.005600
     20 C24         2.9590    0.5830   -1.2640 c3        1 1J5     -0.073400
     21 C25         1.4680    0.3290   -1.2380 c3        1 1J5     -0.099400
     22 C26         5.0680    0.1950   -0.0820 c1        1 1J5      0.209700
     23 N27         6.2170    0.3670   -0.1150 n1        1 1J5     -0.366800
     24 H1         -1.9140    3.6310   -1.8280 hc        1 1J5      0.052033
     25 H2         -0.7050    4.8280   -1.1980 hc        1 1J5      0.052033
     26 H3         -0.1580    3.1790   -1.7390 hc        1 1J5      0.052033
     27 H4         -0.2370    3.3650    0.7960 h1        1 1J5      0.081700
     28 H5         -2.9800    3.9080    0.4330 ho        1 1J5      0.422000
     29 H6         -4.8060   -0.7870    0.0210 h4        1 1J5      0.039100
     30 H8          1.1950   -2.3570    0.0130 ha        1 1J5      0.152000
     31 H9          0.3160   -4.9260   -0.0750 h4        1 1J5      0.170000
     32 H10         1.0380    1.9980    0.0590 h1        1 1J5      0.065700
     33 H11         1.1280    0.7680    2.2200 hc        1 1J5      0.064700
     34 H12         1.3450   -0.8070    1.3620 hc        1 1J5      0.064700
     35 H13         3.2360    1.6530    1.2770 hc        1 1J5      0.057700
     36 H14         3.5250    0.0830    2.1290 hc        1 1J5      0.057700
     37 H15         3.4570   -1.1460   -0.0500 hc        1 1J5      0.079700
     38 H16         3.1600    1.6860   -1.2890 hc        1 1J5      0.057700
     39 H17         3.3940    0.1380   -2.1970 hc        1 1J5      0.057700
     40 H18         1.2630   -0.7700   -1.3270 hc        1 1J5      0.064700
     41 H19         0.9970    0.8310   -2.1240 hc        1 1J5      0.064700
     42 H7         -2.2200   -4.8760   -0.0930 hn        1 1J5      0.311700
@<TRIPOS>BOND
     1    1    2 1   
     2    1   24 1   
     3    1   25 1   
     4    1   26 1   
     5    2    3 1   
     6    2    4 1   
     7    2   27 1   
     8    3   28 1   
     9    4    5 1   
    10    4    8 2   
    11    5    6 1   
    12    5   16 1   
    13    6    7 ar  
    14    6   12 ar  
    15    7    8 1   
    16    7    9 ar  
    17    9   10 ar  
    18    9   29 1   
    19   10   11 ar  
    20   11   12 ar  
    21   11   15 1   
    22   12   13 1   
    23   13   14 2   
    24   13   30 1   
    25   14   15 1   
    26   14   31 1   
    27   15   42 1   
    28   16   17 1   
    29   16   21 1   
    30   16   32 1   
    31   17   18 1   
    32   17   33 1   
    33   17   34 1   
    34   18   19 1   
    35   18   35 1   
    36   18   36 1   
    37   19   20 1   
    38   19   22 1   
    39   19   37 1   
    40   20   21 1   
    41   20   38 1   
    42   20   39 1   
    43   21   40 1   
    44   21   41 1   
    45   22   23 3   
@<TRIPOS>SUBSTRUCTURE
     1 1J5         1 TEMP              0 ****  ****    0 ROOT
