@<TRIPOS>MOLECULE
1J6
   45    47     1     0     0
SMALL
bcc


@<TRIPOS>ATOM
      1 C1          0.0840    0.3630   -0.8340 c3        1 1J6     -0.133100
      2 C2          1.4120    0.0360   -0.1700 c3        1 1J6      0.143800
      3 O4          1.2800   -0.0390    1.2340 oh        1 1J6     -0.579800
      4 C5          1.9660   -1.2440   -0.7560 cc        1 1J6      0.359800
      5 N6          2.7480   -1.2790   -1.9480 na        1 1J6     -0.140300
      6 C7          3.0620   -2.6230   -2.1670 ca        1 1J6      0.001800
      7 C8          2.4400   -3.3590   -1.0810 ca        1 1J6     -0.083900
      8 N9          1.7690   -2.4710   -0.2330 nd        1 1J6     -0.545100
      9 C10         2.5720   -4.7750   -1.0100 ca        1 1J6      0.483200
     10 N11         3.2470   -5.4890   -1.9000 nb        1 1J6     -0.682000
     11 C12         3.8360   -4.7840   -2.9280 ca        1 1J6      0.419800
     12 C13         3.7880   -3.3410   -3.1290 ca        1 1J6     -0.190100
     13 C14         4.5440   -3.0680   -4.3200 cc        1 1J6     -0.185200
     14 C15         5.0150   -4.2910   -4.8010 cd        1 1J6     -0.116100
     15 N16         4.5950   -5.3290   -3.9730 na        1 1J6     -0.270100
     16 C18         3.0890   -0.1360   -2.7680 c3        1 1J6      0.093200
     17 C20         4.5790    0.0690   -2.8730 c2        1 1J6     -0.189200
     18 C21         5.1600    1.2440   -2.6490 c2        1 1J6     -0.201000
     19 C22         2.0640    1.0340   -6.2980 c3        1 1J6     -0.077400
     20 C24         2.5640    1.1310   -4.8730 c3        1 1J6     -0.082400
     21 C25         2.4640   -0.2090   -4.1760 c3        1 1J6     -0.096400
     22 C26         2.1500    2.3840   -6.9870 c3        1 1J6     -0.022300
     23 C27         1.6890    2.3150   -8.3550 c1        1 1J6      0.207700
     24 N28         1.3200    2.2660   -9.4570 n1        1 1J6     -0.370800
     25 H1         -0.3290    1.3040   -0.3970 hc        1 1J6      0.051367
     26 H2         -0.6510   -0.4600   -0.6670 hc        1 1J6      0.051367
     27 H3          0.2270    0.5010   -1.9320 hc        1 1J6      0.051367
     28 H4          2.1510    0.8790   -0.3100 h1        1 1J6      0.082700
     29 H5          0.6850   -0.7700    1.4460 ho        1 1J6      0.421000
     30 H6          2.1010   -5.3360   -0.1820 h4        1 1J6      0.038100
     31 H8          4.7260   -2.0980   -4.7720 ha        1 1J6      0.154000
     32 H9          5.6250   -4.4980   -5.6820 h4        1 1J6      0.169000
     33 H10         2.6360    0.7720   -2.2590 h1        1 1J6      0.065700
     34 H11         4.6020    2.1450   -2.3590 ha        1 1J6      0.117500
     35 H12         5.1640   -0.8250   -3.1450 ha        1 1J6      0.146000
     36 H13         6.2450    1.3830   -2.7430 ha        1 1J6      0.117500
     37 H14         2.6750    0.2810   -6.8640 hc        1 1J6      0.055700
     38 H15         1.0020    0.6730   -6.3040 hc        1 1J6      0.055700
     39 H16         1.9610    1.8950   -4.3140 hc        1 1J6      0.045700
     40 H17         2.9800   -0.9990   -4.7810 hc        1 1J6      0.062700
     41 H18         1.3840   -0.5020   -4.0940 hc        1 1J6      0.062700
     42 H19         3.6320    1.4820   -4.8660 hc        1 1J6      0.045700
     43 H20         3.2150    2.7510   -6.9790 hc        1 1J6      0.073700
     44 H21         1.5280    3.1390   -6.4300 hc        1 1J6      0.073700
     45 H7          4.7950   -6.2880   -4.0890 hn        1 1J6      0.311700
@<TRIPOS>BOND
     1    1    2 1   
     2    1   25 1   
     3    1   26 1   
     4    1   27 1   
     5    2    3 1   
     6    2    4 1   
     7    2   28 1   
     8    3   29 1   
     9    4    5 1   
    10    4    8 2   
    11    5    6 1   
    12    5   16 1   
    13    6    7 ar  
    14    6   12 ar  
    15    7    8 1   
    16    7    9 ar  
    17    9   10 ar  
    18    9   30 1   
    19   10   11 ar  
    20   11   12 ar  
    21   11   15 1   
    22   12   13 1   
    23   13   14 2   
    24   13   31 1   
    25   14   15 1   
    26   14   32 1   
    27   15   45 1   
    28   16   17 1   
    29   16   21 1   
    30   16   33 1   
    31   17   18 2   
    32   17   35 1   
    33   18   34 1   
    34   18   36 1   
    35   19   20 1   
    36   19   22 1   
    37   19   37 1   
    38   19   38 1   
    39   20   21 1   
    40   20   39 1   
    41   20   42 1   
    42   21   40 1   
    43   21   41 1   
    44   22   23 1   
    45   22   43 1   
    46   22   44 1   
    47   23   24 3   
@<TRIPOS>SUBSTRUCTURE
     1 1J6         1 TEMP              0 ****  ****    0 ROOT
