@<TRIPOS>MOLECULE
1J6
   45    48     1     0     0
SMALL
bcc


@<TRIPOS>ATOM
      1 C1          1.6670   -3.5700   -1.3160 c3        1 1J6     -0.132100
      2 C2          1.9260   -3.0450    0.0870 c3        1 1J6      0.143800
      3 O4          3.0490   -3.6700    0.6720 oh        1 1J6     -0.580800
      4 C5          2.0780   -1.5400    0.0410 cc        1 1J6      0.356800
      5 N6          0.9730   -0.6430    0.1220 na        1 1J6     -0.141300
      6 C7          1.5090    0.6430    0.0350 ca        1 1J6      0.001800
      7 C8          2.9450    0.4680   -0.0990 ca        1 1J6     -0.084900
      8 N9          3.2550   -0.8970   -0.0950 nd        1 1J6     -0.546100
      9 C10         3.7980    1.6030   -0.2080 ca        1 1J6      0.483200
     10 N11         3.3530    2.8510   -0.1960 nb        1 1J6     -0.682000
     11 C12         1.9900    3.0120   -0.0680 ca        1 1J6      0.418800
     12 C13         0.9980    1.9500    0.0530 ca        1 1J6     -0.189100
     13 C14        -0.2810    2.5960    0.1630 cc        1 1J6     -0.183200
     14 C15        -0.0560    3.9730    0.1080 cd        1 1J6     -0.117100
     15 N16         1.3040    4.2340   -0.0300 na        1 1J6     -0.270100
     16 C18        -0.4180   -1.0280    0.2170 c3        1 1J6      0.061000
     17 C20        -1.0710   -0.5600    1.5290 c3        1 1J6     -0.096900
     18 C21        -2.5070   -1.0300    1.6100 c3        1 1J6     -0.076400
     19 C22        -3.3140   -0.5440    0.4160 c3        1 1J6     -0.064700
     20 C24        -2.6790   -1.0390   -0.8740 c3        1 1J6     -0.076400
     21 C25        -1.2460   -0.5690   -0.9970 c3        1 1J6     -0.096900
     22 C26        -4.7560   -1.0240    0.5380 c3        1 1J6     -0.021300
     23 C27        -5.6160   -0.4230   -0.4560 c1        1 1J6      0.208700
     24 N28        -6.3170    0.0590   -1.2490 n1        1 1J6     -0.371800
     25 H1          2.5140   -3.3090   -1.9940 hc        1 1J6      0.051700
     26 H2          1.5640   -4.6810   -1.2840 hc        1 1J6      0.051700
     27 H3          0.7280   -3.1250   -1.7240 hc        1 1J6      0.051700
     28 H4          1.0850   -3.3300    0.7860 h1        1 1J6      0.080700
     29 H5          3.8300   -3.4490    0.1470 ho        1 1J6      0.422000
     30 H6          4.8910    1.4690   -0.3070 h4        1 1J6      0.038100
     31 H8         -1.2510    2.1190    0.2690 ha        1 1J6      0.154000
     32 H9         -0.7760    4.7920    0.1590 h4        1 1J6      0.170000
     33 H10        -0.4440   -2.1620    0.2160 h1        1 1J6      0.062700
     34 H11        -0.4990   -0.9740    2.4010 hc        1 1J6      0.062700
     35 H12        -1.0290    0.5580    1.6010 hc        1 1J6      0.062700
     36 H13        -2.5410   -2.1510    1.6530 hc        1 1J6      0.049950
     37 H14        -2.9650   -0.6430    2.5580 hc        1 1J6      0.049950
     38 H15        -3.3050    0.5830    0.4110 hc        1 1J6      0.062700
     39 H16        -2.7150   -2.1600   -0.9030 hc        1 1J6      0.049950
     40 H17        -3.2670   -0.6610   -1.7510 hc        1 1J6      0.049950
     41 H18        -1.2140    0.5480   -1.0850 hc        1 1J6      0.062700
     42 H19        -0.7990   -0.9920   -1.9350 hc        1 1J6      0.062700
     43 H20        -4.7950   -2.1440    0.4290 hc        1 1J6      0.075700
     44 H21        -5.1510   -0.7660    1.5600 hc        1 1J6      0.075700
     45 H7          1.7270    5.1230   -0.0930 hn        1 1J6      0.310700
@<TRIPOS>BOND
     1    1    2 1   
     2    1   25 1   
     3    1   26 1   
     4    1   27 1   
     5    2    3 1   
     6    2    4 1   
     7    2   28 1   
     8    3   29 1   
     9    4    5 1   
    10    4    8 2   
    11    5    6 1   
    12    5   16 1   
    13    6    7 ar  
    14    6   12 ar  
    15    7    8 1   
    16    7    9 ar  
    17    9   10 ar  
    18    9   30 1   
    19   10   11 ar  
    20   11   12 ar  
    21   11   15 1   
    22   12   13 1   
    23   13   14 2   
    24   13   31 1   
    25   14   15 1   
    26   14   32 1   
    27   15   45 1   
    28   16   17 1   
    29   16   21 1   
    30   16   33 1   
    31   17   18 1   
    32   17   34 1   
    33   17   35 1   
    34   18   19 1   
    35   18   36 1   
    36   18   37 1   
    37   19   20 1   
    38   19   22 1   
    39   19   38 1   
    40   20   21 1   
    41   20   39 1   
    42   20   40 1   
    43   21   41 1   
    44   21   42 1   
    45   22   23 1   
    46   22   43 1   
    47   22   44 1   
    48   23   24 3   
@<TRIPOS>SUBSTRUCTURE
     1 1J6         1 TEMP              0 ****  ****    0 ROOT
