@<TRIPOS>MOLECULE
1J6
   45    38     1     0     0
SMALL
bcc


@<TRIPOS>ATOM
      1 C1         -2.8590    2.6910    0.8650 c3        1 1J6     -0.245000
      2 C2         -1.5640    2.3120    1.5630 c3        1 1J6      0.106000
      3 O4         -1.8240    2.0420    2.9100 oh        1 1J6     -0.317000
      4 C5         -0.9760    1.0770    0.9040 c2        1 1J6     -0.059000
      5 N6          0.0640    0.2130    0.9030 n2        1 1J6     -0.157000
      6 C7         -0.4110   -1.0170    1.2300 c1        1 1J6      0.059000
      7 C8         -1.7440   -0.9090    1.4320 c1        1 1J6     -0.168000
      8 N9         -2.0940    0.3850    1.2310 n1        1 1J6     -0.118000
      9 C10        -2.4970   -2.0490    1.7830 c1        1 1J6      0.017000
     10 N11        -1.8780   -3.2650    1.9210 n1        1 1J6     -0.157000
     11 C12        -0.5090   -3.3770    1.7140 c1        1 1J6     -0.041000
     12 C13         0.2260   -2.2720    1.3720 c1        1 1J6     -0.041000
     13 C14         1.5680   -2.6030    1.4720 c1        1 1J6     -0.195000
     14 C15         1.6530   -3.9210    1.8780 c1        1 1J6     -0.096000
     15 N16         0.3770   -4.4020    2.0280 n1        1 1J6     -0.184000
     16 C18         1.2300    0.9450    0.4540 c2        1 1J6      0.040000
     17 C20         2.1770   -0.0180   -0.2540 c3        1 1J6     -0.168500
     18 C21         1.6200   -0.5150   -1.5790 c3        1 1J6     -0.163000
     19 C22         1.1690    0.6160   -2.4790 c3        1 1J6     -0.101000
     20 C24         0.2210    1.5750   -1.7750 c3        1 1J6     -0.163000
     21 C25         0.7810    2.0740   -0.4400 c3        1 1J6     -0.168500
     22 C26         0.4550    0.0220   -3.7030 c3        1 1J6     -0.073000
     23 C27         0.9060    0.7420   -4.9440 c1        1 1J6     -0.142000
     24 N28         1.2470    1.2860   -5.8820 n1        1 1J6     -0.050000
     25 H1         -3.6090    2.2580    1.3130 hc        1 1J6      0.093333
     26 H2         -2.9760    3.6640    0.8980 hc        1 1J6      0.093333
     27 H3         -2.8240    2.3950   -0.0800 hc        1 1J6      0.093333
     28 H4         -0.9270    3.0530    1.4960 h1        1 1J6      0.119000
     29 H5         -1.9120    2.8160    3.3590 ho        1 1J6      0.217000
     30 H6         -3.4770   -1.9820    1.8700 ha        1 1J6      0.176000
     31 H8          2.3260   -2.0060    1.2870 DU        1 1J6      0.196000
     32 H9          2.4820   -4.4400    1.9850 DU        1 1J6      0.196000
     33 H10         1.6920    1.3250    1.2410 ha        1 1J6      0.104000
     34 H11         2.3410   -0.7890    0.3310 hc        1 1J6      0.096000
     35 H12         3.0320    0.4420   -0.4210 hc        1 1J6      0.096000
     36 H13         2.3200   -1.0320   -2.0450 hc        1 1J6      0.096000
     37 H14         0.8600   -1.1010   -1.4020 hc        1 1J6      0.096000
     38 H15         1.9580    1.1150   -2.7820 hc        1 1J6      0.098000
     39 H16         0.0590    2.3460   -2.3580 hc        1 1J6      0.096000
     40 H17        -0.6280    1.1170   -1.6110 hc        1 1J6      0.096000
     41 H18         1.5450    2.6610   -0.6170 hc        1 1J6      0.096000
     42 H19         0.0870    2.5890    0.0240 hc        1 1J6      0.096000
     43 H20        -0.5110    0.1260   -3.6000 hc        1 1J6      0.116500
     44 H21         0.6760   -0.9360   -3.7800 hc        1 1J6      0.116500
     45 H7          0.1490   -5.2500    2.2900 DU        1 1J6      0.196000
@<TRIPOS>BOND
     1    1    2 1   
     2    1   25 1   
     3    1   26 1   
     4    1   27 1   
     5    2    3 1   
     6    2    4 1   
     7    2   28 1   
     8    3   29 1   
     9    4    5 1   
    10    4    8 1   
    11    5    6 1   
    12    6    7 1   
    13    9   10 1   
    14    9   30 1   
    15   11   12 1   
    16   13   14 1   
    17   14   15 1   
    18   16   17 1   
    19   16   21 1   
    20   16   33 1   
    21   17   18 1   
    22   17   34 1   
    23   17   35 1   
    24   18   19 1   
    25   18   36 1   
    26   18   37 1   
    27   19   20 1   
    28   19   22 1   
    29   19   38 1   
    30   20   21 1   
    31   20   39 1   
    32   20   40 1   
    33   21   41 1   
    34   21   42 1   
    35   22   23 1   
    36   22   43 1   
    37   22   44 1   
    38   23   24 1   
@<TRIPOS>SUBSTRUCTURE
     1 1J6         1 TEMP              0 ****  ****    0 ROOT
