@<TRIPOS>MOLECULE
1J6
   45    48     1     0     0
SMALL
bcc


@<TRIPOS>ATOM
      1 C1          0.2330    0.3060   -0.3180 c3        1 1J6     -0.132100
      2 C2          1.7020    0.0630   -0.0110 c3        1 1J6      0.143800
      3 O4          1.9440    0.0520    1.3800 oh        1 1J6     -0.580800
      4 C5          2.1470   -1.2240   -0.6720 cc        1 1J6      0.356800
      5 N6          2.6190   -1.2870   -2.0150 na        1 1J6     -0.141300
      6 C7          2.9200   -2.6290   -2.2590 ca        1 1J6      0.001800
      7 C8          2.6090   -3.3360   -1.0290 ca        1 1J6     -0.084900
      8 N9          2.1300   -2.4330   -0.0740 nd        1 1J6     -0.546100
      9 C10         2.8100   -4.7430   -0.9420 ca        1 1J6      0.483200
     10 N11         3.2770   -5.4740   -1.9440 nb        1 1J6     -0.682000
     11 C12         3.5700   -4.7980   -3.1080 ca        1 1J6      0.418800
     12 C13         3.4180   -3.3670   -3.3430 ca        1 1J6     -0.189100
     13 C14         3.8490   -3.1270   -4.6920 cc        1 1J6     -0.183200
     14 C15         4.2370   -4.3550   -5.2290 cd        1 1J6     -0.117100
     15 N16         4.0740   -5.3670   -4.2870 na        1 1J6     -0.270100
     16 C18         2.7030   -0.1710   -2.9310 c3        1 1J6      0.061000
     17 C20         4.1480    0.1300   -3.3650 c3        1 1J6     -0.096900
     18 C21         4.1940    1.3360   -4.2780 c3        1 1J6     -0.076400
     19 C22         3.3060    1.1370   -5.4970 c3        1 1J6     -0.064700
     20 C24         1.8740    0.8740   -5.0580 c3        1 1J6     -0.076400
     21 C25         1.7900   -0.3400   -4.1590 c3        1 1J6     -0.096900
     22 C26         3.3880    2.3640   -6.3980 c3        1 1J6     -0.021300
     23 C27         2.7320    2.1510   -7.6690 c1        1 1J6      0.208700
     24 N28         2.2100    1.9880   -8.6950 n1        1 1J6     -0.371800
     25 H1         -0.3920   -0.5360    0.0660 hc        1 1J6      0.051700
     26 H2         -0.0990    1.2500    0.1770 hc        1 1J6      0.051700
     27 H3          0.0800    0.3950   -1.4200 hc        1 1J6      0.051700
     28 H4          2.3370    0.9250   -0.3720 h1        1 1J6      0.080700
     29 H5          1.4560   -0.6850    1.7690 ho        1 1J6      0.422000
     30 H6          2.5750   -5.2810   -0.0050 h4        1 1J6      0.038100
     31 H8          3.8750   -2.1740   -5.2130 ha        1 1J6      0.154000
     32 H9          4.6210   -4.5830   -6.2260 h4        1 1J6      0.170000
     33 H10         2.3260    0.7410   -2.3710 h1        1 1J6      0.062700
     34 H11         4.7770    0.3300   -2.4580 hc        1 1J6      0.062700
     35 H12         4.5850   -0.7620   -3.8860 hc        1 1J6      0.062700
     36 H13         5.2530    1.5060   -4.6050 hc        1 1J6      0.049950
     37 H14         3.8630    2.2510   -3.7190 hc        1 1J6      0.049950
     38 H15         3.6770    0.2410   -6.0690 hc        1 1J6      0.062700
     39 H16         1.2300    0.7100   -5.9610 hc        1 1J6      0.049950
     40 H17         1.4760    1.7750   -4.5190 hc        1 1J6      0.049950
     41 H18         2.0770   -1.2610   -4.7290 hc        1 1J6      0.062700
     42 H19         0.7290   -0.4720   -3.8190 hc        1 1J6      0.062700
     43 H20         2.9150    3.2470   -5.8850 hc        1 1J6      0.075700
     44 H21         4.4680    2.6180   -6.5890 hc        1 1J6      0.075700
     45 H7          4.2750   -6.3240   -4.4130 hn        1 1J6      0.310700
@<TRIPOS>BOND
     1    1    2 1   
     2    1   25 1   
     3    1   26 1   
     4    1   27 1   
     5    2    3 1   
     6    2    4 1   
     7    2   28 1   
     8    3   29 1   
     9    4    5 1   
    10    4    8 2   
    11    5    6 1   
    12    5   16 1   
    13    6    7 ar  
    14    6   12 ar  
    15    7    8 1   
    16    7    9 ar  
    17    9   10 ar  
    18    9   30 1   
    19   10   11 ar  
    20   11   12 ar  
    21   11   15 1   
    22   12   13 1   
    23   13   14 2   
    24   13   31 1   
    25   14   15 1   
    26   14   32 1   
    27   15   45 1   
    28   16   17 1   
    29   16   21 1   
    30   16   33 1   
    31   17   18 1   
    32   17   34 1   
    33   17   35 1   
    34   18   19 1   
    35   18   36 1   
    36   18   37 1   
    37   19   20 1   
    38   19   22 1   
    39   19   38 1   
    40   20   21 1   
    41   20   39 1   
    42   20   40 1   
    43   21   41 1   
    44   21   42 1   
    45   22   23 1   
    46   22   43 1   
    47   22   44 1   
    48   23   24 3   
@<TRIPOS>SUBSTRUCTURE
     1 1J6         1 TEMP              0 ****  ****    0 ROOT
