@<TRIPOS>MOLECULE
1J6
   45    47     1     0     0
SMALL
bcc


@<TRIPOS>ATOM
      1 C1          0.1350    0.3090   -0.4250 c3        1 1J6     -0.133100
      2 C2          1.5730    0.0600   -0.0010 c3        1 1J6      0.143800
      3 O4          1.6940   -0.0000    1.4050 oh        1 1J6     -0.579800
      4 C5          2.0830   -1.2000   -0.6670 cc        1 1J6      0.360800
      5 N6          2.6410   -1.2140   -1.9780 na        1 1J6     -0.140300
      6 C7          2.9820   -2.5420   -2.2420 ca        1 1J6      0.000800
      7 C8          2.6010   -3.2940   -1.0600 ca        1 1J6     -0.082900
      8 N9          2.0450   -2.4280   -0.1110 nd        1 1J6     -0.545100
      9 C10         2.8200   -4.6990   -1.0060 ca        1 1J6      0.484200
     10 N11         3.3650   -5.3900   -1.9970 nb        1 1J6     -0.683000
     11 C12         3.7240   -4.6710   -3.1170 ca        1 1J6      0.419800
     12 C13         3.5610   -3.2360   -3.3150 ca        1 1J6     -0.189100
     13 C14         4.0740   -2.9410   -4.6240 cc        1 1J6     -0.186200
     14 C15         4.5190   -4.1440   -5.1750 cd        1 1J6     -0.117100
     15 N16         4.3130   -5.1900   -4.2790 na        1 1J6     -0.270100
     16 C18         2.8040   -0.0650   -2.8460 c3        1 1J6      0.093200
     17 C20         4.2530    0.2050   -3.1560 c2        1 1J6     -0.189200
     18 C21         4.8490    1.3550   -2.8530 c2        1 1J6     -0.199000
     19 C22         3.1240    0.7130   -6.1790 c3        1 1J6     -0.078400
     20 C24         2.1540    1.0040   -5.0530 c3        1 1J6     -0.079400
     21 C25         1.9710   -0.1900   -4.1390 c3        1 1J6     -0.096400
     22 C26         3.3090    1.9080   -7.0960 c3        1 1J6     -0.023300
     23 C27         2.1150    2.2130   -7.8530 c1        1 1J6      0.208700
     24 N28         1.1600    2.4630   -8.4670 n1        1 1J6     -0.372800
     25 H1          0.0770    0.4390   -1.5320 hc        1 1J6      0.052033
     26 H2         -0.5150   -0.5490   -0.1280 hc        1 1J6      0.052033
     27 H3         -0.2440    1.2330    0.0740 hc        1 1J6      0.052033
     28 H4          2.2320    0.9360   -0.2750 h1        1 1J6      0.081700
     29 H5          1.1810   -0.7550    1.7230 ho        1 1J6      0.421000
     30 H6          2.5330   -5.2730   -0.1050 h4        1 1J6      0.038100
     31 H8          4.1120   -1.9690   -5.1090 ha        1 1J6      0.153000
     32 H9          4.9710   -4.3320   -6.1510 h4        1 1J6      0.169000
     33 H10         2.3860    0.8270   -2.2810 h1        1 1J6      0.065700
     34 H11         4.3330    2.1860   -2.3520 ha        1 1J6      0.117500
     35 H12         4.7960   -0.6230   -3.6400 ha        1 1J6      0.143000
     36 H13         4.1230    0.4390   -5.7450 hc        1 1J6      0.054200
     37 H14         5.9050    1.5430   -3.0910 ha        1 1J6      0.117500
     38 H15         2.7630   -0.1670   -6.7730 hc        1 1J6      0.054200
     39 H16         1.1600    1.2860   -5.4940 hc        1 1J6      0.050200
     40 H17         2.2350   -1.1380   -4.6760 hc        1 1J6      0.062200
     41 H18         0.8890   -0.2670   -3.8490 hc        1 1J6      0.062200
     42 H19         2.5180    1.8900   -4.4660 hc        1 1J6      0.050200
     43 H20         3.5970    2.8140   -6.4920 hc        1 1J6      0.074200
     44 H21         4.1480    1.6990   -7.8180 hc        1 1J6      0.074200
     45 H7          4.5400   -6.1390   -4.4240 hn        1 1J6      0.311700
@<TRIPOS>BOND
     1    1    2 1   
     2    1   25 1   
     3    1   26 1   
     4    1   27 1   
     5    2    3 1   
     6    2    4 1   
     7    2   28 1   
     8    3   29 1   
     9    4    5 1   
    10    4    8 2   
    11    5    6 1   
    12    5   16 1   
    13    6    7 ar  
    14    6   12 ar  
    15    7    8 1   
    16    7    9 ar  
    17    9   10 ar  
    18    9   30 1   
    19   10   11 ar  
    20   11   12 ar  
    21   11   15 1   
    22   12   13 1   
    23   13   14 2   
    24   13   31 1   
    25   14   15 1   
    26   14   32 1   
    27   15   45 1   
    28   16   17 1   
    29   16   21 1   
    30   16   33 1   
    31   17   18 2   
    32   17   35 1   
    33   18   34 1   
    34   18   37 1   
    35   19   20 1   
    36   19   22 1   
    37   19   36 1   
    38   19   38 1   
    39   20   21 1   
    40   20   39 1   
    41   20   42 1   
    42   21   40 1   
    43   21   41 1   
    44   22   23 1   
    45   22   43 1   
    46   22   44 1   
    47   23   24 3   
@<TRIPOS>SUBSTRUCTURE
     1 1J6         1 TEMP              0 ****  ****    0 ROOT
