@<TRIPOS>MOLECULE
1J9
   51    44     1     0     0
SMALL
bcc


@<TRIPOS>ATOM
      1 C1          5.2400    2.0910   -5.1550 c1        1 1J9     -0.116250
      2 C2          5.1620    3.4640   -5.1760 c1        1 1J9     -0.116250
      3 C3          4.3040    4.1190   -4.3200 c1        1 1J9     -0.116250
      4 C4          3.5130    3.3910   -3.4320 c1        1 1J9     -0.050000
      5 C5          3.5920    2.0170   -3.4120 c1        1 1J9      0.072000
      6 C6          4.4530    1.3630   -4.2710 c1        1 1J9     -0.116250
      7 N1          2.7900    1.2360   -2.4230 n3        1 1J9     -0.098000
      8 C7          1.4780    0.7640   -2.4920 c1        1 1J9      0.078000
      9 C8          1.1800    0.1940   -1.3130 c1        1 1J9     -0.243000
     10 C9          2.3050    0.3010   -0.4890 c1        1 1J9     -0.099000
     11 N2          3.2800    0.9430   -1.1890 n2        1 1J9     -0.018000
     12 C10        -0.0760   -0.4010   -1.1210 c1        1 1J9      0.238000
     13 N3         -0.9780   -0.3990   -2.1160 n1        1 1J9     -0.271000
     14 C11        -0.6700    0.1860   -3.3220 c1        1 1J9      0.028000
     15 N4          0.5530    0.7650   -3.5090 n1        1 1J9     -0.180000
     16 O1         -0.3690   -1.1890    0.0050 os        1 1J9     -0.183000
     17 C12        -1.7590   -1.2460    0.3290 c3        1 1J9      0.010000
     18 C13        -2.1830   -2.6330    0.3950 c3        1 1J9     -0.046000
     19 O2         -1.3110   -3.3530    1.2420 os        1 1J9     -0.296000
     20 C14        -1.5690   -4.7560    1.2790 c3        1 1J9     -0.022000
     21 C15        -0.4980   -5.4610    2.1830 c3        1 1J9     -0.023000
     22 O3         -0.7120   -6.8840    2.1640 oh        1 1J9     -0.327000
     23 C16        -1.9960   -0.5670    1.7000 c2        1 1J9      0.317000
     24 O4         -1.7400   -1.1980    2.7780 o         1 1J9     -0.289000
     25 N5         -2.4960    0.7810    1.7560 n         1 1J9     -0.305000
     26 C17        -2.7130    1.4340    3.0610 c2        1 1J9      0.135000
     27 C18        -3.1260    2.7590    3.1130 c2        1 1J9     -0.222000
     28 C19        -3.3970    3.3430    4.3160 c1        1 1J9     -0.060000
     29 C20        -3.2620    2.6210    5.4780 c1        1 1J9     -0.157000
     30 C21        -2.8480    1.2930    5.4240 c1        1 1J9     -0.026000
     31 N6         -2.5770    0.7110    4.2200 n1        1 1J9     -0.137000
     32 CL1        -3.3270    3.4300    6.9890 cl        1 1J9      0.004000
     33 CL2         2.5350    4.2150   -2.2850 cl        1 1J9      0.018000
     34 H1          5.8230    1.6470   -5.7360 ha        1 1J9      0.149000
     35 H2          5.7140    3.9740   -5.7960 ha        1 1J9      0.149000
     36 H3          4.2490    5.1090   -4.3370 ha        1 1J9      0.149000
     37 H4          4.5080    0.4050   -4.2570 ha        1 1J9      0.149000
     38 H5          2.3800   -0.0340    0.4450 DU        1 1J9      0.198000
     39 H6         -1.3210    0.1880   -4.0410 ha        1 1J9      0.198000
     40 H7         -2.3010   -0.7580   -0.3930 h1        1 1J9      0.156000
     41 H8         -2.1610   -3.0120   -0.4750 h1        1 1J9      0.100000
     42 H9         -3.1400   -2.6810    0.7670 h1        1 1J9      0.100000
     43 H10        -1.5250   -5.1000    0.4250 h1        1 1J9      0.087500
     44 H11        -2.4540   -4.9120    1.6440 h1        1 1J9      0.087500
     45 H12        -0.5790   -5.1280    3.1120 h1        1 1J9      0.074500
     46 H13         0.3850   -5.2650    1.8460 h1        1 1J9      0.074500
     47 H14         0.0030   -7.3010    2.5150 ho        1 1J9      0.207000
     48 H15        -2.7110    1.2400    0.9540 hn        1 1J9      0.262000
     49 H16        -3.2230    3.2780    2.2820 ha        1 1J9      0.146000
     50 H17        -3.6820    4.2590    4.3510 ha        1 1J9      0.152000
     51 H18        -2.7460    0.7550    6.2860 ha        1 1J9      0.178000
@<TRIPOS>BOND
     1    1    6 1   
     2    1   34 1   
     3    2    3 1   
     4    2   35 1   
     5    3   36 1   
     6    4    5 1   
     7    4   33 1   
     8    5    7 1   
     9    6   37 1   
    10    7    8 1   
    11    7   11 1   
    12    8   15 1   
    13    9   12 1   
    14   10   11 1   
    15   12   16 1   
    16   13   14 1   
    17   14   39 1   
    18   16   17 1   
    19   17   18 1   
    20   17   23 1   
    21   17   40 1   
    22   18   19 1   
    23   18   41 1   
    24   18   42 1   
    25   19   20 1   
    26   20   21 1   
    27   20   43 1   
    28   20   44 1   
    29   21   22 1   
    30   21   45 1   
    31   21   46 1   
    32   22   47 1   
    33   23   24 1   
    34   23   25 1   
    35   25   26 1   
    36   25   48 1   
    37   26   27 1   
    38   26   31 1   
    39   27   28 1   
    40   27   49 1   
    41   28   50 1   
    42   29   30 1   
    43   29   32 1   
    44   30   51 1   
@<TRIPOS>SUBSTRUCTURE
     1 1J9         1 TEMP              0 ****  ****    0 ROOT
