@<TRIPOS>MOLECULE
1J9
   51    54     1     0     0
SMALL
bcc


@<TRIPOS>ATOM
      1 C1          7.4120    1.2130   -0.7800 ca        1 1J9     -0.123000
      2 C2          8.0460    1.0710    0.4530 ca        1 1J9     -0.115000
      3 C3          7.3040    0.7500    1.5860 ca        1 1J9     -0.123000
      4 C4          5.9200    0.5660    1.4960 ca        1 1J9      0.028400
      5 C5          5.2700    0.7220    0.2510 ca        1 1J9      0.026800
      6 C6          6.0350    1.0470   -0.8890 ca        1 1J9     -0.103000
      7 N1          3.8630    0.5530    0.1230 na        1 1J9      0.063100
      8 C7          3.2330   -0.2520   -0.8500 ca        1 1J9      0.469800
      9 C8          1.8020   -0.1260   -0.5930 ca        1 1J9     -0.457500
     10 C9          1.7160    0.7740    0.5360 cc        1 1J9      0.401800
     11 N2          2.9470    1.1500    0.9260 nd        1 1J9     -0.484100
     12 C10         0.9510   -0.8630   -1.4500 ca        1 1J9      0.736600
     13 N3          1.4490   -1.6330   -2.4470 nb        1 1J9     -0.797000
     14 C11         2.8120   -1.6560   -2.5820 ca        1 1J9      0.690900
     15 N4          3.7560   -1.0200   -1.8570 nb        1 1J9     -0.706000
     16 O1         -0.3940   -0.7450   -1.1960 os        1 1J9     -0.425100
     17 C12        -1.3150   -1.4020   -2.0810 c3        1 1J9      0.051100
     18 C13        -1.4670   -2.8820   -1.7270 c3        1 1J9      0.106400
     19 O2         -1.6170   -3.0290   -0.3200 os        1 1J9     -0.436600
     20 C14        -2.8180   -3.6910    0.0750 c3        1 1J9      0.083400
     21 C15        -2.8980   -3.5200    1.5910 c3        1 1J9      0.130400
     22 O3         -2.6030   -2.1900    1.9660 oh        1 1J9     -0.611800
     23 C16        -2.6530   -0.6370   -1.9490 c         1 1J9      0.667100
     24 O4         -3.2220   -0.2710   -2.9860 o         1 1J9     -0.532100
     25 N5         -3.1430   -0.4830   -0.6620 n         1 1J9     -0.544400
     26 C17        -4.2330    0.3080   -0.2550 ca        1 1J9      0.535200
     27 C18        -4.6850    0.1680    1.0950 ca        1 1J9     -0.282300
     28 C19        -5.7560    0.9360    1.5310 ca        1 1J9     -0.064000
     29 C20        -6.3640    1.8250    0.6390 ca        1 1J9     -0.141900
     30 C21        -5.8560    1.9100   -0.6740 ca        1 1J9      0.434200
     31 N6         -4.8230    1.1870   -1.1240 nb        1 1J9     -0.665000
     32 CL1        -7.6760    2.7820    1.1140 cl        1 1J9     -0.077400
     33 CL2         5.0670    0.1460    2.9000 cl        1 1J9     -0.063400
     34 H1          7.9990    1.4620   -1.6770 ha        1 1J9      0.143000
     35 H2          9.1350    1.2100    0.5340 ha        1 1J9      0.142000
     36 H3          7.8050    0.6350    2.5600 ha        1 1J9      0.153000
     37 H4          5.5480    1.1610   -1.8700 ha        1 1J9      0.158000
     38 H5          0.8090    1.1320    1.0300 h4        1 1J9      0.069800
     39 H6          3.1880   -2.2940   -3.4110 h5        1 1J9      0.060100
     40 H7         -0.9860   -1.3050   -3.1540 h1        1 1J9      0.116700
     41 H8         -2.3320   -3.3100   -2.2970 h1        1 1J9      0.072700
     42 H9         -0.5260   -3.4340   -1.9960 h1        1 1J9      0.072700
     43 H10        -3.7040   -3.2240   -0.4280 h1        1 1J9      0.045700
     44 H11        -2.7570   -4.7750   -0.2030 h1        1 1J9      0.045700
     45 H12        -3.9490   -3.7000    1.9410 h1        1 1J9      0.057700
     46 H13        -2.1970   -4.2340    2.0990 h1        1 1J9      0.057700
     47 H14        -1.6640   -2.0450    1.7820 ho        1 1J9      0.420000
     48 H15        -2.6310   -0.9250    0.0790 hn        1 1J9      0.351500
     49 H16        -4.1910   -0.5400    1.7810 ha        1 1J9      0.170000
     50 H17        -6.1190    0.8420    2.5670 ha        1 1J9      0.152000
     51 H18        -6.3010    2.6030   -1.4140 h4        1 1J9      0.039100
@<TRIPOS>BOND
     1    1    2 ar  
     2    1    6 ar  
     3    1   34 1   
     4    2    3 ar  
     5    2   35 1   
     6    3    4 ar  
     7    3   36 1   
     8    4    5 ar  
     9    4   33 1   
    10    5    6 ar  
    11    5    7 1   
    12    6   37 1   
    13    7    8 1   
    14    7   11 1   
    15    8    9 ar  
    16    8   15 ar  
    17    9   10 1   
    18    9   12 ar  
    19   10   11 2   
    20   10   38 1   
    21   12   13 ar  
    22   12   16 1   
    23   13   14 ar  
    24   14   15 ar  
    25   14   39 1   
    26   16   17 1   
    27   17   18 1   
    28   17   23 1   
    29   17   40 1   
    30   18   19 1   
    31   18   41 1   
    32   18   42 1   
    33   19   20 1   
    34   20   21 1   
    35   20   43 1   
    36   20   44 1   
    37   21   22 1   
    38   21   45 1   
    39   21   46 1   
    40   22   47 1   
    41   23   24 2   
    42   23   25 1   
    43   25   26 1   
    44   25   48 1   
    45   26   27 ar  
    46   26   31 ar  
    47   27   28 ar  
    48   27   49 1   
    49   28   29 ar  
    50   28   50 1   
    51   29   30 ar  
    52   29   32 1   
    53   30   31 ar  
    54   30   51 1   
@<TRIPOS>SUBSTRUCTURE
     1 1J9         1 TEMP              0 ****  ****    0 ROOT
