@<TRIPOS>MOLECULE
1J9
   51    54     1     0     0
SMALL
bcc


@<TRIPOS>ATOM
      1 C1          0.8210    0.6870    0.8460 ca        1 1J9     -0.123000
      2 C2          2.0220    0.0140    1.0620 ca        1 1J9     -0.115000
      3 C3          2.2550   -0.6220    2.2780 ca        1 1J9     -0.123000
      4 C4          1.2880   -0.5920    3.2890 ca        1 1J9      0.028400
      5 C5          0.0740    0.1000    3.0790 ca        1 1J9      0.026800
      6 C6         -0.1490    0.7390    1.8420 ca        1 1J9     -0.103000
      7 N1         -0.9290    0.1590    4.0870 na        1 1J9      0.063100
      8 C7         -2.2930   -0.1350    3.8850 ca        1 1J9      0.469800
      9 C8         -2.9290    0.0520    5.1860 ca        1 1J9     -0.457500
     10 C9         -1.8520    0.4610    6.0590 cc        1 1J9      0.401800
     11 N2         -0.6940    0.5120    5.3770 nd        1 1J9     -0.484100
     12 C10        -4.3210   -0.1980    5.2370 ca        1 1J9      0.736600
     13 N3         -5.0090   -0.5860    4.1360 nb        1 1J9     -0.797000
     14 C11        -4.2900   -0.7170    2.9780 ca        1 1J9      0.690900
     15 N4         -2.9730   -0.5210    2.7600 nb        1 1J9     -0.706000
     16 O1         -4.9100   -0.0270    6.4660 os        1 1J9     -0.425100
     17 C12        -6.3350   -0.1860    6.5680 c3        1 1J9      0.051100
     18 C13        -6.7230   -1.6610    6.6830 c3        1 1J9      0.106400
     19 O2         -5.8730   -2.3120    7.6190 os        1 1J9     -0.436600
     20 C14        -6.5620   -2.9290    8.7060 c3        1 1J9      0.083400
     21 C15        -5.4760   -3.3380    9.6990 c3        1 1J9      0.130400
     22 O3         -4.5410   -2.2930    9.8840 oh        1 1J9     -0.611800
     23 C16        -6.7660    0.6240    7.8130 c         1 1J9      0.667100
     24 O4         -7.7060    1.4200    7.6950 o         1 1J9     -0.532100
     25 N5         -6.0960    0.3330    8.9910 n         1 1J9     -0.544400
     26 C17        -6.1740    1.0320   10.2100 ca        1 1J9      0.535200
     27 C18        -5.5440    0.4440   11.3510 ca        1 1J9     -0.282300
     28 C19        -5.5990    1.1090   12.5700 ca        1 1J9     -0.064000
     29 C20        -6.2700    2.3340   12.6460 ca        1 1J9     -0.141900
     30 C21        -6.8610    2.8500   11.4750 ca        1 1J9      0.434200
     31 N6         -6.8220    2.2370   10.2850 nb        1 1J9     -0.665000
     32 CL1        -6.3730    3.1850   14.1050 cl        1 1J9     -0.077400
     33 CL2         1.6100   -1.4090    4.7400 cl        1 1J9     -0.063400
     34 H1          0.6340    1.1860   -0.1180 ha        1 1J9      0.143000
     35 H2          2.7880   -0.0180    0.2730 ha        1 1J9      0.142000
     36 H3          3.2030   -1.1560    2.4490 ha        1 1J9      0.153000
     37 H4         -1.0940    1.2740    1.6550 ha        1 1J9      0.158000
     38 H5         -1.9180    0.7090    7.1210 h4        1 1J9      0.069800
     39 H6         -4.8840   -1.0330    2.0930 h5        1 1J9      0.060100
     40 H7         -6.8570    0.2710    5.6810 h1        1 1J9      0.116700
     41 H8         -7.8060   -1.7360    6.9630 h1        1 1J9      0.072700
     42 H9         -6.5500   -2.1760    5.6990 h1        1 1J9      0.072700
     43 H10        -7.2800   -2.2060    9.1730 h1        1 1J9      0.045700
     44 H11        -7.1220   -3.8250    8.3340 h1        1 1J9      0.045700
     45 H12        -4.9570   -4.2670    9.3460 h1        1 1J9      0.057700
     46 H13        -5.9280   -3.5120   10.7110 h1        1 1J9      0.057700
     47 H14        -4.0520   -2.2000    9.0550 ho        1 1J9      0.420000
     48 H15        -5.4270   -0.4130    8.9650 hn        1 1J9      0.351500
     49 H16        -5.0210   -0.5230   11.2680 ha        1 1J9      0.170000
     50 H17        -5.1200    0.6720   13.4600 ha        1 1J9      0.152000
     51 H18        -7.3980    3.8180   11.4850 h4        1 1J9      0.039100
@<TRIPOS>BOND
     1    1    2 ar  
     2    1    6 ar  
     3    1   34 1   
     4    2    3 ar  
     5    2   35 1   
     6    3    4 ar  
     7    3   36 1   
     8    4    5 ar  
     9    4   33 1   
    10    5    6 ar  
    11    5    7 1   
    12    6   37 1   
    13    7    8 1   
    14    7   11 1   
    15    8    9 ar  
    16    8   15 ar  
    17    9   10 1   
    18    9   12 ar  
    19   10   11 2   
    20   10   38 1   
    21   12   13 ar  
    22   12   16 1   
    23   13   14 ar  
    24   14   15 ar  
    25   14   39 1   
    26   16   17 1   
    27   17   18 1   
    28   17   23 1   
    29   17   40 1   
    30   18   19 1   
    31   18   41 1   
    32   18   42 1   
    33   19   20 1   
    34   20   21 1   
    35   20   43 1   
    36   20   44 1   
    37   21   22 1   
    38   21   45 1   
    39   21   46 1   
    40   22   47 1   
    41   23   24 2   
    42   23   25 1   
    43   25   26 1   
    44   25   48 1   
    45   26   27 ar  
    46   26   31 ar  
    47   27   28 ar  
    48   27   49 1   
    49   28   29 ar  
    50   28   50 1   
    51   29   30 ar  
    52   29   32 1   
    53   30   31 ar  
    54   30   51 1   
@<TRIPOS>SUBSTRUCTURE
     1 1J9         1 TEMP              0 ****  ****    0 ROOT
