@<TRIPOS>MOLECULE
1J9
   51    54     1     0     0
SMALL
bcc


@<TRIPOS>ATOM
      1 C1          0.8210    0.7220    0.8520 ca        1 1J9     -0.123000
      2 C2          2.0240    0.0490    1.0650 ca        1 1J9     -0.115000
      3 C3          2.2570   -0.5930    2.2780 ca        1 1J9     -0.123000
      4 C4          1.2900   -0.5700    3.2890 ca        1 1J9      0.028400
      5 C5          0.0750    0.1220    3.0820 ca        1 1J9      0.026800
      6 C6         -0.1480    0.7680    1.8480 ca        1 1J9     -0.103000
      7 N1         -0.9280    0.1750    4.0900 na        1 1J9      0.063100
      8 C7         -2.2920   -0.1200    3.8860 ca        1 1J9      0.469800
      9 C8         -2.9290    0.0590    5.1870 ca        1 1J9     -0.457500
     10 C9         -1.8520    0.4650    6.0640 cc        1 1J9      0.401800
     11 N2         -0.6940    0.5210    5.3820 nd        1 1J9     -0.484100
     12 C10        -4.3200   -0.1920    5.2370 ca        1 1J9      0.736600
     13 N3         -5.0080   -0.5760    4.1340 nb        1 1J9     -0.797000
     14 C11        -4.2880   -0.7000    2.9750 ca        1 1J9      0.690900
     15 N4         -2.9710   -0.5010    2.7590 nb        1 1J9     -0.706000
     16 O1         -4.9100   -0.0280    6.4670 os        1 1J9     -0.425100
     17 C12        -6.3350   -0.1890    6.5670 c3        1 1J9      0.051100
     18 C13        -6.7210   -1.6650    6.6760 c3        1 1J9      0.106400
     19 O2         -5.8710   -2.3200    7.6100 os        1 1J9     -0.436600
     20 C14        -6.5610   -2.9420    8.6930 c3        1 1J9      0.083400
     21 C15        -5.4740   -3.3540    9.6850 c3        1 1J9      0.130400
     22 O3         -4.5410   -2.3090    9.8760 oh        1 1J9     -0.611800
     23 C16        -6.7670    0.6140    7.8160 c         1 1J9      0.667100
     24 O4         -7.7080    1.4100    7.7020 o         1 1J9     -0.532100
     25 N5         -6.0970    0.3190    8.9930 ns        1 1J9     -0.544400
     26 C17        -6.1760    1.0130   10.2150 ca        1 1J9      0.535200
     27 C18        -5.5460    0.4210   11.3540 ca        1 1J9     -0.282300
     28 C19        -5.6030    1.0810   12.5750 ca        1 1J9     -0.064000
     29 C20        -6.2740    2.3050   12.6570 ca        1 1J9     -0.141900
     30 C21        -6.8640    2.8260   11.4870 ca        1 1J9      0.434200
     31 N6         -6.8240    2.2180   10.2940 nb        1 1J9     -0.665000
     32 Cl1        -6.3780    3.1500   14.1190 cl        1 1J9     -0.077400
     33 Cl2         1.6120   -1.3940    4.7350 cl        1 1J9     -0.063400
     34 H1          0.6340    1.2260   -0.1090 ha        1 1J9      0.143000
     35 H2          2.7900    0.0220    0.2760 ha        1 1J9      0.142000
     36 H3          3.2050   -1.1270    2.4460 ha        1 1J9      0.153000
     37 H4         -1.0940    1.3020    1.6640 ha        1 1J9      0.158000
     38 H5         -1.9190    0.7080    7.1260 h4        1 1J9      0.069800
     39 H6         -4.8820   -1.0120    2.0890 h5        1 1J9      0.060100
     40 H7         -6.8580    0.2710    5.6830 h1        1 1J9      0.116700
     41 H8         -6.5460   -2.1760    5.6900 h1        1 1J9      0.072700
     42 H9         -7.8040   -1.7420    6.9540 h1        1 1J9      0.072700
     43 H10        -7.1190   -3.8370    8.3160 h1        1 1J9      0.045700
     44 H11        -7.2790   -2.2220    9.1630 h1        1 1J9      0.045700
     45 H12        -5.9280   -3.5340   10.6960 h1        1 1J9      0.057700
     46 H13        -4.9540   -4.2820    9.3280 h1        1 1J9      0.057700
     47 H14        -4.0510   -2.2120    9.0480 ho        1 1J9      0.420000
     48 H15        -5.4270   -0.4270    8.9640 hn        1 1J9      0.351500
     49 H16        -5.0240   -0.5460   11.2670 ha        1 1J9      0.170000
     50 H17        -5.1250    0.6400   13.4640 ha        1 1J9      0.152000
     51 H18        -7.4010    3.7930   11.5010 h4        1 1J9      0.039100
@<TRIPOS>BOND
     1    1    2 ar  
     2    1    6 ar  
     3    1   34 1   
     4    2    3 ar  
     5    2   35 1   
     6    3    4 ar  
     7    3   36 1   
     8    4    5 ar  
     9    4   33 1   
    10    5    6 ar  
    11    5    7 1   
    12    6   37 1   
    13    7    8 1   
    14    7   11 1   
    15    8    9 ar  
    16    8   15 ar  
    17    9   10 1   
    18    9   12 ar  
    19   10   11 2   
    20   10   38 1   
    21   12   13 ar  
    22   12   16 1   
    23   13   14 ar  
    24   14   15 ar  
    25   14   39 1   
    26   16   17 1   
    27   17   18 1   
    28   17   23 1   
    29   17   40 1   
    30   18   19 1   
    31   18   41 1   
    32   18   42 1   
    33   19   20 1   
    34   20   21 1   
    35   20   43 1   
    36   20   44 1   
    37   21   22 1   
    38   21   45 1   
    39   21   46 1   
    40   22   47 1   
    41   23   24 2   
    42   23   25 1   
    43   25   26 1   
    44   25   48 1   
    45   26   27 ar  
    46   26   31 ar  
    47   27   28 ar  
    48   27   49 1   
    49   28   29 ar  
    50   28   50 1   
    51   29   30 ar  
    52   29   32 1   
    53   30   31 ar  
    54   30   51 1   
@<TRIPOS>SUBSTRUCTURE
     1 1J9         1 TEMP              0 ****  ****    0 ROOT
