@<TRIPOS>MOLECULE
1J9
   52    55     1     0     0
SMALL
bcc


@<TRIPOS>ATOM
      1 C1          0.6470    1.1520    0.6590 ca        1 1J9     -0.119000
      2 C2          1.8500    0.4500    0.7290 ca        1 1J9     -0.100000
      3 C3          2.1540   -0.3060    1.8570 ca        1 1J9     -0.118000
      4 C4          1.2560   -0.3690    2.9290 ca        1 1J9      0.034400
      5 C5          0.0420    0.3510    2.8650 ca        1 1J9      0.000800
      6 C6         -0.2560    1.1120    1.7180 ca        1 1J9     -0.097000
      7 N1         -0.8930    0.3170    3.9440 na        1 1J9      0.087100
      8 C7         -2.2510   -0.0270    3.8180 ca        1 1J9      0.469800
      9 C8         -2.8000    0.0370    5.1770 ca        1 1J9     -0.449500
     10 C9         -1.6750    0.4270    5.9960 cc        1 1J9      0.380800
     11 N2         -0.5760    0.5790    5.2330 nd        1 1J9     -0.454100
     12 C10        -4.1680   -0.2800    5.2870 ca        1 1J9      0.713600
     13 N3         -4.9220   -0.6170    4.2210 nb        1 1J9     -0.796000
     14 C11        -4.2850   -0.6300    3.0020 ca        1 1J9      0.691900
     15 N4         -2.9980   -0.3580    2.7170 nb        1 1J9     -0.669000
     16 O1         -4.6940   -0.2450    6.5730 os        1 1J9     -0.468100
     17 C12        -6.1060   -0.4200    6.7190 c3        1 1J9      0.090100
     18 C13        -6.4820   -1.9060    6.8040 c3        1 1J9      0.102400
     19 O2         -5.9450   -2.4140    8.0200 os        1 1J9     -0.467600
     20 C14        -6.7210   -3.4600    8.6080 c3        1 1J9      0.122400
     21 C15        -6.0690   -3.7540    9.9540 c3        1 1J9      0.124400
     22 O3         -6.1280   -2.5580   10.7260 oh        1 1J9     -0.659800
     23 C16        -6.4880    0.2970    8.0160 c         1 1J9      0.552100
     24 O4         -7.4820    0.9850    8.1700 o         1 1J9     -0.392100
     25 N5         -5.5740    0.0560    9.1890 n4        1 1J9     -0.647500
     26 C17        -5.7520    1.0270   10.2840 ca        1 1J9      0.451200
     27 C18        -6.3270    0.6040   11.5000 ca        1 1J9     -0.180300
     28 C19        -6.4840    1.5560   12.5140 ca        1 1J9     -0.083000
     29 C20        -6.0770    2.8720   12.2830 ca        1 1J9     -0.062900
     30 C21        -5.5120    3.1990   11.0190 ca        1 1J9      0.434200
     31 N6         -5.3500    2.3100   10.0370 nb        1 1J9     -0.635000
     32 CL1        -6.2440    4.0590   13.4590 cl        1 1J9      0.006600
     33 CL2         1.6550   -1.3220    4.2730 cl        1 1J9     -0.060400
     34 H1          0.4060    1.7460   -0.2360 ha        1 1J9      0.152000
     35 H2          2.5620    0.4900   -0.1100 ha        1 1J9      0.153000
     36 H3          3.1040   -0.8630    1.9100 ha        1 1J9      0.161000
     37 H4         -1.2030    1.6700    1.6480 ha        1 1J9      0.155000
     38 H5         -1.6570    0.5940    7.0740 h4        1 1J9      0.061800
     39 H6         -4.9320   -0.9060    2.1390 h5        1 1J9      0.076100
     40 H7         -6.6790    0.0730    5.8800 h1        1 1J9      0.147700
     41 H8         -6.0110   -2.4610    5.9490 h1        1 1J9      0.089700
     42 H9         -7.5990   -2.0130    6.7650 h1        1 1J9      0.089700
     43 H10        -7.7820   -3.1210    8.7410 h1        1 1J9      0.062700
     44 H11        -6.6830   -4.3700    7.9540 h1        1 1J9      0.062700
     45 H12        -4.9950   -4.0530    9.8160 h1        1 1J9      0.063700
     46 H13        -6.6360   -4.5760   10.4660 h1        1 1J9      0.063700
     47 H14        -5.8240   -2.7850   11.6130 ho        1 1J9      0.430000
     48 H15        -5.7510   -0.9090    9.5430 hn        1 1J9      0.497800
     49 H16        -6.6480   -0.4390   11.6600 ha        1 1J9      0.177000
     50 H17        -6.9300    1.2610   13.4790 ha        1 1J9      0.184000
     51 H18        -5.1760    4.2320   10.7910 h4        1 1J9      0.071100
     52 H52        -4.6030    0.0920    8.8390 hn        1 1J9      0.497800
@<TRIPOS>BOND
     1    1    2 ar  
     2    1    6 ar  
     3    1   34 1   
     4    2    3 ar  
     5    2   35 1   
     6    3    4 ar  
     7    3   36 1   
     8    4    5 ar  
     9    4   33 1   
    10    5    6 ar  
    11    5    7 1   
    12    6   37 1   
    13    7    8 1   
    14    7   11 1   
    15    8    9 ar  
    16    8   15 ar  
    17    9   10 1   
    18    9   12 ar  
    19   10   11 2   
    20   10   38 1   
    21   12   13 ar  
    22   12   16 1   
    23   13   14 ar  
    24   14   15 ar  
    25   14   39 1   
    26   16   17 1   
    27   17   18 1   
    28   17   23 1   
    29   17   40 1   
    30   18   19 1   
    31   18   41 1   
    32   18   42 1   
    33   19   20 1   
    34   20   21 1   
    35   20   43 1   
    36   20   44 1   
    37   21   22 1   
    38   21   45 1   
    39   21   46 1   
    40   22   47 1   
    41   23   24 2   
    42   23   25 1   
    43   25   26 1   
    44   25   48 1   
    45   25   52 1   
    46   26   27 ar  
    47   26   31 ar  
    48   27   28 ar  
    49   27   49 1   
    50   28   29 ar  
    51   28   50 1   
    52   29   30 ar  
    53   29   32 1   
    54   30   31 ar  
    55   30   51 1   
@<TRIPOS>SUBSTRUCTURE
     1 1J9         1 TEMP              0 ****  ****    0 ROOT
