@<TRIPOS>MOLECULE
1JC
   68    73     1     0     0
SMALL
bcc


@<TRIPOS>ATOM
      1 C          -0.0780   -0.1220   -0.1340 ca        1 1JC     -0.064300
      2 C1          1.3140   -0.3650    0.0430 ca        1 1JC      0.415200
      3 N           1.9080   -0.4950    1.2300 nb        1 1JC     -0.646000
      4 C2          1.1510   -0.3620    2.3600 ca        1 1JC      0.452100
      5 C3         -0.2340   -0.0950    2.2880 ca        1 1JC     -0.246900
      6 C4         -0.8470    0.0020    1.0280 ca        1 1JC     -0.073000
      7 C5          1.8440   -0.5720    3.6320 cc        1 1JC     -0.150800
      8 C6          1.6040    0.0480    4.7970 cd        1 1JC     -0.154200
      9 C7          0.6060    1.0590    5.0760 ca        1 1JC      0.051200
     10 C8         -0.6640    1.0750    4.4790 ca        1 1JC     -0.145600
     11 C9         -1.0960    0.0710    3.4730 c         1 1JC      0.595300
     12 C10         0.9150    2.0460    6.0370 ca        1 1JC     -0.123000
     13 C11        -0.0080    3.0180    6.3870 ca        1 1JC     -0.083000
     14 C12        -1.2790    3.0290    5.7860 ca        1 1JC     -0.183300
     15 C13        -1.6050    2.0430    4.8530 ca        1 1JC     -0.047000
     16 C14        -2.2970    4.0290    6.2060 c3        1 1JC     -0.280300
     17 S          -2.1180    5.3960    5.2470 s6        1 1JC      1.352900
     18 N15        -3.5780    6.3730    5.9630 n4        1 1JC     -0.704900
     19 O          -2.1780   -0.5130    3.5920 o         1 1JC     -0.498100
     20 O16        -1.0370    6.1890    5.5800 o         1 1JC     -0.553300
     21 O17        -2.5380    5.2490    3.9400 o         1 1JC     -0.553300
     22 C18        -0.6520   -0.0230   -1.4380 cc        1 1JC     -0.246300
     23 C19        -0.0200   -0.1960   -2.6900 cd        1 1JC     -0.105300
     24 N20        -0.9970   -0.0020   -3.6640 na        1 1JC      0.105400
     25 N21        -2.1960    0.2780   -3.1210 nd        1 1JC     -0.498800
     26 C22        -2.0320    0.2750   -1.7770 cc        1 1JC      0.317200
     27 C23        -3.2400    7.7900    6.2430 c3        1 1JC      0.073500
     28 C24        -4.3630    8.6130    6.8280 ca        1 1JC      0.334600
     29 N25        -5.4930    7.9940    7.2570 nb        1 1JC     -0.710000
     30 C26        -6.4570    8.7630    7.7850 ca        1 1JC      0.422200
     31 C27        -6.3500   10.1640    7.9150 ca        1 1JC     -0.208300
     32 C28        -5.1850   10.7840    7.4700 ca        1 1JC     -0.072000
     33 C29        -4.1660   10.0020    6.9130 ca        1 1JC     -0.209300
     34 C30        -0.7620   -0.1070   -5.1080 c3        1 1JC      0.058000
     35 C31        -0.2910   -1.5130   -5.5100 c3        1 1JC     -0.093400
     36 C32        -0.0750   -1.5720   -7.0210 c3        1 1JC      0.163300
     37 N33         0.8330   -0.5500   -7.5010 n3        1 1JC     -0.826200
     38 C34         0.4530    0.7910   -7.1070 c3        1 1JC      0.163300
     39 C35         0.2560    0.9330   -5.5980 c3        1 1JC     -0.093400
     40 H1          1.9780   -0.4680   -0.8360 h4        1 1JC      0.033100
     41 H2         -1.9350    0.1650    0.9640 ha        1 1JC      0.155000
     42 H3          2.6770   -1.3040    3.5880 ha        1 1JC      0.165000
     43 H4          2.2450   -0.2030    5.6650 ha        1 1JC      0.151000
     44 H5          1.9080    2.0380    6.5150 ha        1 1JC      0.162000
     45 H6          0.2560    3.7780    7.1400 ha        1 1JC      0.146000
     46 H7         -2.6120    2.0030    4.4030 ha        1 1JC      0.155000
     47 H8         -2.1540    4.2250    7.3090 h1        1 1JC      0.156200
     48 H9         -3.3120    3.5410    6.1300 h1        1 1JC      0.156200
     49 H10        -4.3550    6.3630    5.2950 hn        1 1JC      0.460300
     50 H11         1.0140   -0.4370   -2.9430 h4        1 1JC      0.184000
     51 H12        -2.8600    0.4710   -1.0960 h4        1 1JC      0.044100
     52 H13        -2.9110    8.2650    5.2720 hx        1 1JC      0.114200
     53 H14        -2.3680    7.8060    6.9640 hx        1 1JC      0.114200
     54 H15        -7.3660    8.2280    8.1230 h4        1 1JC      0.045100
     55 H16        -7.1740   10.7420    8.3570 ha        1 1JC      0.171000
     56 H17        -5.0610   11.8760    7.5520 ha        1 1JC      0.167000
     57 H18        -3.2360   10.4640    6.5530 ha        1 1JC      0.159000
     58 H19        -1.7490    0.0950   -5.6270 h1        1 1JC      0.092700
     59 H20        -1.0620   -2.2770   -5.2290 hc        1 1JC      0.060700
     60 H21         0.6610   -1.7680   -4.9780 hc        1 1JC      0.060700
     61 H22        -1.0870   -1.5140   -7.5230 h1        1 1JC      0.038450
     62 H23         0.3760   -2.5720   -7.2800 h1        1 1JC      0.038450
     63 H24         0.9270   -0.6070   -8.4980 hn        1 1JC      0.375800
     64 H26         1.2820    1.4840   -7.4270 h1        1 1JC      0.038450
     65 H27        -0.4960    1.1340   -7.6180 h1        1 1JC      0.038450
     66 H28         1.2360    0.7930   -5.0710 hc        1 1JC      0.060700
     67 H29        -0.1100    1.9700   -5.3820 hc        1 1JC      0.060700
     68 H152       -3.9370    5.9540    6.8220 hn        1 1JC      0.460300
@<TRIPOS>BOND
     1    1    2 ar  
     2    1    6 ar  
     3    1   22 1   
     4    2    3 ar  
     5    2   40 1   
     6    3    4 ar  
     7    4    5 ar  
     8    4    7 1   
     9    5    6 ar  
    10    5   11 1   
    11    6   41 1   
    12    7    8 2   
    13    7   42 1   
    14    8    9 1   
    15    8   43 1   
    16    9   10 ar  
    17    9   12 ar  
    18   10   11 1   
    19   10   15 ar  
    20   11   19 2   
    21   12   13 ar  
    22   12   44 1   
    23   13   14 ar  
    24   13   45 1   
    25   14   15 ar  
    26   14   16 1   
    27   15   46 1   
    28   16   17 1   
    29   16   47 1   
    30   16   48 1   
    31   17   18 1   
    32   17   20 2   
    33   17   21 2   
    34   18   27 1   
    35   18   49 1   
    36   18   68 1   
    37   22   23 2   
    38   22   26 1   
    39   23   24 1   
    40   23   50 1   
    41   24   25 1   
    42   24   34 1   
    43   25   26 2   
    44   26   51 1   
    45   27   28 1   
    46   27   52 1   
    47   27   53 1   
    48   28   29 ar  
    49   28   33 ar  
    50   29   30 ar  
    51   30   31 ar  
    52   30   54 1   
    53   31   32 ar  
    54   31   55 1   
    55   32   33 ar  
    56   32   56 1   
    57   33   57 1   
    58   34   35 1   
    59   34   39 1   
    60   34   58 1   
    61   35   36 1   
    62   35   59 1   
    63   35   60 1   
    64   36   37 1   
    65   36   61 1   
    66   36   62 1   
    67   37   38 1   
    68   37   63 1   
    69   38   39 1   
    70   38   64 1   
    71   38   65 1   
    72   39   66 1   
    73   39   67 1   
@<TRIPOS>SUBSTRUCTURE
     1 1JC         1 TEMP              0 ****  ****    0 ROOT
