@<TRIPOS>MOLECULE
1JC
   68    73     1     0     0
SMALL
bcc


@<TRIPOS>ATOM
      1 C          -0.0920   -0.1370   -0.1210 ca        1 1JC     -0.064300
      2 C1          1.2990   -0.3830    0.0540 ca        1 1JC      0.415200
      3 N           1.8940   -0.5110    1.2400 nb        1 1JC     -0.646000
      4 C2          1.1400   -0.3720    2.3710 ca        1 1JC      0.452100
      5 C3         -0.2440   -0.1000    2.3010 ca        1 1JC     -0.246900
      6 C4         -0.8590   -0.0050    1.0410 ca        1 1JC     -0.073000
      7 C5          1.8340   -0.5790    3.6430 cc        1 1JC     -0.150800
      8 C6          1.5980    0.0460    4.8060 cd        1 1JC     -0.154200
      9 C7          0.6050    1.0620    5.0830 ca        1 1JC      0.051200
     10 C8         -0.6660    1.0800    4.4880 ca        1 1JC     -0.145600
     11 C9         -1.1030    0.0730    3.4860 c         1 1JC      0.595300
     12 C10         0.9180    2.0520    6.0390 ca        1 1JC     -0.123000
     13 C11         0.0010    3.0290    6.3870 ca        1 1JC     -0.083000
     14 C12        -1.2710    3.0410    5.7880 ca        1 1JC     -0.183300
     15 C13        -1.6030    2.0530    4.8590 ca        1 1JC     -0.047000
     16 C14        -2.2850    4.0470    6.2050 c3        1 1JC     -0.280300
     17 S          -2.1050    5.4080    5.2370 s6        1 1JC      1.352900
     18 N15        -3.5600    6.3940    5.9520 ny        1 1JC     -0.704900
     19 O          -2.1880   -0.5060    3.6100 o         1 1JC     -0.498100
     20 O16        -1.0210    6.1990    5.5630 o         1 1JC     -0.553300
     21 O17        -2.5290    5.2540    3.9330 o         1 1JC     -0.553300
     22 C18        -0.6680   -0.0410   -1.4250 cc        1 1JC     -0.246300
     23 C19        -0.0350   -0.2050   -2.6780 cd        1 1JC     -0.105300
     24 N20        -1.0160   -0.0180   -3.6500 na        1 1JC      0.105400
     25 N21        -2.2160    0.2490   -3.1060 nd        1 1JC     -0.498800
     26 C22        -2.0510    0.2450   -1.7630 cc        1 1JC      0.317200
     27 C23        -3.2190    7.8130    6.2160 c3        1 1JC      0.073500
     28 C24        -4.3370    8.6430    6.7990 ca        1 1JC      0.334600
     29 N25        -5.4650    8.0290    7.2420 nb        1 1JC     -0.710000
     30 C26        -6.4250    8.8050    7.7680 ca        1 1JC      0.422200
     31 C27        -6.3160   10.2070    7.8810 ca        1 1JC     -0.208300
     32 C28        -5.1540   10.8220    7.4230 ca        1 1JC     -0.072000
     33 C29        -4.1390   10.0330    6.8680 ca        1 1JC     -0.209300
     34 C30        -0.7800   -0.1160   -5.0950 c3        1 1JC      0.058000
     35 C31        -0.2920   -1.5150   -5.5010 c3        1 1JC     -0.093400
     36 C32        -0.0760   -1.5680   -7.0130 c3        1 1JC      0.163300
     37 N33         0.8190   -0.5330   -7.4900 n7        1 1JC     -0.826200
     38 C34         0.4220    0.8020   -7.0930 c3        1 1JC      0.163300
     39 C35         0.2250    0.9380   -5.5830 c3        1 1JC     -0.093400
     40 H1          1.9610   -0.4920   -0.8250 h4        1 1JC      0.033100
     41 H2         -1.9460    0.1610    0.9790 ha        1 1JC      0.155000
     42 H3          2.6640   -1.3140    3.6000 ha        1 1JC      0.165000
     43 H4          2.2400   -0.2040    5.6740 ha        1 1JC      0.151000
     44 H5          1.9130    2.0410    6.5160 ha        1 1JC      0.162000
     45 H6          0.2680    3.7910    7.1360 ha        1 1JC      0.146000
     46 H7         -2.6110    2.0150    4.4110 ha        1 1JC      0.155000
     47 H8         -2.1380    4.2490    7.3060 h1        1 1JC      0.156200
     48 H9         -3.3020    3.5620    6.1360 h1        1 1JC      0.156200
     49 H10        -3.9140    5.9840    6.8170 hn        1 1JC      0.460300
     50 H11         1.0000   -0.4340   -2.9320 h4        1 1JC      0.184000
     51 H12        -2.8810    0.4310   -1.0810 h4        1 1JC      0.044100
     52 H13        -2.3420    7.8350    6.9310 hx        1 1JC      0.114200
     53 H14        -2.8940    8.2780    5.2380 hx        1 1JC      0.114200
     54 H15        -7.3320    8.2740    8.1180 h4        1 1JC      0.045100
     55 H16        -7.1370   10.7910    8.3230 ha        1 1JC      0.171000
     56 H17        -5.0290   11.9150    7.4920 ha        1 1JC      0.167000
     57 H18        -3.2110   10.4900    6.4970 ha        1 1JC      0.159000
     58 H19        -1.7700    0.0750   -5.6130 h1        1 1JC      0.092700
     59 H20        -1.0520   -2.2890   -5.2220 hc        1 1JC      0.060700
     60 H21         0.6640   -1.7600   -4.9700 hc        1 1JC      0.060700
     61 H22         0.3880   -2.5610   -7.2740 h1        1 1JC      0.038450
     62 H23        -1.0890   -1.5210   -7.5140 h1        1 1JC      0.038450
     63 H24         0.9130   -0.5860   -8.4870 hn        1 1JC      0.375800
     64 H26         1.2420    1.5070   -7.4110 h1        1 1JC      0.038450
     65 H27        -0.5310    1.1350   -7.6020 h1        1 1JC      0.038450
     66 H28        -0.1550    1.9690   -5.3640 hc        1 1JC      0.060700
     67 H29         1.2060    0.8090   -5.0570 hc        1 1JC      0.060700
     68 H152       -4.3410    6.3780    5.2890 hn        1 1JC      0.460300
@<TRIPOS>BOND
     1    1    2 ar  
     2    1    6 ar  
     3    1   22 1   
     4    2    3 ar  
     5    2   40 1   
     6    3    4 ar  
     7    4    5 ar  
     8    4    7 1   
     9    5    6 ar  
    10    5   11 1   
    11    6   41 1   
    12    7    8 2   
    13    7   42 1   
    14    8    9 1   
    15    8   43 1   
    16    9   10 ar  
    17    9   12 ar  
    18   10   11 1   
    19   10   15 ar  
    20   11   19 2   
    21   12   13 ar  
    22   12   44 1   
    23   13   14 ar  
    24   13   45 1   
    25   14   15 ar  
    26   14   16 1   
    27   15   46 1   
    28   16   17 1   
    29   16   47 1   
    30   16   48 1   
    31   17   18 1   
    32   17   20 2   
    33   17   21 2   
    34   18   27 1   
    35   18   49 1   
    36   18   68 1   
    37   22   23 2   
    38   22   26 1   
    39   23   24 1   
    40   23   50 1   
    41   24   25 1   
    42   24   34 1   
    43   25   26 2   
    44   26   51 1   
    45   27   28 1   
    46   27   52 1   
    47   27   53 1   
    48   28   29 ar  
    49   28   33 ar  
    50   29   30 ar  
    51   30   31 ar  
    52   30   54 1   
    53   31   32 ar  
    54   31   55 1   
    55   32   33 ar  
    56   32   56 1   
    57   33   57 1   
    58   34   35 1   
    59   34   39 1   
    60   34   58 1   
    61   35   36 1   
    62   35   59 1   
    63   35   60 1   
    64   36   37 1   
    65   36   61 1   
    66   36   62 1   
    67   37   38 1   
    68   37   63 1   
    69   38   39 1   
    70   38   64 1   
    71   38   65 1   
    72   39   66 1   
    73   39   67 1   
@<TRIPOS>SUBSTRUCTURE
     1 1JC         1 TEMP              0 ****  ****    0 ROOT
