@<TRIPOS>MOLECULE
1JC
   68    73     1     0     0
SMALL
bcc


@<TRIPOS>ATOM
      1 C          -0.1100   -0.1470   -0.1380 ca        1 1JC     -0.064300
      2 C1          1.2770   -0.4090    0.0480 ca        1 1JC      0.415200
      3 N           1.8610   -0.5510    1.2390 nb        1 1JC     -0.646000
      4 C2          1.0980   -0.4120    2.3640 ca        1 1JC      0.452100
      5 C3         -0.2830   -0.1260    2.2830 ca        1 1JC     -0.246900
      6 C4         -0.8850   -0.0160    1.0180 ca        1 1JC     -0.073000
      7 C5          1.7780   -0.6360    3.6400 cc        1 1JC     -0.150800
      8 C6          1.5380   -0.0170    4.8050 cd        1 1JC     -0.154200
      9 C7          0.5520    1.0070    5.0800 ca        1 1JC      0.051200
     10 C8         -0.7130    1.0420    4.4750 ca        1 1JC     -0.145600
     11 C9         -1.1510    0.0480    3.4620 c         1 1JC      0.595300
     12 C10         0.8670    1.9870    6.0470 ca        1 1JC     -0.123000
     13 C11        -0.0440    2.9710    6.3930 ca        1 1JC     -0.083000
     14 C12        -1.3100    3.0010    5.7830 ca        1 1JC     -0.183300
     15 C13        -1.6440    2.0220    4.8440 ca        1 1JC     -0.047000
     16 C14        -2.3170    4.0140    6.1990 c3        1 1JC     -0.280300
     17 S          -2.1140    5.3800    5.2420 s6        1 1JC      1.352900
     18 N15        -3.5650    6.3760    5.9500 n4        1 1JC     -0.704900
     19 O          -2.2430   -0.5210    3.5710 o         1 1JC     -0.498100
     20 O16        -1.0250    6.1570    5.5820 o         1 1JC     -0.553300
     21 O17        -2.5280    5.2390    3.9330 o         1 1JC     -0.553300
     22 C18        -0.6720   -0.0350   -1.4460 cc        1 1JC     -0.246300
     23 C19        -0.0300   -0.1980   -2.6950 cd        1 1JC     -0.105300
     24 N20        -1.0000    0.0070   -3.6740 na        1 1JC      0.105400
     25 N21        -2.2020    0.2850   -3.1390 nd        1 1JC     -0.498800
     26 C22        -2.0490    0.2690   -1.7940 cc        1 1JC      0.317200
     27 C23        -3.2120    7.7880    6.2280 c3        1 1JC      0.073500
     28 C24        -4.3270    8.6260    6.8070 ca        1 1JC      0.334600
     29 N25        -5.4650    8.0210    7.2340 nb        1 1JC     -0.710000
     30 C26        -6.4230    8.8030    7.7570 ca        1 1JC      0.422200
     31 C27        -6.3000   10.2030    7.8820 ca        1 1JC     -0.208300
     32 C28        -5.1260   10.8090    7.4390 ca        1 1JC     -0.072000
     33 C29        -4.1140   10.0140    6.8880 ca        1 1JC     -0.209300
     34 C30        -0.7520   -0.0850   -5.1180 c3        1 1JC      0.058000
     35 C31        -0.2780   -1.4870   -5.5280 c3        1 1JC     -0.093400
     36 C32        -0.0490   -1.5320   -7.0390 c3        1 1JC      0.163300
     37 N33         0.8630   -0.5060   -7.5010 n3        1 1JC     -0.826200
     38 C34         0.4790    0.8320   -7.0980 c3        1 1JC      0.163300
     39 C35         0.2700    0.9600   -5.5890 c3        1 1JC     -0.093400
     40 H1          1.9460   -0.5180   -0.8260 h4        1 1JC      0.033100
     41 H2         -1.9700    0.1620    0.9470 ha        1 1JC      0.155000
     42 H3          2.6010   -1.3800    3.6000 ha        1 1JC      0.165000
     43 H4          2.1690   -0.2800    5.6770 ha        1 1JC      0.151000
     44 H5          1.8570    1.9620    6.5330 ha        1 1JC      0.162000
     45 H6          0.2250    3.7240    7.1510 ha        1 1JC      0.146000
     46 H7         -2.6470    1.9980    4.3870 ha        1 1JC      0.155000
     47 H8         -2.1780    4.2070    7.3020 h1        1 1JC      0.156200
     48 H9         -3.3380    3.5400    6.1160 h1        1 1JC      0.156200
     49 H10        -4.3400    6.3720    5.2800 hn        1 1JC      0.460300
     50 H11         1.0040   -0.4390   -2.9410 h4        1 1JC      0.184000
     51 H12        -2.8830    0.4610   -1.1180 h4        1 1JC      0.044100
     52 H13        -2.8730    8.2570    5.2570 hx        1 1JC      0.114200
     53 H14        -2.3420    7.7960    6.9520 hx        1 1JC      0.114200
     54 H15        -7.3380    8.2800    8.0940 h4        1 1JC      0.045100
     55 H16        -7.1180   10.7930    8.3200 ha        1 1JC      0.171000
     56 H17        -4.9900   11.9000    7.5180 ha        1 1JC      0.167000
     57 H18        -3.1780   10.4640    6.5300 ha        1 1JC      0.159000
     58 H19        -1.7350    0.1220   -5.6430 h1        1 1JC      0.092700
     59 H20        -1.0500   -2.2530   -5.2620 hc        1 1JC      0.060700
     60 H21         0.6710   -1.7470   -4.9910 hc        1 1JC      0.060700
     61 H22        -1.0560   -1.4700   -7.5490 h1        1 1JC      0.038450
     62 H23         0.4050   -2.5300   -7.3020 h1        1 1JC      0.038450
     63 H24         0.9650   -0.5540   -8.4980 hn        1 1JC      0.375800
     64 H26        -0.4650    1.1800   -7.6140 h1        1 1JC      0.038450
     65 H27         1.3110    1.5280   -7.4050 h1        1 1JC      0.038450
     66 H28         1.2450    0.8150   -5.0560 hc        1 1JC      0.060700
     67 H29        -0.0990    1.9940   -5.3670 hc        1 1JC      0.060700
     68 H152       -3.9320    5.9630    6.8090 hn        1 1JC      0.460300
@<TRIPOS>BOND
     1    1    2 ar  
     2    1    6 ar  
     3    1   22 1   
     4    2    3 ar  
     5    2   40 1   
     6    3    4 ar  
     7    4    5 ar  
     8    4    7 1   
     9    5    6 ar  
    10    5   11 1   
    11    6   41 1   
    12    7    8 2   
    13    7   42 1   
    14    8    9 1   
    15    8   43 1   
    16    9   10 ar  
    17    9   12 ar  
    18   10   11 1   
    19   10   15 ar  
    20   11   19 2   
    21   12   13 ar  
    22   12   44 1   
    23   13   14 ar  
    24   13   45 1   
    25   14   15 ar  
    26   14   16 1   
    27   15   46 1   
    28   16   17 1   
    29   16   47 1   
    30   16   48 1   
    31   17   18 1   
    32   17   20 2   
    33   17   21 2   
    34   18   27 1   
    35   18   49 1   
    36   18   68 1   
    37   22   23 2   
    38   22   26 1   
    39   23   24 1   
    40   23   50 1   
    41   24   25 1   
    42   24   34 1   
    43   25   26 2   
    44   26   51 1   
    45   27   28 1   
    46   27   52 1   
    47   27   53 1   
    48   28   29 ar  
    49   28   33 ar  
    50   29   30 ar  
    51   30   31 ar  
    52   30   54 1   
    53   31   32 ar  
    54   31   55 1   
    55   32   33 ar  
    56   32   56 1   
    57   33   57 1   
    58   34   35 1   
    59   34   39 1   
    60   34   58 1   
    61   35   36 1   
    62   35   59 1   
    63   35   60 1   
    64   36   37 1   
    65   36   61 1   
    66   36   62 1   
    67   37   38 1   
    68   37   63 1   
    69   38   39 1   
    70   38   64 1   
    71   38   65 1   
    72   39   66 1   
    73   39   67 1   
@<TRIPOS>SUBSTRUCTURE
     1 1JC         1 TEMP              0 ****  ****    0 ROOT
