@<TRIPOS>MOLECULE
1JC
   67    60     1     0     0
SMALL
bcc


@<TRIPOS>ATOM
      1 C           2.0020   -2.1380   -2.2280 c1        1 1JC     -0.030000
      2 C1          3.3940   -2.0630   -2.2270 c2        1 1JC     -0.053000
      3 N           4.0710   -1.9210   -1.0480 n1        1 1JC     -0.134000
      4 C2          3.3770   -1.8520    0.1450 c1        1 1JC      0.039000
      5 C3          1.9960   -1.9260    0.1470 c1        1 1JC     -0.163000
      6 C4          1.3110   -2.0690   -1.0460 c1        1 1JC     -0.062000
      7 C5          3.9530   -2.3240    1.4830 c2        1 1JC     -0.099000
      8 C6          3.6300   -1.5700    2.7550 c1        1 1JC     -0.115000
      9 C7          2.8340   -0.2600    2.6880 c1        1 1JC     -0.003000
     10 C8          1.5660   -0.4750    2.1800 c1        1 1JC     -0.120000
     11 C9          1.4450   -1.8870    1.5810 c1        1 1JC      0.317000
     12 C10         3.1090    0.9080    3.4210 c2        1 1JC     -0.119000
     13 C11         2.1020    1.8500    3.6360 c1        1 1JC     -0.109000
     14 C12         0.8270    1.6340    3.1260 c1        1 1JC     -0.060000
     15 C13         0.5530    0.4730    2.3970 c2        1 1JC     -0.073000
     16 C14        -0.3870    2.5480    3.3120 c3        1 1JC     -0.794000
     17 S          -0.7270    2.7450    5.0690 s4        1 1JC      2.019800
     18 N15        -2.0720    3.7110    5.2940 n2        1 1JC     -0.893000
     19 O           0.8900   -2.8220    2.1300 o         1 1JC     -0.270000
     20 O16        -0.8880    1.4670    5.7170 o         1 1JC     -0.533400
     21 O17         0.4150    3.2700    5.7670 o         1 1JC     -0.533400
     22 C18         1.2630   -2.1680   -3.5630 c1        1 1JC     -0.154000
     23 C19         1.2480   -3.2120   -4.4490 c1        1 1JC     -0.126500
     24 N20         0.5760   -2.8140   -5.5500 n2        1 1JC     -0.094500
     25 N21         0.1680   -1.5160   -5.3530 n2        1 1JC     -0.094500
     26 C22         0.5920   -1.1240   -4.1320 c1        1 1JC     -0.126500
     27 C23        -2.8240    3.6310    6.5290 c3        1 1JC      0.038000
     28 C24        -3.4320    5.0020    6.8490 c2        1 1JC     -0.048000
     29 N25        -4.0950    5.6960    5.8810 n2        1 1JC     -0.141000
     30 C26        -4.6190    6.9290    6.1590 c1        1 1JC     -0.066000
     31 C27        -4.4760    7.4740    7.4280 c1        1 1JC     -0.132500
     32 C28        -3.8110    6.7790    8.3990 c1        1 1JC     -0.132500
     33 C29        -3.2880    5.5460    8.1200 c1        1 1JC     -0.164000
     34 C30         0.3820   -3.6070   -6.7830 c2        1 1JC      0.054000
     35 C31         0.5850   -2.7310   -7.9480 c3        1 1JC     -0.170000
     36 C32         0.2250   -3.4130   -9.2520 c3        1 1JC     -0.073000
     37 N33        -1.1200   -4.0100   -9.2230 n3        1 1JC     -0.302000
     38 C34        -1.3300   -4.8830   -8.0650 c3        1 1JC     -0.073000
     39 C35        -0.9770   -4.2070   -6.7600 c3        1 1JC     -0.170000
     40 H1          3.8870   -2.1120   -3.0700 h4        1 1JC      0.157000
     41 H2          0.3370   -2.1210   -1.0460 ha        1 1JC      0.152000
     42 H3          4.4980   -3.1370    1.5210 ha        1 1JC      0.151000
     43 H4          3.8890   -1.9410    3.6230 ha        1 1JC      0.138000
     44 H5          4.0070    1.0610    3.7810 ha        1 1JC      0.143000
     45 H6          2.2930    2.6630    4.1460 ha        1 1JC      0.164000
     46 H7         -0.3440    0.3210    2.0380 ha        1 1JC      0.146000
     47 H8         -1.1640    2.1510    2.8720 h1        1 1JC      0.151000
     48 H9         -0.1990    3.4250    2.9150 h1        1 1JC      0.151000
     49 H10        -2.3120    4.3090    4.6550 hn        1 1JC      0.260000
     50 H11         1.6520   -4.0900   -4.3090 DU        1 1JC      0.180500
     51 H12         0.4450   -0.2500   -3.7290 DU        1 1JC      0.180500
     52 H13        -3.5420    2.9700    6.4320 h1        1 1JC      0.106000
     53 H14        -2.2280    3.3610    7.2560 h1        1 1JC      0.106000
     54 H15        -5.0930    7.4250    5.4650 ha        1 1JC      0.161000
     55 H16        -4.8500    8.3550    7.6260 ha        1 1JC      0.145000
     56 H17        -3.7110    7.1620    9.2900 ha        1 1JC      0.145000
     57 H18        -2.8150    5.0520    8.8090 ha        1 1JC      0.151000
     58 H19         1.0460   -4.3240   -6.8060 ha        1 1JC      0.097000
     59 H20         0.0300   -1.9340   -7.8450 hc        1 1JC      0.107750
     60 H21         1.5220   -2.4610   -7.9810 hc        1 1JC      0.107750
     61 H22         0.8770   -4.1150   -9.4310 h1        1 1JC      0.071000
     62 H23         0.2630   -2.7550   -9.9740 h1        1 1JC      0.071000
     63 H24        -1.2590   -4.4840   -9.9910 hn        1 1JC      0.164000
     64 H26        -0.7760   -5.6820   -8.1670 h1        1 1JC      0.071000
     65 H27        -2.2710   -5.1510   -8.0380 h1        1 1JC      0.071000
     66 H28        -1.0190   -4.8660   -6.0430 hc        1 1JC      0.107750
     67 H29        -1.6300   -3.5040   -6.5820 hc        1 1JC      0.107750
@<TRIPOS>BOND
     1    1    2 1   
     2    1    6 1   
     3    2    3 1   
     4    2   40 1   
     5    4    5 1   
     6    4    7 1   
     7    5   11 1   
     8    6   41 1   
     9    7    8 1   
    10    7   42 1   
    11    8   43 1   
    12    9   10 1   
    13    9   12 1   
    14   10   15 1   
    15   11   19 1   
    16   12   13 1   
    17   12   44 1   
    18   13   45 1   
    19   14   15 1   
    20   14   16 1   
    21   15   46 1   
    22   16   17 1   
    23   16   47 1   
    24   16   48 1   
    25   17   20 1   
    26   17   21 1   
    27   18   27 1   
    28   18   49 1   
    29   22   23 1   
    30   22   26 1   
    31   23   24 1   
    32   24   25 1   
    33   25   26 1   
    34   27   28 1   
    35   27   52 1   
    36   27   53 1   
    37   28   29 1   
    38   28   33 1   
    39   29   30 1   
    40   30   54 1   
    41   31   32 1   
    42   31   55 1   
    43   32   56 1   
    44   33   57 1   
    45   34   35 1   
    46   34   39 1   
    47   34   58 1   
    48   35   36 1   
    49   35   59 1   
    50   35   60 1   
    51   36   37 1   
    52   36   61 1   
    53   36   62 1   
    54   37   38 1   
    55   37   63 1   
    56   38   39 1   
    57   38   64 1   
    58   38   65 1   
    59   39   66 1   
    60   39   67 1   
@<TRIPOS>SUBSTRUCTURE
     1 1JC         1 TEMP              0 ****  ****    0 ROOT
