@<TRIPOS>MOLECULE
1JC
   67    72     1     0     0
SMALL
bcc


@<TRIPOS>ATOM
      1 C           3.7580    1.1550    0.3210 ca        1 1JC     -0.093300
      2 C1          4.0330    1.9900   -0.7960 ca        1 1JC      0.413200
      3 N           3.2860    3.0350   -1.1570 nb        1 1JC     -0.660000
      4 C2          2.1670    3.3210   -0.4260 ca        1 1JC      0.476100
      5 C3          1.8030    2.5410    0.6950 ca        1 1JC     -0.247900
      6 C4          2.6190    1.4630    1.0720 ca        1 1JC     -0.061000
      7 C5          1.4000    4.4980   -0.8350 cc        1 1JC     -0.204800
      8 C6          0.0690    4.6490   -0.7780 cd        1 1JC     -0.106200
      9 C7         -0.9160    3.6990   -0.3000 ca        1 1JC     -0.012800
     10 C8         -0.6910    2.8420    0.7860 ca        1 1JC     -0.141600
     11 C9          0.5990    2.8050    1.5110 c         1 1JC      0.599300
     12 C10        -2.1740    3.6700   -0.9330 ca        1 1JC     -0.121000
     13 C11        -3.1720    2.8090   -0.5010 ca        1 1JC     -0.107000
     14 C12        -2.9480    1.9600    0.5940 ca        1 1JC     -0.070300
     15 C13        -1.7110    1.9910    1.2370 ca        1 1JC     -0.071000
     16 C14        -4.0310    1.0790    1.0900 c3        1 1JC     -0.247300
     17 S          -4.4820   -0.1630   -0.0430 s6        1 1JC      1.446900
     18 N15        -5.6420   -0.9360    0.7720 n3        1 1JC     -0.920100
     19 O           0.6570    2.8990    2.7420 o         1 1JC     -0.515100
     20 O16        -5.0250    0.4720   -1.1820 o         1 1JC     -0.646300
     21 O17        -3.3870   -1.0260   -0.2240 o         1 1JC     -0.646300
     22 C18         4.6160    0.0610    0.6560 cc        1 1JC     -0.221300
     23 C19         5.6580   -0.5010   -0.1100 cd        1 1JC     -0.119300
     24 N20         6.1940   -1.5460    0.6450 na        1 1JC      0.094400
     25 N21         5.5670   -1.6810    1.8280 nd        1 1JC     -0.506800
     26 C22         4.6060   -0.7290    1.8750 cc        1 1JC      0.316200
     27 C23        -7.0470   -0.7260    0.5880 c3        1 1JC      0.182500
     28 C24        -7.8160   -1.9580    0.1430 ca        1 1JC      0.375600
     29 N25        -7.6840   -3.1030    0.8570 nb        1 1JC     -0.666000
     30 C26        -8.4010   -4.1680    0.4590 ca        1 1JC      0.400200
     31 C27        -9.2750   -4.1540   -0.6450 ca        1 1JC     -0.240300
     32 C28        -9.4010   -2.9710   -1.3720 ca        1 1JC     -0.090000
     33 C29        -8.6610   -1.8530   -0.9800 ca        1 1JC     -0.229300
     34 C30         7.3000   -2.4010    0.2110 c3        1 1JC      0.063000
     35 C31         8.5900   -1.5980   -0.0190 c3        1 1JC     -0.093400
     36 C32         9.7150   -2.5410   -0.4440 c3        1 1JC      0.163800
     37 N33         9.3760   -3.3430   -1.6020 n3        1 1JC     -0.824200
     38 C34         8.1330   -4.0730   -1.4600 c3        1 1JC      0.163800
     39 C35         6.9560   -3.1810   -1.0680 c3        1 1JC     -0.093400
     40 H1          4.9190    1.7970   -1.4290 h4        1 1JC      0.022100
     41 H2          2.3560    0.8670    1.9600 ha        1 1JC      0.153000
     42 H3          2.0080    5.3190   -1.2640 ha        1 1JC      0.150000
     43 H4         -0.3660    5.5930   -1.1590 ha        1 1JC      0.136000
     44 H5         -2.3610    4.3370   -1.7880 ha        1 1JC      0.142000
     45 H6         -4.1420    2.7770   -1.0270 ha        1 1JC      0.159000
     46 H7         -1.5200    1.3480    2.1110 ha        1 1JC      0.147000
     47 H8         -3.7140    0.6260    2.0680 h1        1 1JC      0.112200
     48 H9         -4.9160    1.7290    1.3340 h1        1 1JC      0.112200
     49 H10        -5.4310   -1.6930    1.3820 hn        1 1JC      0.465800
     50 H11         6.0360   -0.2460   -1.1000 h4        1 1JC      0.180000
     51 H12         3.9470   -0.6140    2.7370 h4        1 1JC      0.047100
     52 H13        -7.5050   -0.3740    1.5600 h1        1 1JC      0.065700
     53 H14        -7.1960    0.0850   -0.1860 h1        1 1JC      0.065700
     54 H15        -8.2660   -5.0840    1.0620 h4        1 1JC      0.025100
     55 H16        -9.8360   -5.0560   -0.9210 ha        1 1JC      0.147000
     56 H17       -10.0680   -2.9170   -2.2440 ha        1 1JC      0.142000
     57 H18        -8.7300   -0.9100   -1.5400 ha        1 1JC      0.150000
     58 H19         7.4960   -3.1500    1.0370 h1        1 1JC      0.087700
     59 H20         8.4240   -0.8200   -0.8080 hc        1 1JC      0.061450
     60 H21         8.8980   -1.0770    0.9230 hc        1 1JC      0.061450
     61 H22        10.6170   -1.9230   -0.7160 h1        1 1JC      0.035200
     62 H23         9.9950   -3.1780    0.4480 h1        1 1JC      0.035200
     63 H24        10.1250   -3.9750   -1.8160 hn        1 1JC      0.369800
     64 H26         7.9060   -4.5480   -2.4560 h1        1 1JC      0.035200
     65 H27         8.2120   -4.9040   -0.6970 h1        1 1JC      0.035200
     66 H28         6.0580   -3.8290   -0.8980 hc        1 1JC      0.061450
     67 H29         6.7200   -2.4700   -1.9010 hc        1 1JC      0.061450
@<TRIPOS>BOND
     1    1    2 ar  
     2    1    6 ar  
     3    1   22 1   
     4    2    3 ar  
     5    2   40 1   
     6    3    4 ar  
     7    4    5 ar  
     8    4    7 1   
     9    5    6 ar  
    10    5   11 1   
    11    6   41 1   
    12    7    8 2   
    13    7   42 1   
    14    8    9 1   
    15    8   43 1   
    16    9   10 ar  
    17    9   12 ar  
    18   10   11 1   
    19   10   15 ar  
    20   11   19 2   
    21   12   13 ar  
    22   12   44 1   
    23   13   14 ar  
    24   13   45 1   
    25   14   15 ar  
    26   14   16 1   
    27   15   46 1   
    28   16   17 1   
    29   16   47 1   
    30   16   48 1   
    31   17   18 1   
    32   17   20 2   
    33   17   21 2   
    34   18   27 1   
    35   18   49 1   
    36   22   23 2   
    37   22   26 1   
    38   23   24 1   
    39   23   50 1   
    40   24   25 1   
    41   24   34 1   
    42   25   26 2   
    43   26   51 1   
    44   27   28 1   
    45   27   52 1   
    46   27   53 1   
    47   28   29 ar  
    48   28   33 ar  
    49   29   30 ar  
    50   30   31 ar  
    51   30   54 1   
    52   31   32 ar  
    53   31   55 1   
    54   32   33 ar  
    55   32   56 1   
    56   33   57 1   
    57   34   35 1   
    58   34   39 1   
    59   34   58 1   
    60   35   36 1   
    61   35   59 1   
    62   35   60 1   
    63   36   37 1   
    64   36   61 1   
    65   36   62 1   
    66   37   38 1   
    67   37   63 1   
    68   38   39 1   
    69   38   64 1   
    70   38   65 1   
    71   39   66 1   
    72   39   67 1   
@<TRIPOS>SUBSTRUCTURE
     1 1JC         1 TEMP              0 ****  ****    0 ROOT
