@<TRIPOS>MOLECULE
1JD
   55    58     1     0     0
SMALL
bcc


@<TRIPOS>ATOM
      1 C1          0.2170    0.0650   -0.7080 c3        1 1JD     -0.043800
      2 C2          1.6930    0.0900   -0.7350 ca        1 1JD     -0.225600
      3 C3          2.4040    1.2120   -1.1750 ca        1 1JD     -0.070000
      4 C4          3.7930    1.1870   -1.1920 ca        1 1JD     -0.288300
      5 C5          4.4700    0.0060   -0.7580 ca        1 1JD      0.533200
      6 N1          3.7830   -1.1000   -0.3320 nb        1 1JD     -0.666000
      7 C6          2.4450   -1.0310   -0.3250 ca        1 1JD      0.426200
      8 N2          5.8760    0.0030   -0.8000 ns        1 1JD     -0.540400
      9 C7          6.7340   -0.8670   -0.1510 c         1 1JD      0.674100
     10 O1          6.4040   -1.7220    0.6820 o         1 1JD     -0.539100
     11 C8          8.2400   -0.6890   -0.4630 c3        1 1JD      0.069100
     12 C9          8.7730    0.6370    0.0770 c3        1 1JD      0.103400
     13 O2          8.2050    1.6900   -0.6930 os        1 1JD     -0.436600
     14 C10         8.3970    2.9890   -0.1140 c3        1 1JD      0.142100
     15 C11         9.8460    3.4220   -0.2200 c3        1 1JD     -0.110600
     16 C12         7.4800    3.9150   -0.8940 c3        1 1JD     -0.110600
     17 O3          8.3580   -0.7670   -1.8930 os        1 1JD     -0.421100
     18 C13         9.5770   -1.1050   -2.4290 ca        1 1JD      0.735600
     19 C14         9.6190   -1.2110   -3.8370 ca        1 1JD     -0.461500
     20 C15         8.7360   -1.0680   -4.9790 cc        1 1JD      0.419800
     21 N3          9.4050   -1.2970   -6.1190 nd        1 1JD     -0.497100
     22 N4         10.7170   -1.5250   -5.8230 na        1 1JD     -0.044600
     23 C16        10.9120   -1.5580   -4.4170 ca        1 1JD      0.491800
     24 N5         12.0390   -1.7710   -3.6770 nb        1 1JD     -0.688000
     25 C17        11.8310   -1.6400   -2.3470 ca        1 1JD      0.688900
     26 N6         10.6840   -1.3220   -1.6740 nb        1 1JD     -0.794000
     27 C18        11.6030   -2.1620   -6.7520 ca        1 1JD      0.516800
     28 C19        11.8980   -1.5210   -7.9880 ca        1 1JD     -0.075900
     29 C20        12.7960   -2.1490   -8.8640 ca        1 1JD     -0.088000
     30 C21        13.3660   -3.3640   -8.4990 ca        1 1JD     -0.236300
     31 C22        13.0110   -3.9260   -7.2580 ca        1 1JD      0.411200
     32 N7         12.1500   -3.3620   -6.3990 nb        1 1JD     -0.645000
     33 Cl1        11.2110   -0.0400   -8.4160 cl        1 1JD     -0.042400
     34 H1         -0.1780   -0.3500   -1.6700 hc        1 1JD      0.045033
     35 H2         -0.1550   -0.5780    0.1280 hc        1 1JD      0.045033
     36 H3         -0.1990    1.0940   -0.5750 hc        1 1JD      0.045033
     37 H4          1.8660    2.1140   -1.5040 ha        1 1JD      0.137000
     38 H5          4.3580    2.0660   -1.5320 ha        1 1JD      0.141000
     39 H6          1.9370   -1.9470    0.0320 h4        1 1JD      0.026100
     40 H7          6.2970    0.7200   -1.3580 hn        1 1JD      0.349500
     41 H8          8.7850   -1.5400    0.0350 h1        1 1JD      0.115700
     42 H9          9.8910    0.6730   -0.0180 h1        1 1JD      0.057700
     43 H10         8.4840    0.7350    1.1580 h1        1 1JD      0.057700
     44 H11         8.0830    2.9570    0.9680 h1        1 1JD      0.039700
     45 H12        10.4900    2.8030    0.4490 hc        1 1JD      0.046200
     46 H13        10.2090    3.3060   -1.2690 hc        1 1JD      0.046200
     47 H14         9.9420    4.4930    0.0810 hc        1 1JD      0.046200
     48 H15         6.4350    3.5230   -0.8780 hc        1 1JD      0.046200
     49 H16         7.5000    4.9300   -0.4310 hc        1 1JD      0.046200
     50 H17         7.8150    3.9890   -1.9560 hc        1 1JD      0.046200
     51 H18         7.6740   -0.8120   -4.9600 h4        1 1JD      0.069800
     52 H19        12.7190   -1.8170   -1.7010 h5        1 1JD      0.060100
     53 H20        13.0440   -1.6780   -9.8280 ha        1 1JD      0.158000
     54 H21        14.0750   -3.8790   -9.1600 ha        1 1JD      0.154000
     55 H22        13.4360   -4.8930   -6.9280 h4        1 1JD      0.035100
@<TRIPOS>BOND
     1    1    2 1   
     2    1   34 1   
     3    1   35 1   
     4    1   36 1   
     5    2    3 ar  
     6    2    7 ar  
     7    3    4 ar  
     8    3   37 1   
     9    4    5 ar  
    10    4   38 1   
    11    5    6 ar  
    12    5    8 1   
    13    6    7 ar  
    14    7   39 1   
    15    8    9 1   
    16    8   40 1   
    17    9   10 2   
    18    9   11 1   
    19   11   12 1   
    20   11   17 1   
    21   11   41 1   
    22   12   13 1   
    23   12   42 1   
    24   12   43 1   
    25   13   14 1   
    26   14   15 1   
    27   14   16 1   
    28   14   44 1   
    29   15   45 1   
    30   15   46 1   
    31   15   47 1   
    32   16   48 1   
    33   16   49 1   
    34   16   50 1   
    35   17   18 1   
    36   18   19 ar  
    37   18   26 ar  
    38   19   20 1   
    39   19   23 ar  
    40   20   21 2   
    41   20   51 1   
    42   21   22 1   
    43   22   23 1   
    44   22   27 1   
    45   23   24 ar  
    46   24   25 ar  
    47   25   26 ar  
    48   25   52 1   
    49   27   28 ar  
    50   27   32 ar  
    51   28   29 ar  
    52   28   33 1   
    53   29   30 ar  
    54   29   53 1   
    55   30   31 ar  
    56   30   54 1   
    57   31   32 ar  
    58   31   55 1   
@<TRIPOS>SUBSTRUCTURE
     1 1JD         1 TEMP              0 ****  ****    0 ROOT
