@<TRIPOS>MOLECULE
1JD
   55    48     1     0     0
SMALL
bcc


@<TRIPOS>ATOM
      1 C1         -8.5060   -0.4100    1.3230 c3        1 1JD     -0.170000
      2 C2         -6.9800   -0.4070    1.2420 c2        1 1JD     -0.147000
      3 C3         -6.3030   -1.5790    1.0430 c2        1 1JD     -0.071000
      4 C4         -4.9360   -1.5740    0.9660 c1        1 1JD     -0.218000
      5 C5         -4.2370   -0.3780    1.0910 c1        1 1JD      0.124000
      6 N1         -4.9140    0.7920    1.2910 n1        1 1JD     -0.137000
      7 C6         -6.2790    0.7880    1.3670 c1        1 1JD     -0.042000
      8 N2         -2.8020   -0.3810    1.0750 n         1 1JD     -0.318000
      9 C7         -2.0840    0.8570    1.0350 c2        1 1JD      0.309000
     10 O1         -2.6910    1.9130    1.0160 o         1 1JD     -0.311000
     11 C8         -0.5690    0.8550    1.0320 c3        1 1JD     -0.019000
     12 C9         -0.0560    1.8760    2.0430 c3        1 1JD     -0.027000
     13 O2          1.1970    1.4390    2.5670 os        1 1JD     -0.279000
     14 C10         1.7840    2.3470    3.5000 c3        1 1JD      0.011000
     15 C11         2.1650    1.5930    4.7760 c3        1 1JD     -0.222500
     16 C12         3.0420    2.9760    2.8820 c3        1 1JD     -0.222500
     17 O3         -0.1030    1.1890   -0.2500 os        1 1JD     -0.190000
     18 C13         0.7990    0.2400   -0.8010 c2        1 1JD      0.206000
     19 C14         1.7000   -0.6870   -1.3110 c1        1 1JD     -0.249000
     20 C15         2.1470   -1.9150   -0.8330 c1        1 1JD     -0.087000
     21 N3          3.0270   -2.4160   -1.7270 n2        1 1JD     -0.024000
     22 N4          3.1390   -1.5190   -2.7600 n2        1 1JD     -0.096000
     23 C16         2.3130   -0.4520   -2.4910 c1        1 1JD      0.098000
     24 N5          2.0450    0.6950   -3.1810 n1        1 1JD     -0.158000
     25 C17         1.1590    1.6060   -2.6780 c1        1 1JD      0.026000
     26 N6          0.5380    1.3690   -1.4830 n1        1 1JD     -0.256000
     27 C18         4.0040   -1.9850   -3.8000 c1        1 1JD      0.123000
     28 C19         5.3780   -1.8000   -3.6960 c1        1 1JD     -0.088000
     29 C20         6.2080   -2.2680   -4.6790 c1        1 1JD     -0.087000
     30 C21         5.6840   -2.9170   -5.7640 c1        1 1JD     -0.111500
     31 C22         4.3100   -3.1010   -5.8660 c1        1 1JD     -0.111500
     32 N7          3.4820   -2.6330   -4.8830 n1        1 1JD     -0.121000
     33 CL1         6.0460   -0.9780   -2.3080 cl        1 1JD      0.039000
     34 H1         -8.8470    0.4840    1.0990 hc        1 1JD      0.085000
     35 H2         -8.7850   -0.6490    2.2350 hc        1 1JD      0.085000
     36 H3         -8.8660   -1.0670    0.6880 hc        1 1JD      0.085000
     37 H4         -6.7970   -2.4230    0.9550 ha        1 1JD      0.139000
     38 H5         -4.4490   -2.4150    0.8230 ha        1 1JD      0.142000
     39 H6         -6.7650    1.6300    1.5110 ha        1 1JD      0.163000
     40 H7         -2.3450   -1.1770    1.0750 hn        1 1JD      0.242000
     41 H8         -0.2430   -0.0390    1.2750 h1        1 1JD      0.163000
     42 H9          0.0600    2.7460    1.6000 h1        1 1JD      0.116500
     43 H10        -0.7050    1.9660    2.7770 h1        1 1JD      0.116500
     44 H11         1.1380    3.0550    3.7190 h1        1 1JD      0.111000
     45 H12         2.9460    1.0240    4.5990 hc        1 1JD      0.081833
     46 H13         1.4110    1.0330    5.0630 hc        1 1JD      0.081833
     47 H14         2.3830    2.2380    5.4850 hc        1 1JD      0.081833
     48 H15         2.8660    3.2020    1.9420 hc        1 1JD      0.081833
     49 H16         3.2780    3.7920    3.3780 hc        1 1JD      0.081833
     50 H17         3.7860    2.3350    2.9310 hc        1 1JD      0.081833
     51 H18         1.8710   -2.3430    0.0050 DU        1 1JD      0.200000
     52 H19         0.9670    2.4300   -3.1750 ha        1 1JD      0.203000
     53 H20         7.1780   -2.1380   -4.6060 ha        1 1JD      0.159000
     54 H21         6.2780   -3.2530   -6.4690 ha        1 1JD      0.163500
     55 H22         3.9330   -3.5670   -6.6440 ha        1 1JD      0.163500
@<TRIPOS>BOND
     1    1    2 1   
     2    1   34 1   
     3    1   35 1   
     4    1   36 1   
     5    2    3 1   
     6    2    7 1   
     7    3    4 1   
     8    3   37 1   
     9    4   38 1   
    10    5    6 1   
    11    5    8 1   
    12    7   39 1   
    13    8    9 1   
    14    8   40 1   
    15    9   10 1   
    16    9   11 1   
    17   11   12 1   
    18   11   17 1   
    19   11   41 1   
    20   12   13 1   
    21   12   42 1   
    22   12   43 1   
    23   13   14 1   
    24   14   15 1   
    25   14   16 1   
    26   14   44 1   
    27   15   45 1   
    28   15   46 1   
    29   15   47 1   
    30   16   48 1   
    31   16   49 1   
    32   16   50 1   
    33   17   18 1   
    34   18   19 1   
    35   18   26 1   
    36   19   23 1   
    37   20   21 1   
    38   21   22 1   
    39   22   23 1   
    40   24   25 1   
    41   25   52 1   
    42   27   28 1   
    43   27   32 1   
    44   28   29 1   
    45   29   53 1   
    46   30   31 1   
    47   30   54 1   
    48   31   55 1   
@<TRIPOS>SUBSTRUCTURE
     1 1JD         1 TEMP              0 ****  ****    0 ROOT
