@<TRIPOS>MOLECULE
1JD
   55    58     1     0     0
SMALL
bcc


@<TRIPOS>ATOM
      1 C1          8.2000   -3.0120    1.0680 c3        1 1JD     -0.043800
      2 C2          7.0150   -2.2500    0.6290 ca        1 1JD     -0.221600
      3 C3          6.6160   -2.2080   -0.7100 ca        1 1JD     -0.075000
      4 C4          5.4990   -1.4660   -1.0840 ca        1 1JD     -0.257300
      5 C5          4.7800   -0.7560   -0.0820 ca        1 1JD      0.521200
      6 N1          5.1630   -0.7920    1.2390 nb        1 1JD     -0.710000
      7 C6          6.2400   -1.5190    1.5550 ca        1 1JD      0.422200
      8 N2          3.6260    0.0010   -0.3770 n         1 1JD     -0.525400
      9 C7          3.1990    0.3800   -1.6320 c         1 1JD      0.671100
     10 O1          3.7670    0.0920   -2.7000 o         1 1JD     -0.588100
     11 C8          1.9230    1.2510   -1.6960 c3        1 1JD      0.077100
     12 C9          2.1530    2.6330   -1.0860 c3        1 1JD      0.102400
     13 O2          2.3000    2.4740    0.3190 os        1 1JD     -0.432600
     14 C10         2.8070    3.6450    0.9770 c3        1 1JD      0.143100
     15 C11         1.7780    4.7590    0.9760 c3        1 1JD     -0.112100
     16 C12         3.1430    3.1970    2.3880 c3        1 1JD     -0.112100
     17 O3          0.9130    0.5160   -0.9860 os        1 1JD     -0.420100
     18 C13        -0.4050    0.7960   -1.2520 ca        1 1JD      0.734600
     19 C14        -1.3510    0.0300   -0.5350 ca        1 1JD     -0.460500
     20 C15        -1.3870   -1.0200    0.4660 cc        1 1JD      0.419800
     21 N3         -2.6550   -1.3330    0.7690 nd        1 1JD     -0.496100
     22 N4         -3.4910   -0.5070    0.0770 na        1 1JD     -0.044600
     23 C16        -2.7530    0.3220   -0.8080 ca        1 1JD      0.491800
     24 N5         -3.1690    1.2750   -1.6930 nb        1 1JD     -0.687000
     25 C17        -2.1430    1.9150   -2.3010 ca        1 1JD      0.688900
     26 N6         -0.7960    1.7430   -2.1420 nb        1 1JD     -0.794000
     27 C18        -4.8780   -0.8170   -0.1110 ca        1 1JD      0.516800
     28 C19        -5.7370   -0.8920    1.0220 ca        1 1JD     -0.075900
     29 C20        -7.0960   -1.1620    0.8080 ca        1 1JD     -0.088000
     30 C21        -7.5580   -1.3410   -0.4910 ca        1 1JD     -0.235300
     31 C22        -6.6350   -1.2520   -1.5510 ca        1 1JD      0.411200
     32 N7         -5.3270   -1.0080   -1.3850 nb        1 1JD     -0.645000
     33 CL1        -5.1680   -0.6600    2.5950 cl        1 1JD     -0.041400
     34 H1          8.3860   -3.8840    0.3940 hc        1 1JD      0.045033
     35 H2          9.1070   -2.3570    1.0500 hc        1 1JD      0.045033
     36 H3          8.0660   -3.3930    2.1110 hc        1 1JD      0.045033
     37 H4          7.1820   -2.7630   -1.4740 ha        1 1JD      0.141000
     38 H5          5.1860   -1.4330   -2.1390 ha        1 1JD      0.180000
     39 H6          6.5040   -1.5180    2.6290 h4        1 1JD      0.021100
     40 H7          3.1170    0.3810    0.4010 hn        1 1JD      0.359500
     41 H8          1.6530    1.3630   -2.7840 h1        1 1JD      0.115700
     42 H9          3.0780    3.0850   -1.5360 h1        1 1JD      0.057200
     43 H10         1.2720    3.2970   -1.2930 h1        1 1JD      0.057200
     44 H11         3.7420    3.9850    0.4470 h1        1 1JD      0.037700
     45 H12         0.7970    4.3800    1.3500 hc        1 1JD      0.048033
     46 H13         2.1220    5.5890    1.6370 hc        1 1JD      0.048033
     47 H14         1.6330    5.1590   -0.0560 hc        1 1JD      0.048033
     48 H15         3.8290    2.3160    2.3580 hc        1 1JD      0.048033
     49 H16         3.6400    4.0340    2.9320 hc        1 1JD      0.048033
     50 H17         2.2150    2.9050    2.9340 hc        1 1JD      0.048033
     51 H18        -0.5290   -1.5100    0.9340 h4        1 1JD      0.071800
     52 H19        -2.4330    2.6940   -3.0400 h5        1 1JD      0.060100
     53 H20        -7.7850   -1.2270    1.6640 ha        1 1JD      0.158000
     54 H21        -8.6170   -1.5480   -0.6930 ha        1 1JD      0.154000
     55 H22        -6.9560   -1.3920   -2.6000 h4        1 1JD      0.034100
@<TRIPOS>BOND
     1    1    2 1   
     2    1   34 1   
     3    1   35 1   
     4    1   36 1   
     5    2    3 ar  
     6    2    7 ar  
     7    3    4 ar  
     8    3   37 1   
     9    4    5 ar  
    10    4   38 1   
    11    5    6 ar  
    12    5    8 1   
    13    6    7 ar  
    14    7   39 1   
    15    8    9 1   
    16    8   40 1   
    17    9   10 2   
    18    9   11 1   
    19   11   12 1   
    20   11   17 1   
    21   11   41 1   
    22   12   13 1   
    23   12   42 1   
    24   12   43 1   
    25   13   14 1   
    26   14   15 1   
    27   14   16 1   
    28   14   44 1   
    29   15   45 1   
    30   15   46 1   
    31   15   47 1   
    32   16   48 1   
    33   16   49 1   
    34   16   50 1   
    35   17   18 1   
    36   18   19 ar  
    37   18   26 ar  
    38   19   20 1   
    39   19   23 ar  
    40   20   21 2   
    41   20   51 1   
    42   21   22 1   
    43   22   23 1   
    44   22   27 1   
    45   23   24 ar  
    46   24   25 ar  
    47   25   26 ar  
    48   25   52 1   
    49   27   28 ar  
    50   27   32 ar  
    51   28   29 ar  
    52   28   33 1   
    53   29   30 ar  
    54   29   53 1   
    55   30   31 ar  
    56   30   54 1   
    57   31   32 ar  
    58   31   55 1   
@<TRIPOS>SUBSTRUCTURE
     1 1JD         1 TEMP              0 ****  ****    0 ROOT
