@<TRIPOS>MOLECULE
1JD
   56    59     1     0     0
SMALL
bcc


@<TRIPOS>ATOM
      1 C1          0.8100   -0.2950    0.3170 c3        1 1JD     -0.074800
      2 C2          2.2040   -0.1910   -0.1580 ca        1 1JD     -0.120600
      3 C3          3.0280    0.8820    0.1880 ca        1 1JD     -0.092000
      4 C4          4.3470    0.9250   -0.2760 ca        1 1JD     -0.189300
      5 C5          4.7870   -0.1370   -1.0920 ca        1 1JD      0.440200
      6 N1          4.0040   -1.1980   -1.4510 nb        1 1JD     -0.633000
      7 C6          2.7510   -1.2060   -0.9880 ca        1 1JD      0.419200
      8 N2          6.1770   -0.1330   -1.5940 n4        1 1JD     -0.642500
      9 C7          7.1530   -0.7640   -0.6290 c         1 1JD      0.549100
     10 O1          6.7840   -1.6960    0.0610 o         1 1JD     -0.384100
     11 C8          8.5370   -0.1210   -0.6070 c3        1 1JD      0.067100
     12 C9          8.5140    1.1560    0.2540 c3        1 1JD      0.129400
     13 O2          7.4260    1.9710   -0.1460 os        1 1JD     -0.481600
     14 C10         7.7720    3.3370   -0.4630 c3        1 1JD      0.142100
     15 C11         8.3450    3.4160   -1.8630 c3        1 1JD     -0.117600
     16 C12         6.4790    4.1200   -0.3330 c3        1 1JD     -0.117600
     17 O3          8.9760    0.2860   -1.9020 os        1 1JD     -0.447100
     18 C13         9.2640   -0.7430   -2.7970 ca        1 1JD      0.672600
     19 C14        10.3390   -0.5720   -3.6790 ca        1 1JD     -0.436500
     20 C15        11.3920    0.3750   -3.9900 cc        1 1JD      0.394800
     21 N3         12.1340   -0.0770   -5.0140 nd        1 1JD     -0.449100
     22 N4         11.6190   -1.2540   -5.4510 na        1 1JD     -0.024600
     23 C16        10.5340   -1.6590   -4.6490 ca        1 1JD      0.491800
     24 N5          9.7350   -2.7670   -4.7090 nb        1 1JD     -0.641000
     25 C17         8.7490   -2.7740   -3.7880 ca        1 1JD      0.690900
     26 N6          8.4570   -1.8290   -2.8360 nb        1 1JD     -0.835000
     27 C18        12.3230   -2.1310   -6.3470 ca        1 1JD      0.490800
     28 C19        12.6780   -1.6740   -7.6450 ca        1 1JD     -0.067900
     29 C20        13.3480   -2.5680   -8.4960 ca        1 1JD     -0.083000
     30 C21        13.6320   -3.8520   -8.0460 ca        1 1JD     -0.216300
     31 C22        13.2400   -4.2140   -6.7410 ca        1 1JD      0.415200
     32 N7         12.6080   -3.3870   -5.8970 nb        1 1JD     -0.645000
     33 CL1        12.3140   -0.1160   -8.1790 cl        1 1JD     -0.033400
     34 H1          0.7340   -1.0910    1.1020 hc        1 1JD      0.072367
     35 H2          0.4570    0.6690    0.7590 hc        1 1JD      0.072367
     36 H3          0.1270   -0.5720   -0.5250 hc        1 1JD      0.072367
     37 H4          2.6480    1.6960    0.8270 ha        1 1JD      0.171000
     38 H5          5.0130    1.7640   -0.0050 ha        1 1JD      0.178000
     39 H6          2.1370   -2.0770   -1.2950 h4        1 1JD      0.058100
     40 H7          6.4670    0.8490   -1.7410 hn        1 1JD      0.484800
     41 H8          9.2500   -0.8780   -0.1690 h1        1 1JD      0.132700
     42 H9          9.5020    1.6760    0.1520 h1        1 1JD      0.090700
     43 H10         8.3350    0.8630    1.3250 h1        1 1JD      0.090700
     44 H11         8.5230    3.7050    0.2900 h1        1 1JD      0.064700
     45 H12         8.6880    4.4580   -2.0710 hc        1 1JD      0.054367
     46 H13         7.5750    3.1350   -2.6200 hc        1 1JD      0.054367
     47 H14         9.2130    2.7190   -1.9700 hc        1 1JD      0.054367
     48 H15         6.0530    3.9980    0.6910 hc        1 1JD      0.054367
     49 H16         6.6890    5.2010   -0.5160 hc        1 1JD      0.054367
     50 H17         5.7270    3.7670   -1.0790 hc        1 1JD      0.054367
     51 H18        11.5970    1.3280   -3.4970 h4        1 1JD      0.073800
     52 H19         8.0820   -3.6660   -3.7930 h5        1 1JD      0.078100
     53 H20        13.6410   -2.2470   -9.5090 ha        1 1JD      0.169000
     54 H21        14.1530   -4.5770   -8.6890 ha        1 1JD      0.166000
     55 H22        13.4480   -5.2250   -6.3420 h4        1 1JD      0.044100
     56 H221        6.2310   -0.6460   -2.4860 hn        1 1JD      0.484800
@<TRIPOS>BOND
     1    1    2 1   
     2    1   34 1   
     3    1   35 1   
     4    1   36 1   
     5    2    3 ar  
     6    2    7 ar  
     7    3    4 ar  
     8    3   37 1   
     9    4    5 ar  
    10    4   38 1   
    11    5    6 ar  
    12    5    8 1   
    13    6    7 ar  
    14    7   39 1   
    15    8    9 1   
    16    8   40 1   
    17    8   56 1   
    18    9   10 2   
    19    9   11 1   
    20   11   12 1   
    21   11   17 1   
    22   11   41 1   
    23   12   13 1   
    24   12   42 1   
    25   12   43 1   
    26   13   14 1   
    27   14   15 1   
    28   14   16 1   
    29   14   44 1   
    30   15   45 1   
    31   15   46 1   
    32   15   47 1   
    33   16   48 1   
    34   16   49 1   
    35   16   50 1   
    36   17   18 1   
    37   18   19 ar  
    38   18   26 ar  
    39   19   20 1   
    40   19   23 ar  
    41   20   21 2   
    42   20   51 1   
    43   21   22 1   
    44   22   23 1   
    45   22   27 1   
    46   23   24 ar  
    47   24   25 ar  
    48   25   26 ar  
    49   25   52 1   
    50   27   28 ar  
    51   27   32 ar  
    52   28   29 ar  
    53   28   33 1   
    54   29   30 ar  
    55   29   53 1   
    56   30   31 ar  
    57   30   54 1   
    58   31   32 ar  
    59   31   55 1   
@<TRIPOS>SUBSTRUCTURE
     1 1JD         1 TEMP              0 ****  ****    0 ROOT
