@<TRIPOS>MOLECULE
1JD
   55    58     1     0     0
SMALL
bcc


@<TRIPOS>ATOM
      1 C1          0.2190   -0.0020   -0.6720 c3        1 1JD     -0.043800
      2 C2          1.6930    0.0360   -0.7310 ca        1 1JD     -0.225600
      3 C3          2.3840    1.1580   -1.2020 ca        1 1JD     -0.070000
      4 C4          3.7740    1.1570   -1.2210 ca        1 1JD     -0.288300
      5 C5          4.4710   -0.0010   -0.7590 ca        1 1JD      0.533200
      6 N1          3.8030   -1.1090   -0.3060 nb        1 1JD     -0.666000
      7 C6          2.4650   -1.0630   -0.2990 ca        1 1JD      0.426200
      8 N2          5.8770    0.0190   -0.8030 n         1 1JD     -0.540400
      9 C7          6.7500   -0.8180   -0.1300 c         1 1JD      0.674100
     10 O1          6.4350   -1.6530    0.7280 o         1 1JD     -0.539100
     11 C8          8.2530   -0.6250   -0.4500 c3        1 1JD      0.069100
     12 C9          8.7650    0.7240    0.0510 c3        1 1JD      0.103400
     13 O2          8.1780    1.7450   -0.7470 os        1 1JD     -0.436600
     14 C10         8.3510    3.0630   -0.2050 c3        1 1JD      0.142100
     15 C11         9.7930    3.5170   -0.3280 c3        1 1JD     -0.110600
     16 C12         7.4180    3.9520   -1.0080 c3        1 1JD     -0.110600
     17 O3          8.3700   -0.7420   -1.8770 os        1 1JD     -0.421100
     18 C13         9.5930   -1.0750   -2.4050 ca        1 1JD      0.735600
     19 C14         9.6360   -1.2210   -3.8100 ca        1 1JD     -0.461500
     20 C15         8.7490   -1.1250   -4.9540 cc        1 1JD      0.419800
     21 N3          9.4200   -1.3750   -6.0880 nd        1 1JD     -0.497100
     22 N4         10.7360   -1.5740   -5.7880 na        1 1JD     -0.044600
     23 C16        10.9330   -1.5640   -4.3820 ca        1 1JD      0.491800
     24 N5         12.0650   -1.7380   -3.6380 nb        1 1JD     -0.688000
     25 C17        11.8560   -1.5720   -2.3120 ca        1 1JD      0.688900
     26 N6         10.7050   -1.2530   -1.6470 nb        1 1JD     -0.794000
     27 C18        11.6300   -2.2230   -6.7000 ca        1 1JD      0.516800
     28 C19        11.9150   -1.6120   -7.9540 ca        1 1JD     -0.075900
     29 C20        12.8200   -2.2510   -8.8130 ca        1 1JD     -0.088000
     30 C21        13.4100   -3.4460   -8.4150 ca        1 1JD     -0.236300
     31 C22        13.0660   -3.9780   -7.1570 ca        1 1JD      0.411200
     32 N7         12.1970   -3.4040   -6.3140 nb        1 1JD     -0.645000
     33 CL1        11.2030   -0.1550   -8.4230 cl        1 1JD     -0.042400
     34 H1         -0.1350    0.3540    0.3290 hc        1 1JD      0.045033
     35 H2         -0.2300    0.6570   -1.4560 hc        1 1JD      0.045033
     36 H3         -0.1600   -1.0430   -0.8250 hc        1 1JD      0.045033
     37 H4          1.8300    2.0410   -1.5550 ha        1 1JD      0.137000
     38 H5          4.3230    2.0360   -1.5860 ha        1 1JD      0.141000
     39 H6          1.9730   -1.9800    0.0770 h4        1 1JD      0.026100
     40 H7          6.2850    0.7260   -1.3810 hn        1 1JD      0.349500
     41 H8          8.8110   -1.4530    0.0720 h1        1 1JD      0.115700
     42 H9          9.8820    0.7750   -0.0470 h1        1 1JD      0.057700
     43 H10         8.4760    0.8480    1.1300 h1        1 1JD      0.057700
     44 H11         8.0400    3.0570    0.8780 h1        1 1JD      0.039700
     45 H12        10.4480    2.9270    0.3560 hc        1 1JD      0.046033
     46 H13         9.8720    4.5960   -0.0580 hc        1 1JD      0.046033
     47 H14        10.1550    3.3770   -1.3740 hc        1 1JD      0.046033
     48 H15         7.7480    4.0010   -2.0730 hc        1 1JD      0.046033
     49 H16         6.3790    3.5440   -0.9780 hc        1 1JD      0.046033
     50 H17         7.4230    4.9800   -0.5750 hc        1 1JD      0.046033
     51 H18         7.6830   -0.8850   -4.9400 h4        1 1JD      0.069800
     52 H19        12.7480   -1.7160   -1.6630 h5        1 1JD      0.060100
     53 H20        13.0600   -1.8040   -9.7910 ha        1 1JD      0.158000
     54 H21        14.1270   -3.9680   -9.0620 ha        1 1JD      0.154000
     55 H22        13.5070   -4.9280   -6.8010 h4        1 1JD      0.035100
@<TRIPOS>BOND
     1    1    2 1   
     2    1   34 1   
     3    1   35 1   
     4    1   36 1   
     5    2    3 ar  
     6    2    7 ar  
     7    3    4 ar  
     8    3   37 1   
     9    4    5 ar  
    10    4   38 1   
    11    5    6 ar  
    12    5    8 1   
    13    6    7 ar  
    14    7   39 1   
    15    8    9 1   
    16    8   40 1   
    17    9   10 2   
    18    9   11 1   
    19   11   12 1   
    20   11   17 1   
    21   11   41 1   
    22   12   13 1   
    23   12   42 1   
    24   12   43 1   
    25   13   14 1   
    26   14   15 1   
    27   14   16 1   
    28   14   44 1   
    29   15   45 1   
    30   15   46 1   
    31   15   47 1   
    32   16   48 1   
    33   16   49 1   
    34   16   50 1   
    35   17   18 1   
    36   18   19 ar  
    37   18   26 ar  
    38   19   20 1   
    39   19   23 ar  
    40   20   21 2   
    41   20   51 1   
    42   21   22 1   
    43   22   23 1   
    44   22   27 1   
    45   23   24 ar  
    46   24   25 ar  
    47   25   26 ar  
    48   25   52 1   
    49   27   28 ar  
    50   27   32 ar  
    51   28   29 ar  
    52   28   33 1   
    53   29   30 ar  
    54   29   53 1   
    55   30   31 ar  
    56   30   54 1   
    57   31   32 ar  
    58   31   55 1   
@<TRIPOS>SUBSTRUCTURE
     1 1JD         1 TEMP              0 ****  ****    0 ROOT
