@<TRIPOS>MOLECULE
1JE
   38    40     1     0     0
SMALL
bcc


@<TRIPOS>ATOM
      1 C1         -0.0790   -0.2070    0.2390 ca        1 1JE     -0.052200
      2 C2          1.3220   -0.3280    0.2170 ca        1 1JE      0.017400
      3 C3          2.0310   -0.1400    1.3950 ca        1 1JE     -0.135000
      4 C4          1.3720    0.1690    2.5960 ca        1 1JE     -0.160000
      5 C5         -0.0110    0.2940    2.6410 ca        1 1JE      0.055400
      6 C6         -0.7730    0.1120    1.4830 ca        1 1JE     -0.064800
      7 N7         -1.0180   -0.3290   -0.7780 na        1 1JE     -0.125400
      8 C8         -2.2720   -0.1180   -0.2270 cc        1 1JE     -0.038300
      9 C9         -2.1680    0.1600    1.1500 cd        1 1JE     -0.176400
     10 C10        -3.5730   -0.1630   -0.9800 c3        1 1JE      0.232000
     11 O11        -4.6470   -0.2700   -0.0170 os        1 1JE     -0.416600
     12 C12        -4.5730    0.6260    1.0820 c3        1 1JE      0.131400
     13 C13        -3.3580    0.3910    1.9760 c3        1 1JE     -0.025200
     14 Cl1         2.1270   -0.7000   -1.2320 cl        1 1JE     -0.094400
     15 Cl2        -0.7650    0.6730    4.1250 cl        1 1JE     -0.126400
     16 C16        -3.6910   -1.4280   -1.8340 c3        1 1JE     -0.195400
     17 C17        -3.0530   -1.3020   -3.2280 c         1 1JE      0.913600
     18 O18        -3.8150   -1.3750   -4.2290 o         1 1JE     -0.839800
     19 O19        -1.7930   -1.1610   -3.3270 o         1 1JE     -0.839800
     20 C20        -3.7180    1.1160   -1.8150 c3        1 1JE     -0.091400
     21 C21        -5.0610    1.1940   -2.5080 c3        1 1JE     -0.093400
     22 C22        -5.2500    2.5250   -3.1870 c3        1 1JE     -0.082100
     23 H1          3.1270   -0.2330    1.3990 ha        1 1JE      0.133000
     24 H2          1.9700    0.3110    3.5080 ha        1 1JE      0.131000
     25 H3         -0.8680   -0.6260   -1.7350 hn        1 1JE      0.379700
     26 H4         -5.5210    0.4230    1.6500 h1        1 1JE      0.036200
     27 H5         -4.5800    1.6860    0.7130 h1        1 1JE      0.036200
     28 H6         -3.5390   -0.5010    2.6340 hc        1 1JE      0.044200
     29 H7         -3.2160    1.2790    2.6470 hc        1 1JE      0.044200
     30 H8         -4.7800   -1.6600   -1.9620 hc        1 1JE      0.052200
     31 H9         -3.2120   -2.2830   -1.2950 hc        1 1JE      0.052200
     32 H11        -3.5740    2.0100   -1.1550 hc        1 1JE      0.052200
     33 H12        -2.8980    1.1130   -2.5840 hc        1 1JE      0.052200
     34 H13        -5.8770    1.0270   -1.7570 hc        1 1JE      0.066200
     35 H14        -5.1190    0.3630   -3.2670 hc        1 1JE      0.066200
     36 H15        -5.2140    3.3610   -2.4470 hc        1 1JE      0.020367
     37 H16        -4.4480    2.6930   -3.9460 hc        1 1JE      0.020367
     38 H17        -6.2390    2.5570   -3.7060 hc        1 1JE      0.020367
@<TRIPOS>BOND
     1    1    2 ar  
     2    1    6 ar  
     3    1    7 1   
     4    2    3 ar  
     5    2   14 1   
     6    3    4 ar  
     7    3   23 1   
     8    4    5 ar  
     9    4   24 1   
    10    5    6 ar  
    11    5   15 1   
    12    6    9 1   
    13    7    8 1   
    14    7   25 1   
    15    8    9 2   
    16    8   10 1   
    17    9   13 1   
    18   10   11 1   
    19   10   16 1   
    20   10   20 1   
    21   11   12 1   
    22   12   13 1   
    23   12   26 1   
    24   12   27 1   
    25   13   28 1   
    26   13   29 1   
    27   16   17 1   
    28   16   30 1   
    29   16   31 1   
    30   17   18 1   
    31   17   19 1   
    32   20   21 1   
    33   20   32 1   
    34   20   33 1   
    35   21   22 1   
    36   21   34 1   
    37   21   35 1   
    38   22   36 1   
    39   22   37 1   
    40   22   38 1   
@<TRIPOS>SUBSTRUCTURE
     1 1JE         1 TEMP              0 ****  ****    0 ROOT
