@<TRIPOS>MOLECULE
1JE
   38    40     1     0     0
SMALL
bcc


@<TRIPOS>ATOM
      1 C1          1.5480    0.5570    0.0310 ca        1 1JE     -0.052200
      2 C2          2.7400    1.3030    0.0150 ca        1 1JE      0.017400
      3 C3          3.9510    0.6340    0.1240 ca        1 1JE     -0.135000
      4 C4          3.9990   -0.7630    0.2510 ca        1 1JE     -0.160000
      5 C5          2.8340   -1.5200    0.2710 ca        1 1JE      0.055400
      6 C6          1.5880   -0.8970    0.1620 ca        1 1JE     -0.064800
      7 N7          0.2210    0.9630   -0.0460 na        1 1JE     -0.125400
      8 C8         -0.5750   -0.1710    0.0130 cc        1 1JE     -0.038300
      9 C9          0.2190   -1.3270    0.1440 cd        1 1JE     -0.176400
     10 C10        -2.0770   -0.1850   -0.0440 c3        1 1JE      0.232000
     11 O11        -2.5050   -1.5360   -0.3330 os        1 1JE     -0.416600
     12 C12        -1.8840   -2.5520    0.4400 c3        1 1JE      0.131400
     13 C13        -0.3800   -2.6650    0.1980 c3        1 1JE     -0.025200
     14 CL1         2.6900    2.9930   -0.1370 cl        1 1JE     -0.094400
     15 CL2         2.9460   -3.2150    0.4300 cl        1 1JE     -0.126400
     16 C16        -2.6090    0.6480   -1.2130 c3        1 1JE     -0.195400
     17 C17        -2.7770    2.1430   -0.8890 c         1 1JE      0.913600
     18 O18        -3.9440    2.6180   -0.9070 o         1 1JE     -0.839800
     19 O19        -1.7470    2.8480   -0.6480 o         1 1JE     -0.839800
     20 C20        -2.6370    0.2850    1.3050 c3        1 1JE     -0.091400
     21 C21        -4.1460    0.1830    1.3610 c3        1 1JE     -0.093400
     22 C22        -4.6650    0.4910    2.7410 c3        1 1JE     -0.082100
     23 H1          4.8940    1.2000    0.1110 ha        1 1JE      0.133000
     24 H2          4.9800   -1.2540    0.3360 ha        1 1JE      0.131000
     25 H3         -0.1390    1.8920   -0.2250 hn        1 1JE      0.379700
     26 H4         -2.0860   -2.3800    1.5310 h1        1 1JE      0.036200
     27 H5         -2.4050   -3.4900    0.1080 h1        1 1JE      0.036200
     28 H6         -0.1930   -3.2000   -0.7720 hc        1 1JE      0.044200
     29 H7          0.0800   -3.2800    1.0150 hc        1 1JE      0.044200
     30 H8         -1.9170    0.5440   -2.0850 hc        1 1JE      0.052200
     31 H9         -3.6080    0.2350   -1.5080 hc        1 1JE      0.052200
     32 H11        -2.1810   -0.3210    2.1300 hc        1 1JE      0.052200
     33 H12        -2.3280    1.3560    1.4450 hc        1 1JE      0.052200
     34 H13        -4.5810    0.9090    0.6160 hc        1 1JE      0.066200
     35 H14        -4.4610   -0.8490    1.0540 hc        1 1JE      0.066200
     36 H15        -4.2600   -0.2300    3.4920 hc        1 1JE      0.020367
     37 H16        -4.3670    1.5220    3.0490 hc        1 1JE      0.020367
     38 H17        -5.7800    0.4270    2.7580 hc        1 1JE      0.020367
@<TRIPOS>BOND
     1    1    2 ar  
     2    1    6 ar  
     3    1    7 1   
     4    2    3 ar  
     5    2   14 1   
     6    3    4 ar  
     7    3   23 1   
     8    4    5 ar  
     9    4   24 1   
    10    5    6 ar  
    11    5   15 1   
    12    6    9 1   
    13    7    8 1   
    14    7   25 1   
    15    8    9 2   
    16    8   10 1   
    17    9   13 1   
    18   10   11 1   
    19   10   16 1   
    20   10   20 1   
    21   11   12 1   
    22   12   13 1   
    23   12   26 1   
    24   12   27 1   
    25   13   28 1   
    26   13   29 1   
    27   16   17 1   
    28   16   30 1   
    29   16   31 1   
    30   17   18 1   
    31   17   19 1   
    32   20   21 1   
    33   20   32 1   
    34   20   33 1   
    35   21   22 1   
    36   21   34 1   
    37   21   35 1   
    38   22   36 1   
    39   22   37 1   
    40   22   38 1   
@<TRIPOS>SUBSTRUCTURE
     1 1JE         1 TEMP              0 ****  ****    0 ROOT
