@<TRIPOS>MOLECULE
1JE
   38    31     1     0     0
SMALL
bcc


@<TRIPOS>ATOM
      1 C1          2.6690    0.1240    0.3770 c1        1 1JE     -0.030000
      2 C2          4.0680    0.1390    0.3650 c1        1 1JE     -0.061000
      3 C3          4.7740    0.2820    1.5570 c1        1 1JE     -0.135000
      4 C4          4.0850    0.4090    2.7670 c1        1 1JE     -0.160000
      5 C5          2.6930    0.3950    2.7810 c1        1 1JE     -0.023000
      6 C6          1.9820    0.2520    1.5830 c1        1 1JE     -0.030000
      7 N7          1.7170   -0.0580   -0.6520 n1        1 1JE     -0.148000
      8 C8          0.4740   -0.0430   -0.0880 c1        1 1JE     -0.007000
      9 C9          0.6300    0.1520    1.3170 c1        1 1JE     -0.184000
     10 C10        -0.9900   -0.3850   -0.6240 c2        1 1JE      0.156000
     11 O11        -1.9340   -0.6110    0.3100 os        1 1JE     -0.273000
     12 C12        -1.8910    0.1470    1.4670 c3        1 1JE     -0.019000
     13 C13        -0.6480    0.1760    2.1760 c2        1 1JE     -0.108000
     14 CL1         5.2030    0.2880   -0.9500 cl        1 1JE     -0.016000
     15 CL2         2.4480    0.4270    4.5070 cl        1 1JE     -0.048000
     16 C16        -0.8890   -1.6510   -1.5180 c3        1 1JE     -0.224000
     17 C17        -0.8240   -2.8820   -0.6420 c2        1 1JE      0.333000
     18 O18        -1.8500   -3.2710   -0.0250 o         1 1JE     -0.574500
     19 O19         0.2550   -3.5240   -0.5360 o         1 1JE     -0.574500
     20 C20        -1.4540    0.7670   -1.4880 c3        1 1JE     -0.170000
     21 C21        -2.8210    0.4540   -2.0550 c3        1 1JE     -0.172000
     22 C22        -3.3420    1.6570   -2.8090 c3        1 1JE     -0.200000
     23 H1          5.7500    0.2810    1.5490 ha        1 1JE      0.133000
     24 H2          4.5800    0.5090    3.6020 ha        1 1JE      0.131000
     25 H3          1.9010   -0.1550   -1.5400 DU        1 1JE      0.330000
     26 H4         -2.5780   -0.1960    2.0780 h1        1 1JE      0.075500
     27 H5         -2.1250    1.0700    1.2320 h1        1 1JE      0.075500
     28 H6         -0.6240   -0.5970    2.7770 ha        1 1JE      0.083500
     29 H7         -0.6300    0.9890    2.7220 ha        1 1JE      0.083500
     30 H8         -1.6740   -1.7050   -2.0970 hc        1 1JE      0.091500
     31 H9         -0.0810   -1.5990   -2.0670 hc        1 1JE      0.091500
     32 H11        -0.8200    0.9000   -2.2210 hc        1 1JE      0.091500
     33 H12        -1.5030    1.5800   -0.9480 hc        1 1JE      0.091500
     34 H13        -2.7550   -0.3080   -2.6640 hc        1 1JE      0.105500
     35 H14        -3.4350    0.2360   -1.3260 hc        1 1JE      0.105500
     36 H15        -2.7120    1.8930   -3.5220 hc        1 1JE      0.059667
     37 H16        -4.2150    1.4440   -3.2010 hc        1 1JE      0.059667
     38 H17        -3.4360    2.4130   -2.1920 hc        1 1JE      0.059667
@<TRIPOS>BOND
     1    1    6 1   
     2    2    3 1   
     3    3   23 1   
     4    4    5 1   
     5    4   24 1   
     6    5   15 1   
     7    7    8 1   
     8    8    9 1   
     9   10   11 1   
    10   10   16 1   
    11   10   20 1   
    12   11   12 1   
    13   12   13 1   
    14   12   26 1   
    15   12   27 1   
    16   13   28 1   
    17   13   29 1   
    18   16   17 1   
    19   16   30 1   
    20   16   31 1   
    21   17   18 1   
    22   17   19 1   
    23   20   21 1   
    24   20   32 1   
    25   20   33 1   
    26   21   22 1   
    27   21   34 1   
    28   21   35 1   
    29   22   36 1   
    30   22   37 1   
    31   22   38 1   
@<TRIPOS>SUBSTRUCTURE
     1 1JE         1 TEMP              0 ****  ****    0 ROOT
