@<TRIPOS>MOLECULE
1JE
   38    40     1     0     0
SMALL
bcc


@<TRIPOS>ATOM
      1 C1         -0.1280   -0.3280    0.3100 ca        1 1JE     -0.052200
      2 C2          1.2620   -0.5420    0.3210 ca        1 1JE      0.017400
      3 C3          1.9640   -0.3340    1.4990 ca        1 1JE     -0.135000
      4 C4          1.3110    0.0860    2.6690 ca        1 1JE     -0.160000
      5 C5         -0.0610    0.3050    2.6810 ca        1 1JE      0.055400
      6 C6         -0.8170    0.1070    1.5220 ca        1 1JE     -0.064800
      7 N7         -1.0590   -0.4460   -0.7150 na        1 1JE     -0.125400
      8 C8         -2.3040   -0.1200   -0.1990 cc        1 1JE     -0.038300
      9 C9         -2.2010    0.2280    1.1620 cd        1 1JE     -0.176400
     10 C10        -3.5940   -0.1230   -0.9710 c3        1 1JE      0.232000
     11 O11        -4.6870   -0.1030   -0.0230 os        1 1JE     -0.416600
     12 C12        -4.5690    0.8480    1.0240 c3        1 1JE      0.131400
     13 C13        -3.3840    0.5850    1.9520 c3        1 1JE     -0.025200
     14 CL1         2.0590   -1.0490   -1.0900 cl        1 1JE     -0.094400
     15 CL2        -0.8090    0.8170    4.1270 cl        1 1JE     -0.126400
     16 C16        -3.7840   -1.4240   -1.7550 c3        1 1JE     -0.195400
     17 C17        -3.1200   -1.4200   -3.1420 c         1 1JE      0.913600
     18 O18        -3.8710   -1.5000   -4.1510 o         1 1JE     -0.839800
     19 O19        -1.8520   -1.3690   -3.2270 o         1 1JE     -0.839800
     20 C20        -3.6410    1.1130   -1.8790 c3        1 1JE     -0.091400
     21 C21        -4.9660    1.2400   -2.6000 c3        1 1JE     -0.093400
     22 C22        -5.0560    2.5390   -3.3560 c3        1 1JE     -0.082100
     23 H1          3.0510   -0.4990    1.5270 ha        1 1JE      0.133000
     24 H2          1.9040    0.2400    3.5810 ha        1 1JE      0.131000
     25 H3         -0.9150   -0.8060   -1.6500 hn        1 1JE      0.379700
     26 H4         -5.5360    0.7410    1.5860 h1        1 1JE      0.036200
     27 H5         -4.4990    1.8830    0.5960 h1        1 1JE      0.036200
     28 H6         -3.6340   -0.2550    2.6560 hc        1 1JE      0.044200
     29 H7         -3.1920    1.4980    2.5740 hc        1 1JE      0.044200
     30 H8         -3.3720   -2.2760   -1.1600 hc        1 1JE      0.052200
     31 H9         -4.8850   -1.5900   -1.8890 hc        1 1JE      0.052200
     32 H11        -3.4470    2.0330   -1.2690 hc        1 1JE      0.052200
     33 H12        -2.8120    1.0120   -2.6320 hc        1 1JE      0.052200
     34 H13        -5.8020    1.1700   -1.8550 hc        1 1JE      0.066200
     35 H14        -5.0690    0.3720   -3.3120 hc        1 1JE      0.066200
     36 H15        -4.2340    2.6110   -4.1090 hc        1 1JE      0.020367
     37 H16        -4.9740    3.4120   -2.6640 hc        1 1JE      0.020367
     38 H17        -6.0320    2.6070   -3.8930 hc        1 1JE      0.020367
@<TRIPOS>BOND
     1    1    2 ar  
     2    1    6 ar  
     3    1    7 1   
     4    2    3 ar  
     5    2   14 1   
     6    3    4 ar  
     7    3   23 1   
     8    4    5 ar  
     9    4   24 1   
    10    5    6 ar  
    11    5   15 1   
    12    6    9 1   
    13    7    8 1   
    14    7   25 1   
    15    8    9 2   
    16    8   10 1   
    17    9   13 1   
    18   10   11 1   
    19   10   16 1   
    20   10   20 1   
    21   11   12 1   
    22   12   13 1   
    23   12   26 1   
    24   12   27 1   
    25   13   28 1   
    26   13   29 1   
    27   16   17 1   
    28   16   30 1   
    29   16   31 1   
    30   17   18 1   
    31   17   19 1   
    32   20   21 1   
    33   20   32 1   
    34   20   33 1   
    35   21   22 1   
    36   21   34 1   
    37   21   35 1   
    38   22   36 1   
    39   22   37 1   
    40   22   38 1   
@<TRIPOS>SUBSTRUCTURE
     1 1JE         1 TEMP              0 ****  ****    0 ROOT
