@<TRIPOS>MOLECULE
1JF
   29    30     1     0     0
SMALL
bcc


@<TRIPOS>ATOM
      1 C1         -0.0380    0.0000   -0.0160 ca        1 1JF     -0.323500
      2 C2          1.2950    0.1040   -0.4380 ca        1 1JF      0.126400
      3 C3          2.3450    0.1400    0.4880 ca        1 1JF     -0.149000
      4 C4          2.0710    0.0730    1.8540 ca        1 1JF      0.071400
      5 C5          0.7420   -0.0250    2.2940 ca        1 1JF     -0.019600
      6 C6         -0.2930   -0.0560    1.3580 ca        1 1JF     -0.012000
      7 S7         -1.4000   -0.1060   -1.0810 sy        1 1JF      1.493200
      8 O8         -1.2360   -1.2650   -1.8740 o         1 1JF     -0.659800
      9 O9         -2.5430   -0.1410   -0.2440 o         1 1JF     -0.659800
     10 N10        -1.3170    1.2040   -1.9800 nu        1 1JF     -0.790500
     11 C11        -1.5570    2.5430   -1.6210 ca        1 1JF      0.186600
     12 C12        -0.8690    3.5960   -2.2760 ca        1 1JF     -0.148600
     13 C13        -1.1380    4.9150   -1.9020 ca        1 1JF     -0.081000
     14 C14        -2.0620    5.2250   -0.9080 ca        1 1JF     -0.167000
     15 C15        -2.7380    4.1820   -0.2760 ca        1 1JF      0.031400
     16 C16        -2.5050    2.8520   -0.6170 ca        1 1JF     -0.200000
     17 Cl1         1.6770    0.2040   -2.0790 cl        1 1JF     -0.006400
     18 Cl2         3.3610    0.1130    2.9570 cl        1 1JF     -0.078400
     19 Cl3         0.3690   -0.1060    3.9490 cl        1 1JF     -0.080400
     20 C20         0.1570    3.3880   -3.3850 c         1 1JF      0.912200
     21 O21         0.9860    4.3150   -3.5860 o         1 1JF     -0.819300
     22 O22         0.1300    2.3170   -4.0630 o         1 1JF     -0.819300
     23 Cl4        -3.8830    4.5380    0.9440 cl        1 1JF     -0.141400
     24 H1          3.3860    0.2310    0.1370 ha        1 1JF      0.165000
     25 H2         -1.3430   -0.1250    1.7080 ha        1 1JF      0.184000
     26 H3         -0.8890    1.1580   -2.9090 hn        1 1JF      0.527800
     27 H4         -0.5750    5.7160   -2.4140 ha        1 1JF      0.164000
     28 H5         -2.2530    6.2690   -0.6290 ha        1 1JF      0.130000
     29 H6         -3.0690    2.0530   -0.1060 ha        1 1JF      0.165000
@<TRIPOS>BOND
     1    1    2 ar  
     2    1    6 ar  
     3    1    7 1   
     4    2    3 ar  
     5    2   17 1   
     6    3    4 ar  
     7    3   24 1   
     8    4    5 ar  
     9    4   18 1   
    10    5    6 ar  
    11    5   19 1   
    12    6   25 1   
    13    7    8 2   
    14    7    9 2   
    15    7   10 1   
    16   10   11 1   
    17   10   26 1   
    18   11   12 ar  
    19   11   16 ar  
    20   12   13 ar  
    21   12   20 1   
    22   13   14 ar  
    23   13   27 1   
    24   14   15 ar  
    25   14   28 1   
    26   15   16 ar  
    27   15   23 1   
    28   16   29 1   
    29   20   21 1   
    30   20   22 1   
@<TRIPOS>SUBSTRUCTURE
     1 1JF         1 TEMP              0 ****  ****    0 ROOT
