@<TRIPOS>MOLECULE
1JF
   29    30     1     0     0
SMALL
bcc


@<TRIPOS>ATOM
      1 C1         -0.0830   -0.0060   -0.0040 ca        1 1JF     -0.323500
      2 C2          1.2440    0.0530   -0.4510 ca        1 1JF      0.126400
      3 C3          2.3130    0.0670    0.4550 ca        1 1JF     -0.149000
      4 C4          2.0620    0.0220    1.8260 ca        1 1JF      0.071400
      5 C5          0.7390   -0.0320    2.2910 ca        1 1JF     -0.019600
      6 C6         -0.3140   -0.0410    1.3750 ca        1 1JF     -0.012000
      7 S7         -1.4670   -0.0820   -1.0430 sy        1 1JF      1.493200
      8 O8         -1.3530   -1.2530   -1.8260 o         1 1JF     -0.659800
      9 O9         -2.5950   -0.0730   -0.1840 o         1 1JF     -0.659800
     10 N10        -1.3610    1.2160   -1.9580 nh        1 1JF     -0.790500
     11 C11        -1.5540    2.5660   -1.6080 ca        1 1JF      0.186600
     12 C12        -0.8480    3.5910   -2.2870 ca        1 1JF     -0.148600
     13 C13        -1.0700    4.9210   -1.9220 ca        1 1JF     -0.081000
     14 C14        -1.9660    5.2680   -0.9150 ca        1 1JF     -0.167000
     15 C15        -2.6610    4.2530   -0.2590 ca        1 1JF      0.031400
     16 C16        -2.4740    2.9130   -0.5900 ca        1 1JF     -0.200000
     17 CL1         1.5990    0.1260   -2.1000 cl        1 1JF     -0.006400
     18 CL2         3.3730    0.0340    2.9050 cl        1 1JF     -0.078400
     19 CL3         0.3950   -0.0850    3.9540 cl        1 1JF     -0.080400
     20 C20         0.1500    3.3410   -3.4120 c         1 1JF      0.912200
     21 O21         1.0040    4.2400   -3.6380 o         1 1JF     -0.819300
     22 O22         0.0790    2.2640   -4.0780 o         1 1JF     -0.819300
     23 CL4        -3.7720    4.6560    0.9780 cl        1 1JF     -0.141400
     24 H1          3.3490    0.1230    0.0830 ha        1 1JF      0.165000
     25 H2         -1.3580   -0.0740    1.7440 ha        1 1JF      0.184000
     26 H3         -0.9520    1.1480   -2.8930 hn        1 1JF      0.527800
     27 H4         -0.4940    5.6990   -2.4530 ha        1 1JF      0.164000
     28 H5         -2.1200    6.3210   -0.6440 ha        1 1JF      0.130000
     29 H6         -3.0520    2.1370   -0.0600 ha        1 1JF      0.165000
@<TRIPOS>BOND
     1    1    2 ar  
     2    1    6 ar  
     3    1    7 1   
     4    2    3 ar  
     5    2   17 1   
     6    3    4 ar  
     7    3   24 1   
     8    4    5 ar  
     9    4   18 1   
    10    5    6 ar  
    11    5   19 1   
    12    6   25 1   
    13    7    8 2   
    14    7    9 2   
    15    7   10 1   
    16   10   11 1   
    17   10   26 1   
    18   11   12 ar  
    19   11   16 ar  
    20   12   13 ar  
    21   12   20 1   
    22   13   14 ar  
    23   13   27 1   
    24   14   15 ar  
    25   14   28 1   
    26   15   16 ar  
    27   15   23 1   
    28   16   29 1   
    29   20   21 1   
    30   20   22 1   
@<TRIPOS>SUBSTRUCTURE
     1 1JF         1 TEMP              0 ****  ****    0 ROOT
