@<TRIPOS>MOLECULE
1JF
   29    30     1     0     0
SMALL
bcc


@<TRIPOS>ATOM
      1 C1         -0.8540   -1.0750   -0.5450 ca        1 1JF     -0.323500
      2 C2         -0.8160   -1.8130    0.6450 ca        1 1JF      0.126400
      3 C3         -1.8680   -1.7520    1.5690 ca        1 1JF     -0.149000
      4 C4         -2.9750   -0.9450    1.3080 ca        1 1JF      0.071400
      5 C5         -3.0270   -0.1940    0.1240 ca        1 1JF     -0.019600
      6 C6         -1.9690   -0.2640   -0.7830 ca        1 1JF     -0.012000
      7 S7          0.3670   -1.1250   -1.7720 sy        1 1JF      1.493200
      8 O8          0.4540   -2.4570   -2.2380 o         1 1JF     -0.659800
      9 O9         -0.0420   -0.1970   -2.7620 o         1 1JF     -0.659800
     10 N10         1.7090   -0.7030   -1.0280 nh        1 1JF     -0.790500
     11 C11         2.0920    0.5590   -0.5370 ca        1 1JF      0.186600
     12 C12         2.9430    0.6620    0.5920 ca        1 1JF     -0.148600
     13 C13         3.3130    1.9290    1.0480 ca        1 1JF     -0.081000
     14 C14         2.8720    3.0930    0.4240 ca        1 1JF     -0.167000
     15 C15         2.0410    2.9800   -0.6910 ca        1 1JF      0.031400
     16 C16         1.6480    1.7370   -1.1820 ca        1 1JF     -0.200000
     17 CL1         0.5090   -2.7930    1.0130 cl        1 1JF     -0.006400
     18 CL2        -4.2390   -0.8890    2.4400 cl        1 1JF     -0.078400
     19 CL3        -4.3570    0.8030   -0.2260 cl        1 1JF     -0.080400
     20 C20         3.5000   -0.5360    1.3550 c         1 1JF      0.912200
     21 O21         3.8710   -0.3420    2.5430 o         1 1JF     -0.819300
     22 O22         3.5830   -1.6600    0.7720 o         1 1JF     -0.819300
     23 CL4         1.4910    4.3960   -1.4780 cl        1 1JF     -0.141400
     24 H1         -1.8150   -2.3330    2.5030 ha        1 1JF      0.165000
     25 H2         -2.0080    0.3370   -1.7140 ha        1 1JF      0.184000
     26 H3          2.3530   -1.4240   -0.6920 hn        1 1JF      0.527800
     27 H4          3.9610    1.9820    1.9400 ha        1 1JF      0.164000
     28 H5          3.1720    4.0790    0.8040 ha        1 1JF      0.130000
     29 H6          1.0030    1.6860   -2.0750 ha        1 1JF      0.165000
@<TRIPOS>BOND
     1    1    2 ar  
     2    1    6 ar  
     3    1    7 1   
     4    2    3 ar  
     5    2   17 1   
     6    3    4 ar  
     7    3   24 1   
     8    4    5 ar  
     9    4   18 1   
    10    5    6 ar  
    11    5   19 1   
    12    6   25 1   
    13    7    8 2   
    14    7    9 2   
    15    7   10 1   
    16   10   11 1   
    17   10   26 1   
    18   11   12 ar  
    19   11   16 ar  
    20   12   13 ar  
    21   12   20 1   
    22   13   14 ar  
    23   13   27 1   
    24   14   15 ar  
    25   14   28 1   
    26   15   16 ar  
    27   15   23 1   
    28   16   29 1   
    29   20   21 1   
    30   20   22 1   
@<TRIPOS>SUBSTRUCTURE
     1 1JF         1 TEMP              0 ****  ****    0 ROOT
