@<TRIPOS>MOLECULE
1JF
   30    31     1     0     0
SMALL
bcc


@<TRIPOS>ATOM
      1 C1          0.1000   -0.0380    0.0680 ca        1 1JF     -0.371500
      2 C2          1.4470    0.0960   -0.3020 ca        1 1JF      0.133400
      3 C3          2.4630    0.1570    0.6540 ca        1 1JF     -0.141000
      4 C4          2.1450    0.0910    2.0140 ca        1 1JF      0.083400
      5 C5          0.8020   -0.0350    2.4080 ca        1 1JF     -0.013600
      6 C6         -0.1980   -0.0970    1.4370 ca        1 1JF     -0.008000
      7 S7         -1.2010   -0.1830   -1.0180 sy        1 1JF      1.512200
      8 O8         -0.9800   -1.2560   -1.8940 o         1 1JF     -0.631800
      9 O9         -2.3880   -0.2220   -0.2650 o         1 1JF     -0.631800
     10 N10        -1.1030    1.1960   -1.9020 nh        1 1JF     -0.770500
     11 C11        -1.4900    2.4980   -1.5650 ca        1 1JF      0.226600
     12 C12        -0.9920    3.6090   -2.2930 ca        1 1JF     -0.228600
     13 C13        -1.3370    4.9120   -1.9250 ca        1 1JF     -0.043000
     14 C14        -2.2000    5.1480   -0.8620 ca        1 1JF     -0.159000
     15 C15        -2.7210    4.0560   -0.1590 ca        1 1JF      0.074400
     16 C16        -2.3820    2.7460   -0.4950 ca        1 1JF     -0.193000
     17 CL1         1.8890    0.1910   -1.9360 cl        1 1JF     -0.046400
     18 CL2         3.3900    0.1680    3.1540 cl        1 1JF     -0.035400
     19 CL3         0.3730   -0.1140    4.0430 cl        1 1JF     -0.043400
     20 C20        -0.0780    3.4260   -3.4370 c         1 1JF      0.638700
     21 O21         1.0670    3.8540   -3.5630 o         1 1JF     -0.466000
     22 O22        -0.5060    2.6830   -4.5070 oh        1 1JF     -0.589100
     23 CL4        -3.7890    4.3270    1.1310 cl        1 1JF     -0.066400
     24 H1          3.5160    0.2590    0.3390 ha        1 1JF      0.177000
     25 H2         -1.2560   -0.1980    1.7550 ha        1 1JF      0.187000
     26 H3         -0.6300    1.1380   -2.7840 hn        1 1JF      0.464800
     27 H4         -0.9110    5.7590   -2.4880 ha        1 1JF      0.158000
     28 H5         -2.4670    6.1770   -0.5790 ha        1 1JF      0.161000
     29 H6         -2.8310    1.9110    0.0750 ha        1 1JF      0.189000
     30 H102       -1.4600    2.5290   -4.4440 ho        1 1JF      0.434000
@<TRIPOS>BOND
     1    1    2 ar  
     2    1    6 ar  
     3    1    7 1   
     4    2    3 ar  
     5    2   17 1   
     6    3    4 ar  
     7    3   24 1   
     8    4    5 ar  
     9    4   18 1   
    10    5    6 ar  
    11    5   19 1   
    12    6   25 1   
    13    7    8 2   
    14    7    9 2   
    15    7   10 1   
    16   10   11 1   
    17   10   26 1   
    18   11   12 ar  
    19   11   16 ar  
    20   12   13 ar  
    21   12   20 1   
    22   13   14 ar  
    23   13   27 1   
    24   14   15 ar  
    25   14   28 1   
    26   15   16 ar  
    27   15   23 1   
    28   16   29 1   
    29   20   21 2   
    30   20   22 1   
    31   22   30 1   
@<TRIPOS>SUBSTRUCTURE
     1 1JF         1 TEMP              0 ****  ****    0 ROOT
