@<TRIPOS>MOLECULE
1JF
   29    22     1     0     0
SMALL
bcc


@<TRIPOS>ATOM
      1 C1          0.0950    0.6220    2.1270 c1        1 1JF     -0.757000
      2 C2          1.1880    1.1070    2.8270 c2        1 1JF      0.058000
      3 C3          1.2590    0.9440    4.2020 c1        1 1JF     -0.147000
      4 C4          0.2360    0.2970    4.8760 c1        1 1JF     -0.048500
      5 C5         -0.8570   -0.1880    4.1760 c1        1 1JF     -0.048500
      6 C6         -0.9280   -0.0250    2.8020 c1        1 1JF     -0.009000
      7 S7         -0.0450    0.9220    0.3850 ss        1 1JF      2.831000
      8 O8         -1.2860    1.5700    0.0650 o         1 1JF     -0.939500
      9 O9          0.9050    1.9070   -0.0520 o         1 1JF     -0.939500
     10 N10         0.1270   -0.4820   -0.4480 n2        1 1JF     -0.841000
     11 C11         0.2170   -0.4600   -1.8640 c1        1 1JF      0.105000
     12 C12        -0.9080   -0.7160   -2.6340 c1        1 1JF     -0.129000
     13 C13        -0.8050   -0.7670   -4.0150 c1        1 1JF     -0.083000
     14 C14         0.4220   -0.5610   -4.6270 c1        1 1JF     -0.167000
     15 C15         1.5450   -0.3050   -3.8580 c1        1 1JF     -0.051000
     16 C16         1.4430   -0.2540   -2.4770 c2        1 1JF     -0.190000
     17 CL1         2.4740    1.9250    1.9790 cl        1 1JF      0.033000
     18 CL2         0.2900    0.1560    6.6130 cl        1 1JF      0.001500
     19 CL3        -2.1640   -0.9650    5.0300 cl        1 1JF      0.001500
     20 C20        -2.2600   -0.8620   -1.9710 c1        1 1JF      0.362000
     21 O21        -2.9330    0.1620   -1.6830 o         1 1JF     -0.554000
     22 O22        -2.7250   -2.0080   -1.7360 o         1 1JF     -0.554000
     23 CL4         3.0820   -0.0180   -4.6290 cl        1 1JF     -0.063000
     24 H1          2.0290    1.2860    4.6950 ha        1 1JF      0.163000
     25 H2         -1.6990   -0.3650    2.3090 ha        1 1JF      0.188000
     26 H3          0.1610   -1.2760   -0.0020 hn        1 1JF      0.319000
     27 H4         -1.5910   -0.9740   -4.5550 ha        1 1JF      0.164000
     28 H5          0.4940   -0.5970   -5.6000 ha        1 1JF      0.129000
     29 H6          2.2350   -0.0740   -1.9350 ha        1 1JF      0.165000
@<TRIPOS>BOND
     1    1    2 1   
     2    1    6 1   
     3    2    3 1   
     4    2   17 1   
     5    3   24 1   
     6    4    5 1   
     7    4   18 1   
     8    5   19 1   
     9    6   25 1   
    10    7    8 1   
    11    7    9 1   
    12   10   11 1   
    13   10   26 1   
    14   11   16 1   
    15   12   13 1   
    16   13   27 1   
    17   14   15 1   
    18   14   28 1   
    19   15   16 1   
    20   16   29 1   
    21   20   21 1   
    22   20   22 1   
@<TRIPOS>SUBSTRUCTURE
     1 1JF         1 TEMP              0 ****  ****    0 ROOT
