@<TRIPOS>MOLECULE
1JG
   27    28     1     0     0
SMALL
bcc


@<TRIPOS>ATOM
      1 BR1         0.2680   -0.5450   -0.5870 br        1 1JG      0.006900
      2 S2          2.8340   -0.3540    1.0810 ss        1 1JG      0.351200
      3 C3          2.0830   -0.3980   -0.3800 cc        1 1JG     -0.108000
      4 C4          3.0090   -0.3140   -1.4260 cd        1 1JG     -0.147000
      5 C5          4.3210   -0.2090   -0.9260 cd        1 1JG     -0.035000
      6 C6          4.3580   -0.2120    0.4820 cc        1 1JG     -0.524600
      7 S7          5.8230   -0.1430    1.2600 sy        1 1JG      1.560200
      8 O8          6.8230   -0.6630    0.4220 o         1 1JG     -0.639800
      9 O9          5.6840   -0.7110    2.5370 o         1 1JG     -0.639800
     10 N10         6.1040    1.4780    1.3650 nh        1 1JG     -0.773500
     11 C11         5.6010    2.4190    2.2670 ca        1 1JG      0.226600
     12 C12         5.6220    3.8020    1.9490 ca        1 1JG     -0.229600
     13 C13         5.1540    4.7480    2.8660 ca        1 1JG     -0.042000
     14 C14         4.6210    4.3550    4.0870 ca        1 1JG     -0.161000
     15 C15         4.5850    2.9920    4.4020 ca        1 1JG      0.073400
     16 C16         5.0760    2.0290    3.5220 ca        1 1JG     -0.197000
     17 C17         6.1780    4.2900    0.6720 c         1 1JG      0.637700
     18 O18         7.0670    5.1240    0.5130 o         1 1JG     -0.467000
     19 O19         5.6860    3.7870   -0.5040 oh        1 1JG     -0.586100
     20 CL1         3.9440    2.4970    5.8940 cl        1 1JG     -0.068400
     21 H1          2.7580   -0.3320   -2.4900 ha        1 1JG      0.178000
     22 H2          5.2160   -0.1570   -1.5580 ha        1 1JG      0.183000
     23 H3          4.8890    3.2670   -0.3340 ho        1 1JG      0.430000
     24 H4          5.2170    5.8190    2.6080 ha        1 1JG      0.159000
     25 H5          4.2440    5.1060    4.7970 ha        1 1JG      0.160000
     26 H6          5.0750    0.9660    3.8290 ha        1 1JG      0.191000
     27 H102        6.7260    1.8790    0.6890 hn        1 1JG      0.463800
@<TRIPOS>BOND
     1    1    3 1   
     2    2    3 1   
     3    2    6 1   
     4    3    4 2   
     5    4    5 1   
     6    4   21 1   
     7    5    6 2   
     8    5   22 1   
     9    6    7 1   
    10    7    8 2   
    11    7    9 2   
    12    7   10 1   
    13   10   11 1   
    14   10   27 1   
    15   11   12 ar  
    16   11   16 ar  
    17   12   13 ar  
    18   12   17 1   
    19   13   14 ar  
    20   13   24 1   
    21   14   15 ar  
    22   14   25 1   
    23   15   16 ar  
    24   15   20 1   
    25   16   26 1   
    26   17   18 2   
    27   17   19 1   
    28   19   23 1   
@<TRIPOS>SUBSTRUCTURE
     1 1JG         1 TEMP              0 ****  ****    0 ROOT
