@<TRIPOS>MOLECULE
1JG
   26    27     1     0     0
SMALL
bcc


@<TRIPOS>ATOM
      1 BR1         0.3200   -0.9450   -0.9950 br        1 1JG     -0.047100
      2 S2          2.8950   -1.1160    0.6710 ss        1 1JG      0.247200
      3 C3          2.0220   -0.4210   -0.5500 cc        1 1JG     -0.107000
      4 C4          2.7480    0.5930   -1.1680 cd        1 1JG     -0.145000
      5 C5          4.0300    0.7360   -0.5810 cd        1 1JG     -0.029000
      6 C6          4.2370   -0.1750    0.4600 cc        1 1JG     -0.450600
      7 S7          5.6920   -0.2650    1.2980 sy        1 1JG      1.526200
      8 O8          5.4130   -0.8420    2.5640 o         1 1JG     -0.668800
      9 O9          6.6130   -1.0130    0.5260 o         1 1JG     -0.668800
     10 N10         6.2090    1.2540    1.4120 nh        1 1JG     -0.761500
     11 C11         5.6860    2.2860    2.2100 ca        1 1JG      0.179600
     12 C12         5.5420    3.6000    1.6960 ca        1 1JG     -0.157600
     13 C13         5.0650    4.6070    2.5390 ca        1 1JG     -0.082000
     14 C14         4.7100    4.3520    3.8600 ca        1 1JG     -0.167000
     15 C15         4.8450    3.0530    4.3530 ca        1 1JG      0.029400
     16 C16         5.3300    2.0210    3.5540 ca        1 1JG     -0.184000
     17 C17         5.8770    3.9980    0.2630 c         1 1JG      0.914200
     18 O18         5.9020    5.2280   -0.0080 o         1 1JG     -0.827800
     19 O19         6.1050    3.0960   -0.6020 o         1 1JG     -0.827800
     20 CL1         4.4100    2.7190    5.9730 cl        1 1JG     -0.140400
     21 H1          2.3940    1.2160   -1.9940 ha        1 1JG      0.167000
     22 H2          4.7540    1.5090   -0.9070 ha        1 1JG      0.234000
     23 H3          6.7410    1.6390    0.6370 hn        1 1JG      0.504800
     24 H4          4.9770    5.6250    2.1200 ha        1 1JG      0.165000
     25 H5          4.3320    5.1590    4.5020 ha        1 1JG      0.130000
     26 H6          5.4290    1.0040    3.9700 ha        1 1JG      0.168000
@<TRIPOS>BOND
     1    1    3 1   
     2    2    3 1   
     3    2    6 1   
     4    3    4 2   
     5    4    5 1   
     6    4   21 1   
     7    5    6 2   
     8    5   22 1   
     9    6    7 1   
    10    7    8 2   
    11    7    9 2   
    12    7   10 1   
    13   10   11 1   
    14   10   23 1   
    15   11   12 ar  
    16   11   16 ar  
    17   12   13 ar  
    18   12   17 1   
    19   13   14 ar  
    20   13   24 1   
    21   14   15 ar  
    22   14   25 1   
    23   15   16 ar  
    24   15   20 1   
    25   16   26 1   
    26   17   18 1   
    27   17   19 1   
@<TRIPOS>SUBSTRUCTURE
     1 1JG         1 TEMP              0 ****  ****    0 ROOT
