@<TRIPOS>MOLECULE
1JG
   26    27     1     0     0
SMALL
bcc


@<TRIPOS>ATOM
      1 Br1         0.3380   -1.0000   -0.9610 br        1 1JG     -0.047100
      2 S2          2.9220   -1.1370    0.6950 ss        1 1JG      0.247200
      3 C3          2.0370   -0.4570   -0.5260 cc        1 1JG     -0.107000
      4 C4          2.7500    0.5610   -1.1530 cd        1 1JG     -0.145000
      5 C5          4.0330    0.7200   -0.5720 cd        1 1JG     -0.029000
      6 C6          4.2530   -0.1850    0.4730 cc        1 1JG     -0.450600
      7 S7          5.7130   -0.2550    1.3050 sy        1 1JG      1.526200
      8 O8          5.4450   -0.8290    2.5750 o         1 1JG     -0.668800
      9 O9          6.6380   -0.9980    0.5330 o         1 1JG     -0.668800
     10 N10         6.2160    1.2690    1.4090 nu        1 1JG     -0.761500
     11 C11         5.6850    2.3000    2.2040 ca        1 1JG      0.179600
     12 C12         5.5270    3.6100    1.6830 ca        1 1JG     -0.157600
     13 C13         5.0430    4.6160    2.5240 ca        1 1JG     -0.082000
     14 C14         4.6960    4.3650    3.8470 ca        1 1JG     -0.167000
     15 C15         4.8440    3.0700    4.3460 ca        1 1JG      0.029400
     16 C16         5.3370    2.0390    3.5510 ca        1 1JG     -0.184000
     17 C17         5.8530    4.0040    0.2480 c         1 1JG      0.914200
     18 O18         5.8660    5.2320   -0.0300 o         1 1JG     -0.827800
     19 O19         6.0850    3.1000   -0.6140 o         1 1JG     -0.827800
     20 Cl1         4.4190    2.7400    5.9690 cl        1 1JG     -0.140400
     21 H1          2.3860    1.1750   -1.9800 ha        1 1JG      0.167000
     22 H2          4.7480    1.4970   -0.9050 ha        1 1JG      0.234000
     23 H3          6.7410    1.6560    0.6300 hn        1 1JG      0.504800
     24 H4          4.9440    5.6320    2.1000 ha        1 1JG      0.165000
     25 H5          4.3120    5.1720    4.4860 ha        1 1JG      0.130000
     26 H6          5.4480    1.0240    3.9710 ha        1 1JG      0.168000
@<TRIPOS>BOND
     1    1    3 1   
     2    2    3 1   
     3    2    6 1   
     4    3    4 2   
     5    4    5 1   
     6    4   21 1   
     7    5    6 2   
     8    5   22 1   
     9    6    7 1   
    10    7    8 2   
    11    7    9 2   
    12    7   10 1   
    13   10   11 1   
    14   10   23 1   
    15   11   12 ar  
    16   11   16 ar  
    17   12   13 ar  
    18   12   17 1   
    19   13   14 ar  
    20   13   24 1   
    21   14   15 ar  
    22   14   25 1   
    23   15   16 ar  
    24   15   20 1   
    25   16   26 1   
    26   17   18 1   
    27   17   19 1   
@<TRIPOS>SUBSTRUCTURE
     1 1JG         1 TEMP              0 ****  ****    0 ROOT
