@<TRIPOS>MOLECULE
1JG
   26    27     1     0     0
SMALL
bcc


@<TRIPOS>ATOM
      1 BR1         4.8260   -0.5210    0.2400 br        1 1JG     -0.047100
      2 S2          2.2650   -0.6080   -1.4520 ss        1 1JG      0.247200
      3 C3          3.0660   -0.9540   -0.0480 cc        1 1JG     -0.107000
      4 C4          2.2290   -1.5990    0.8590 cd        1 1JG     -0.145000
      5 C5          0.9320   -1.7820    0.3170 cd        1 1JG     -0.029000
      6 C6          0.8280   -1.2740   -0.9830 cc        1 1JG     -0.450600
      7 S7         -0.5840   -1.4050   -1.8860 sy        1 1JG      1.526200
      8 O8         -0.5560   -0.3740   -2.8600 o         1 1JG     -0.668800
      9 O9         -0.6470   -2.7060   -2.4420 o         1 1JG     -0.668800
     10 N10        -1.7820   -1.2250   -0.8280 nh        1 1JG     -0.761500
     11 C11        -2.1810   -0.0490   -0.1690 ca        1 1JG      0.179600
     12 C12        -2.5230   -0.0690    1.2070 ca        1 1JG     -0.157600
     13 C13        -2.9640    1.1130    1.8100 ca        1 1JG     -0.082000
     14 C14        -3.0560    2.3080    1.1050 ca        1 1JG     -0.167000
     15 C15        -2.7050    2.3190   -0.2460 ca        1 1JG      0.029400
     16 C16        -2.2770    1.1630   -0.8930 ca        1 1JG     -0.184000
     17 C17        -2.4450   -1.3090    2.0900 c         1 1JG      0.914200
     18 O18        -2.9710   -1.2440    3.2320 o         1 1JG     -0.827800
     19 O19        -1.8520   -2.3480    1.6610 o         1 1JG     -0.827800
     20 CL1        -2.8080    3.7800   -1.1300 cl        1 1JG     -0.140400
     21 H1          2.5100   -1.9230    1.8640 ha        1 1JG      0.167000
     22 H2          0.1060   -2.2480    0.8890 ha        1 1JG      0.234000
     23 H3         -2.0980   -2.0430   -0.3160 hn        1 1JG      0.504800
     24 H4         -3.2400    1.0680    2.8790 ha        1 1JG      0.165000
     25 H5         -3.3990    3.2250    1.6030 ha        1 1JG      0.130000
     26 H6         -2.0080    1.1990   -1.9630 ha        1 1JG      0.168000
@<TRIPOS>BOND
     1    1    3 1   
     2    2    3 1   
     3    2    6 1   
     4    3    4 2   
     5    4    5 1   
     6    4   21 1   
     7    5    6 2   
     8    5   22 1   
     9    6    7 1   
    10    7    8 2   
    11    7    9 2   
    12    7   10 1   
    13   10   11 1   
    14   10   23 1   
    15   11   12 ar  
    16   11   16 ar  
    17   12   13 ar  
    18   12   17 1   
    19   13   14 ar  
    20   13   24 1   
    21   14   15 ar  
    22   14   25 1   
    23   15   16 ar  
    24   15   20 1   
    25   16   26 1   
    26   17   18 1   
    27   17   19 1   
@<TRIPOS>SUBSTRUCTURE
     1 1JG         1 TEMP              0 ****  ****    0 ROOT
