@<TRIPOS>MOLECULE
1JG
   26    19     1     0     0
SMALL
bcc


@<TRIPOS>ATOM
      1 BR1        -5.4830    0.1420   -3.4170 br        1 1JG      0.053000
      2 S2         -2.8830   -0.2860   -1.8020 ss        1 1JG      1.472000
      3 C3         -3.6370   -0.2810   -3.1590 c2        1 1JG     -0.795000
      4 C4         -2.7130   -0.7270   -4.1840 c1        1 1JG     -0.142000
      5 C5         -1.3120   -1.0370   -3.4940 c1        1 1JG     -0.094000
      6 C6         -1.4340   -0.7680   -2.0740 c1        1 1JG     -1.520000
      7 S7         -0.1640   -0.9930   -0.8570 ss        1 1JG      2.944000
      8 O8          1.0860   -1.3540   -1.4680 o         1 1JG     -0.967500
      9 O9         -0.4210   -2.1480   -0.0440 o         1 1JG     -0.967500
     10 N10        -0.0100    0.3600    0.0600 n2        1 1JG     -0.813000
     11 C11         0.9990    0.4320    1.0550 c1        1 1JG      0.110000
     12 C12         0.6550    0.6850    2.3730 c1        1 1JG     -0.168000
     13 C13         1.6450    0.8220    3.3340 c1        1 1JG     -0.076000
     14 C14         2.9780    0.7060    2.9760 c1        1 1JG     -0.163000
     15 C15         3.3230    0.4530    1.6580 c1        1 1JG     -0.042000
     16 C16         2.3340    0.3160    0.6970 c1        1 1JG     -0.137000
     17 C17        -0.8000    0.8100    2.7640 c1        1 1JG      0.375000
     18 O18        -1.3850    1.9200    2.6650 o         1 1JG     -0.500000
     19 O19        -1.4300   -0.1990    3.1730 o         1 1JG     -0.500000
     20 CL1         5.0010    0.3250    1.2050 cl        1 1JG     -0.045000
     21 H1         -2.9150   -0.8210   -5.1350 DU        1 1JG      0.136000
     22 H2         -0.5090   -1.3530   -3.9490 DU        1 1JG      0.136000
     23 H3         -0.5800    1.0610   -0.0620 hn        1 1JG      0.246000
     24 H4          1.4020    1.0010    4.2620 ha        1 1JG      0.149000
     25 H5          3.6750    0.8030    3.6530 ha        1 1JG      0.136000
     26 H6          2.5760    0.1300   -0.2300 ha        1 1JG      0.172000
@<TRIPOS>BOND
     1    1    3 1   
     2    2    3 1   
     3    2    6 1   
     4    3    4 1   
     5    4    5 1   
     6    5    6 1   
     7    7    8 1   
     8    7    9 1   
     9   10   11 1   
    10   10   23 1   
    11   11   16 1   
    12   12   13 1   
    13   13   24 1   
    14   14   15 1   
    15   14   25 1   
    16   15   20 1   
    17   16   26 1   
    18   17   18 1   
    19   17   19 1   
@<TRIPOS>SUBSTRUCTURE
     1 1JG         1 TEMP              0 ****  ****    0 ROOT
