@<TRIPOS>MOLECULE
1JH
   43    45     1     0     0
SMALL
bcc


@<TRIPOS>ATOM
      1 C1         -2.7600   -1.1160    0.8890 ca        1 1JH     -0.014000
      2 C2         -2.7430   -2.3790    1.4820 ca        1 1JH     -0.166500
      3 C3         -2.8570   -3.5310    0.7000 ca        1 1JH     -0.032300
      4 C4         -2.9860   -3.4030   -0.6900 ca        1 1JH     -0.166500
      5 C5         -3.0030   -2.1430   -1.2740 ca        1 1JH     -0.014000
      6 C6         -2.8990   -0.9800   -0.4970 ca        1 1JH     -0.376500
      7 S7         -2.9860    0.5290   -1.2640 sy        1 1JH      1.495200
      8 O8         -2.6290    0.3410   -2.6270 o         1 1JH     -0.670800
      9 O9         -4.2920    1.0520   -1.0890 o         1 1JH     -0.670800
     10 N10        -1.9360    1.4610   -0.4770 nh        1 1JH     -0.767500
     11 C11        -0.5330    1.4070   -0.5200 ca        1 1JH      0.177600
     12 C12         0.2350    1.5280    0.6670 ca        1 1JH     -0.154600
     13 C13         1.6290    1.5280    0.5770 ca        1 1JH     -0.094000
     14 C14         2.2570    1.3820   -0.6610 ca        1 1JH      0.027100
     15 C15         1.5120    1.2370   -1.8360 ca        1 1JH     -0.121000
     16 C16         0.1260    1.2610   -1.7650 ca        1 1JH     -0.183000
     17 C17        -0.3620    1.6500    2.0650 c         1 1JH      0.914200
     18 O18        -1.6170    1.5300    2.2260 o         1 1JH     -0.826300
     19 O19         0.4320    1.8510    3.0210 o         1 1JH     -0.826300
     20 O20         3.6470    1.5040   -0.7850 os        1 1JH     -0.255200
     21 C21         4.4030    0.4270   -0.3520 ca        1 1JH      0.138100
     22 C22         5.7860    0.5500   -0.5810 ca        1 1JH     -0.175500
     23 C23         6.6310   -0.4780   -0.1790 ca        1 1JH     -0.104500
     24 C24         6.1180   -1.6180    0.4430 ca        1 1JH     -0.179000
     25 C25         4.7460   -1.7280    0.6680 ca        1 1JH     -0.104500
     26 C26         3.8790   -0.7110    0.2740 ca        1 1JH     -0.175500
     27 C28        -2.8200   -4.8720    1.3270 c3        1 1JH     -0.057800
     28 H1         -2.6370   -0.2200    1.5390 ha        1 1JH      0.177500
     29 H2         -2.6290   -2.4610    2.5730 ha        1 1JH      0.131500
     30 H3         -3.0710   -4.3020   -1.3170 ha        1 1JH      0.131500
     31 H4         -3.0910   -2.0470   -2.3710 ha        1 1JH      0.177500
     32 H5         -2.2490    1.9340    0.3660 hn        1 1JH      0.504800
     33 H6          2.2160    1.6430    1.5060 ha        1 1JH      0.176000
     34 H7          2.0210    1.1220   -2.8030 ha        1 1JH      0.132000
     35 H8         -0.4600    1.1560   -2.6950 ha        1 1JH      0.158000
     36 H10         6.1760    1.4540   -1.0690 ha        1 1JH      0.151500
     37 H11         7.7140   -0.3900   -0.3520 ha        1 1JH      0.123000
     38 H12         6.7940   -2.4240    0.7580 ha        1 1JH      0.120000
     39 H13         4.3400   -2.6220    1.1640 ha        1 1JH      0.123000
     40 H14         2.7970   -0.7900    0.4610 ha        1 1JH      0.151500
     41 H15        -1.7620   -5.2330    1.3860 hc        1 1JH      0.041700
     42 H16        -3.2360   -4.8400    2.3640 hc        1 1JH      0.041700
     43 H17        -3.4090   -5.6110    0.7300 hc        1 1JH      0.041700
@<TRIPOS>BOND
     1    1    2 ar  
     2    1    6 ar  
     3    1   28 1   
     4    2    3 ar  
     5    2   29 1   
     6    3    4 ar  
     7    3   27 1   
     8    4    5 ar  
     9    4   30 1   
    10    5    6 ar  
    11    5   31 1   
    12    6    7 1   
    13    7    8 2   
    14    7    9 2   
    15    7   10 1   
    16   10   11 1   
    17   10   32 1   
    18   11   12 ar  
    19   11   16 ar  
    20   12   13 ar  
    21   12   17 1   
    22   13   14 ar  
    23   13   33 1   
    24   14   15 ar  
    25   14   20 1   
    26   15   16 ar  
    27   15   34 1   
    28   16   35 1   
    29   17   18 1   
    30   17   19 1   
    31   20   21 1   
    32   21   22 ar  
    33   21   26 ar  
    34   22   23 ar  
    35   22   36 1   
    36   23   24 ar  
    37   23   37 1   
    38   24   25 ar  
    39   24   38 1   
    40   25   26 ar  
    41   25   39 1   
    42   26   40 1   
    43   27   41 1   
    44   27   42 1   
    45   27   43 1   
@<TRIPOS>SUBSTRUCTURE
     1 1JH         1 TEMP              0 ****  ****    0 ROOT
