@<TRIPOS>MOLECULE
1JH
   43    33     1     0     0
SMALL
bcc


@<TRIPOS>ATOM
      1 C1         -0.1020    2.0330   -3.5530 c1        1 1JH     -0.001000
      2 C2         -0.2200    2.8500   -4.6670 c1        1 1JH     -0.158000
      3 C3         -0.9620    4.0180   -4.5950 c1        1 1JH     -0.024000
      4 C4         -1.5860    4.3700   -3.4080 c2        1 1JH     -0.174000
      5 C5         -1.4690    3.5530   -2.2950 c1        1 1JH     -0.024000
      6 C6         -0.7270    2.3850   -2.3670 c1        1 1JH     -0.811000
      7 S7         -0.6600    1.2890   -0.9720 s4        1 1JH      2.065800
      8 O8         -1.4840    1.7650    0.1040 o         1 1JH     -0.563900
      9 O9         -1.2860    0.0310   -1.2670 o         1 1JH     -0.563900
     10 N10         0.8950    1.0820   -0.4860 n2        1 1JH     -0.832000
     11 C11         1.2020    0.1330    0.5240 c1        1 1JH      0.109000
     12 C12         1.4410   -1.1890    0.1840 c1        1 1JH     -0.078000
     13 C13         1.7310   -2.1180    1.1720 c1        1 1JH     -0.100500
     14 C14         1.7810   -1.7240    2.5000 c1        1 1JH     -0.078000
     15 C15         1.5410   -0.4020    2.8410 c1        1 1JH     -0.100500
     16 C16         1.2520    0.5270    1.8530 c1        1 1JH     -0.186000
     17 C17         1.4650   -1.6020   -1.2720 c1        1 1JH      0.367000
     18 O18         0.4580   -2.1580   -1.7850 o         1 1JH     -0.565000
     19 O19         2.5010   -1.4170   -1.9620 o         1 1JH     -0.565000
     20 O20         2.0310   -2.6740    3.5050 o         1 1JH     -0.165000
     21 C21         0.8210   -3.2690    3.8980 c1        1 1JH      0.092000
     22 C22         0.3850   -4.4300    3.2770 c1        1 1JH     -0.142250
     23 C23        -0.7980   -5.0290    3.6800 c1        1 1JH     -0.142250
     24 C24        -1.5450   -4.4680    4.7040 c1        1 1JH     -0.142250
     25 C25        -1.1100   -3.3080    5.3250 c1        1 1JH     -0.142250
     26 C26         0.0740   -2.7090    4.9220 c1        1 1JH     -0.168000
     27 C28        -1.1180    4.8930   -5.8200 c2        1 1JH     -0.184000
     28 H1          0.4200    1.2110   -3.6050 ha        1 1JH      0.206000
     29 H2          0.2200    2.6020   -5.5030 ha        1 1JH      0.141000
     30 H3         -2.1090    5.1930   -3.3570 ha        1 1JH      0.125000
     31 H4         -1.9120    3.7990   -1.4600 ha        1 1JH      0.151000
     32 H5          1.5580    1.5940   -0.8470 hn        1 1JH      0.299000
     33 H6          1.8990   -3.0490    0.9320 ha        1 1JH      0.154000
     34 H7          1.6090   -0.1180    3.7720 ha        1 1JH      0.154000
     35 H8          1.0830    1.4580    2.0930 ha        1 1JH      0.135000
     36 H10         0.9120   -4.8240    2.5570 ha        1 1JH      0.132500
     37 H11        -1.1050   -5.8460    3.2430 ha        1 1JH      0.132500
     38 H12        -2.3780   -4.8900    4.9870 ha        1 1JH      0.132500
     39 H13        -1.6360   -2.9130    6.0450 ha        1 1JH      0.132500
     40 H14         0.3810   -1.8910    5.3600 ha        1 1JH      0.140000
     41 H15        -1.3280    4.3320   -6.5970 ha        1 1JH      0.081667
     42 H16        -1.8450    5.5330   -5.6740 ha        1 1JH      0.081667
     43 H17        -0.2820    5.3780   -5.9840 ha        1 1JH      0.081667
@<TRIPOS>BOND
     1    1    6 1   
     2    1   28 1   
     3    2    3 1   
     4    2   29 1   
     5    3    4 1   
     6    4    5 1   
     7    4   30 1   
     8    5   31 1   
     9    6    7 1   
    10    7    8 1   
    11    7    9 1   
    12   10   11 1   
    13   10   32 1   
    14   11   16 1   
    15   12   13 1   
    16   13   33 1   
    17   14   15 1   
    18   15   34 1   
    19   16   35 1   
    20   17   18 1   
    21   17   19 1   
    22   20   21 1   
    23   21   26 1   
    24   22   23 1   
    25   22   36 1   
    26   23   37 1   
    27   24   25 1   
    28   24   38 1   
    29   25   39 1   
    30   26   40 1   
    31   27   41 1   
    32   27   42 1   
    33   27   43 1   
@<TRIPOS>SUBSTRUCTURE
     1 1JH         1 TEMP              0 ****  ****    0 ROOT
