@<TRIPOS>MOLECULE
1JH
   43    45     1     0     0
SMALL
bcc


@<TRIPOS>ATOM
      1 C1         -0.1220   -0.5640    0.2660 ca        1 1JH     -0.014000
      2 C2          1.2380   -0.4380   -0.0220 ca        1 1JH     -0.166500
      3 C3          2.0140    0.5260    0.6270 ca        1 1JH     -0.032300
      4 C4          1.4100    1.3610    1.5770 ca        1 1JH     -0.166500
      5 C5          0.0560    1.2300    1.8600 ca        1 1JH     -0.014000
      6 C6         -0.7330    0.2740    1.2040 ca        1 1JH     -0.376500
      7 S7         -2.3920    0.2060    1.5500 sy        1 1JH      1.495200
      8 O8         -2.5900    0.7880    2.8310 o         1 1JH     -0.670800
      9 O9         -3.0970    0.8660    0.5130 o         1 1JH     -0.670800
     10 N10        -2.7610   -1.3610    1.5220 nu        1 1JH     -0.767500
     11 C11        -2.4210   -2.3440    2.4670 ca        1 1JH      0.177600
     12 C12        -1.9770   -3.6260    2.0510 ca        1 1JH     -0.154600
     13 C13        -1.7040   -4.5970    3.0180 ca        1 1JH     -0.094000
     14 C14        -1.8390   -4.2990    4.3760 ca        1 1JH      0.027100
     15 C15        -2.2530   -3.0320    4.7990 ca        1 1JH     -0.121000
     16 C16        -2.5530   -2.0650    3.8490 ca        1 1JH     -0.183000
     17 C17        -1.7600   -4.0280    0.5960 c         1 1JH      0.914200
     18 O18        -1.8660   -3.1540   -0.3200 o         1 1JH     -0.826300
     19 O19        -1.4630   -5.2290    0.3620 o         1 1JH     -0.826300
     20 O20        -1.6900   -5.2930    5.3520 os        1 1JH     -0.255200
     21 C21        -0.3940   -5.6870    5.6390 ca        1 1JH      0.138100
     22 C22        -0.2820   -6.6180    6.6890 ca        1 1JH     -0.175500
     23 C23         0.9790   -7.0790    7.0510 ca        1 1JH     -0.104500
     24 C24         2.1190   -6.6250    6.3850 ca        1 1JH     -0.179000
     25 C25         1.9960   -5.7060    5.3440 ca        1 1JH     -0.104500
     26 C26         0.7440   -5.2300    4.9620 ca        1 1JH     -0.175500
     27 C28         3.4540    0.6700    0.3110 c3        1 1JH     -0.057800
     28 H1         -0.7030   -1.3620   -0.2490 ha        1 1JH      0.177500
     29 H2          1.6990   -1.1120   -0.7590 ha        1 1JH      0.131500
     30 H3          2.0110    2.1170    2.1030 ha        1 1JH      0.131500
     31 H4         -0.4110    1.8800    2.6200 ha        1 1JH      0.177500
     32 H5         -2.9860   -1.7870    0.6290 hn        1 1JH      0.504800
     33 H6         -1.3780   -5.5970    2.6820 ha        1 1JH      0.176000
     34 H7         -2.3540   -2.8130    5.8710 ha        1 1JH      0.132000
     35 H8         -2.8880   -1.0690    4.1860 ha        1 1JH      0.158000
     36 H10        -1.1880   -6.9670    7.2020 ha        1 1JH      0.151500
     37 H11         1.0750   -7.8070    7.8700 ha        1 1JH      0.123000
     38 H12         3.1100   -6.9960    6.6790 ha        1 1JH      0.120000
     39 H13         2.8930   -5.3530    4.8130 ha        1 1JH      0.123000
     40 H14         0.6430   -4.5130    4.1330 ha        1 1JH      0.151500
     41 H15         3.8960   -0.3110    0.0110 hc        1 1JH      0.041367
     42 H16         3.5850    1.3880   -0.5380 hc        1 1JH      0.041367
     43 H17         4.0210    1.0620    1.1910 hc        1 1JH      0.041367
@<TRIPOS>BOND
     1    1    2 ar  
     2    1    6 ar  
     3    1   28 1   
     4    2    3 ar  
     5    2   29 1   
     6    3    4 ar  
     7    3   27 1   
     8    4    5 ar  
     9    4   30 1   
    10    5    6 ar  
    11    5   31 1   
    12    6    7 1   
    13    7    8 2   
    14    7    9 2   
    15    7   10 1   
    16   10   11 1   
    17   10   32 1   
    18   11   12 ar  
    19   11   16 ar  
    20   12   13 ar  
    21   12   17 1   
    22   13   14 ar  
    23   13   33 1   
    24   14   15 ar  
    25   14   20 1   
    26   15   16 ar  
    27   15   34 1   
    28   16   35 1   
    29   17   18 1   
    30   17   19 1   
    31   20   21 1   
    32   21   22 ar  
    33   21   26 ar  
    34   22   23 ar  
    35   22   36 1   
    36   23   24 ar  
    37   23   37 1   
    38   24   25 ar  
    39   24   38 1   
    40   25   26 ar  
    41   25   39 1   
    42   26   40 1   
    43   27   41 1   
    44   27   42 1   
    45   27   43 1   
@<TRIPOS>SUBSTRUCTURE
     1 1JH         1 TEMP              0 ****  ****    0 ROOT
