@<TRIPOS>MOLECULE
1JH
   44    46     1     0     0
SMALL
bcc


@<TRIPOS>ATOM
      1 C1         -0.3530   -0.1990   -0.2310 ca        1 1JH     -0.014500
      2 C2          0.9880    0.0560   -0.4920 ca        1 1JH     -0.159500
      3 C3          1.7480    0.8200    0.4060 ca        1 1JH     -0.002300
      4 C4          1.1390    1.3160    1.5650 ca        1 1JH     -0.159500
      5 C5         -0.2040    1.0550    1.8170 ca        1 1JH     -0.014500
      6 C6         -0.9720    0.2950    0.9260 ca        1 1JH     -0.408500
      7 S7         -2.6060    0.0280    1.2090 sy        1 1JH      1.522200
      8 O8         -2.9910    0.7360    2.3630 o         1 1JH     -0.643800
      9 O9         -3.3370    0.2730    0.0320 o         1 1JH     -0.643800
     10 N10        -2.6530   -1.5920    1.4620 nh        1 1JH     -0.784500
     11 C11        -2.2510   -2.3070    2.5990 ca        1 1JH      0.174600
     12 C12        -1.6680   -3.5910    2.4690 ca        1 1JH     -0.185600
     13 C13        -1.3080   -4.3320    3.5970 ca        1 1JH     -0.113000
     14 C14        -1.4840   -3.7790    4.8660 ca        1 1JH      0.092100
     15 C15        -2.0420   -2.4980    5.0190 ca        1 1JH     -0.096000
     16 C16        -2.4340   -1.7790    3.9000 ca        1 1JH     -0.151000
     17 C17        -1.4630   -4.2070    1.1420 c         1 1JH      0.638700
     18 O18        -1.8540   -5.3080    0.7590 o         1 1JH     -0.471000
     19 O19        -0.7640   -3.5170    0.1870 oh        1 1JH     -0.589100
     20 O20        -1.2180   -4.4550    6.0500 os        1 1JH     -0.244200
     21 C21        -0.2500   -5.4580    5.9950 ca        1 1JH      0.090100
     22 C22        -0.5500   -6.6400    6.6860 ca        1 1JH     -0.147500
     23 C23         0.4250   -7.6320    6.7720 ca        1 1JH     -0.110000
     24 C24         1.6710   -7.4520    6.1710 ca        1 1JH     -0.139000
     25 C25         1.9540   -6.2730    5.4810 ca        1 1JH     -0.110000
     26 C26         0.9970   -5.2650    5.3880 ca        1 1JH     -0.147500
     27 C28         3.1720    1.1090    0.1200 c3        1 1JH     -0.071800
     28 H1         -0.9450   -0.7890   -0.9530 ha        1 1JH      0.155500
     29 H2          1.4550   -0.3370   -1.4080 ha        1 1JH      0.146000
     30 H3          1.7250    1.9180    2.2760 ha        1 1JH      0.146000
     31 H4         -0.6790    1.4590    2.7300 ha        1 1JH      0.155500
     32 H5         -0.3790   -2.7140    0.5670 ho        1 1JH      0.431000
     33 H6         -0.8920   -5.3460    3.4790 ha        1 1JH      0.169000
     34 H7         -2.1840   -2.0840    6.0300 ha        1 1JH      0.162000
     35 H8         -2.8960   -0.7840    4.0380 ha        1 1JH      0.182000
     36 H10        -1.5360   -6.7640    7.1570 ha        1 1JH      0.148000
     37 H11         0.2050   -8.5630    7.3160 ha        1 1JH      0.138000
     38 H12         2.4320   -8.2430    6.2400 ha        1 1JH      0.137000
     39 H13         2.9390   -6.1340    5.0090 ha        1 1JH      0.138000
     40 H14         1.2090   -4.3300    4.8500 ha        1 1JH      0.148000
     41 H15         3.6490    0.2650   -0.4360 hc        1 1JH      0.056367
     42 H16         3.7450    1.2830    1.0640 hc        1 1JH      0.056367
     43 H17         3.2480    2.0320   -0.5110 hc        1 1JH      0.056367
     44 H102       -2.9800   -2.1840    0.7250 hn        1 1JH      0.463800
@<TRIPOS>BOND
     1    1    2 ar  
     2    1    6 ar  
     3    1   28 1   
     4    2    3 ar  
     5    2   29 1   
     6    3    4 ar  
     7    3   27 1   
     8    4    5 ar  
     9    4   30 1   
    10    5    6 ar  
    11    5   31 1   
    12    6    7 1   
    13    7    8 2   
    14    7    9 2   
    15    7   10 1   
    16   10   11 1   
    17   10   44 1   
    18   11   12 ar  
    19   11   16 ar  
    20   12   13 ar  
    21   12   17 1   
    22   13   14 ar  
    23   13   33 1   
    24   14   15 ar  
    25   14   20 1   
    26   15   16 ar  
    27   15   34 1   
    28   16   35 1   
    29   17   18 2   
    30   17   19 1   
    31   19   32 1   
    32   20   21 1   
    33   21   22 ar  
    34   21   26 ar  
    35   22   23 ar  
    36   22   36 1   
    37   23   24 ar  
    38   23   37 1   
    39   24   25 ar  
    40   24   38 1   
    41   25   26 ar  
    42   25   39 1   
    43   26   40 1   
    44   27   41 1   
    45   27   42 1   
    46   27   43 1   
@<TRIPOS>SUBSTRUCTURE
     1 1JH         1 TEMP              0 ****  ****    0 ROOT
