@<TRIPOS>MOLECULE
1JH
   43    45     1     0     0
SMALL
bcc


@<TRIPOS>ATOM
      1 C1         -0.1030   -0.5780    0.2550 ca        1 1JH     -0.014000
      2 C2          1.2590   -0.4540   -0.0240 ca        1 1JH     -0.166500
      3 C3          2.0310    0.5130    0.6240 ca        1 1JH     -0.032300
      4 C4          1.4210    1.3530    1.5660 ca        1 1JH     -0.166500
      5 C5          0.0660    1.2240    1.8400 ca        1 1JH     -0.014000
      6 C6         -0.7200    0.2650    1.1850 ca        1 1JH     -0.376500
      7 S7         -2.3810    0.2000    1.5190 sy        1 1JH      1.495200
      8 O8         -2.5870    0.7890    2.7960 o         1 1JH     -0.670800
      9 O9         -3.0790    0.8550    0.4740 o         1 1JH     -0.670800
     10 N10        -2.7510   -1.3670    1.4980 nh        1 1JH     -0.767500
     11 C11        -2.4180   -2.3450    2.4500 ca        1 1JH      0.177600
     12 C12        -1.9720   -3.6300    2.0450 ca        1 1JH     -0.154600
     13 C13        -1.7060   -4.5950    3.0190 ca        1 1JH     -0.094000
     14 C14        -1.8510   -4.2900    4.3740 ca        1 1JH      0.027100
     15 C15        -2.2660   -3.0200    4.7870 ca        1 1JH     -0.121000
     16 C16        -2.5590   -2.0580    3.8300 ca        1 1JH     -0.183000
     17 C17        -1.7460   -4.0390    0.5930 c         1 1JH      0.914200
     18 O18        -1.8450   -3.1710   -0.3280 o         1 1JH     -0.826300
     19 O19        -1.4470   -5.2420    0.3680 o         1 1JH     -0.826300
     20 O20        -1.7090   -5.2780    5.3560 os        1 1JH     -0.255200
     21 C21        -0.4150   -5.6720    5.6550 ca        1 1JH      0.138100
     22 C22        -0.3110   -6.5960    6.7110 ca        1 1JH     -0.175500
     23 C23         0.9470   -7.0560    7.0850 ca        1 1JH     -0.104500
     24 C24         2.0920   -6.6070    6.4240 ca        1 1JH     -0.179000
     25 C25         1.9770   -5.6930    5.3770 ca        1 1JH     -0.104500
     26 C26         0.7280   -5.2190    4.9840 ca        1 1JH     -0.175500
     27 C28         3.4730    0.6540    0.3170 c3        1 1JH     -0.057800
     28 H1         -0.6810   -1.3790   -0.2590 ha        1 1JH      0.177500
     29 H2          1.7240   -1.1340   -0.7540 ha        1 1JH      0.131500
     30 H3          2.0200    2.1110    2.0910 ha        1 1JH      0.131500
     31 H4         -0.4070    1.8790    2.5930 ha        1 1JH      0.177500
     32 H5         -2.9710   -1.7980    0.6060 hn        1 1JH      0.504800
     33 H6         -1.3790   -5.5970    2.6910 ha        1 1JH      0.176000
     34 H7         -2.3740   -2.7950    5.8570 ha        1 1JH      0.132000
     35 H8         -2.8960   -1.0600    4.1590 ha        1 1JH      0.158000
     36 H10        -1.2210   -6.9430    7.2190 ha        1 1JH      0.151500
     37 H11         1.0370   -7.7800    7.9070 ha        1 1JH      0.123000
     38 H12         3.0810   -6.9770    6.7260 ha        1 1JH      0.120000
     39 H13         2.8770   -5.3440    4.8500 ha        1 1JH      0.123000
     40 H14         0.6330   -4.5060    4.1490 ha        1 1JH      0.151500
     41 H15         4.0330    1.0560    1.1960 hc        1 1JH      0.041367
     42 H16         3.6100    1.3610   -0.5400 hc        1 1JH      0.041367
     43 H17         3.9180   -0.3310    0.0330 hc        1 1JH      0.041367
@<TRIPOS>BOND
     1    1    2 ar  
     2    1    6 ar  
     3    1   28 1   
     4    2    3 ar  
     5    2   29 1   
     6    3    4 ar  
     7    3   27 1   
     8    4    5 ar  
     9    4   30 1   
    10    5    6 ar  
    11    5   31 1   
    12    6    7 1   
    13    7    8 2   
    14    7    9 2   
    15    7   10 1   
    16   10   11 1   
    17   10   32 1   
    18   11   12 ar  
    19   11   16 ar  
    20   12   13 ar  
    21   12   17 1   
    22   13   14 ar  
    23   13   33 1   
    24   14   15 ar  
    25   14   20 1   
    26   15   16 ar  
    27   15   34 1   
    28   16   35 1   
    29   17   18 1   
    30   17   19 1   
    31   20   21 1   
    32   21   22 ar  
    33   21   26 ar  
    34   22   23 ar  
    35   22   36 1   
    36   23   24 ar  
    37   23   37 1   
    38   24   25 ar  
    39   24   38 1   
    40   25   26 ar  
    41   25   39 1   
    42   26   40 1   
    43   27   41 1   
    44   27   42 1   
    45   27   43 1   
@<TRIPOS>SUBSTRUCTURE
     1 1JH         1 TEMP              0 ****  ****    0 ROOT
