@<TRIPOS>MOLECULE
1JJ
   15    14     1     0     0
SMALL
bcc


@<TRIPOS>ATOM
      1 C1          1.9120    0.0700   -0.0970 c3        1 1JJ     -0.046100
      2 C2          2.4680   -0.5650    1.1540 c3        1 1JJ     -0.091400
      3 C3          3.7140    0.1180    1.6640 c3        1 1JJ     -0.065100
      4 O1         -0.2280    0.1600    1.5110 o         1 1JJ     -0.942833
      5 O2         -0.0290    1.7850   -0.4300 o         1 1JJ     -0.942833
      6 P1          0.1280    0.3630    0.0540 p5        1 1JJ      1.196700
      7 O3          2.1640   -0.7490   -1.2220 oh        1 1JJ     -0.680800
      8 O4         -0.4390   -0.7000   -0.8720 o         1 1JJ     -0.942833
      9 H1          2.4120    1.0490   -0.3030 h1        1 1JJ      0.022700
     10 H2          1.6630   -0.5230    1.9440 hc        1 1JJ      0.047700
     11 H3          2.7150   -1.6460    0.9640 hc        1 1JJ      0.047700
     12 H4          4.0930   -0.3760    2.5940 hc        1 1JJ     -0.009967
     13 H5          3.5000    1.1890    1.9010 hc        1 1JJ     -0.009967
     14 H6          4.5280    0.0870    0.9000 hc        1 1JJ     -0.009967
     15 H8          1.3020   -1.1300   -1.4820 ho        1 1JJ      0.427000
@<TRIPOS>BOND
     1    1    2 1   
     2    1    6 1   
     3    1    7 1   
     4    1    9 1   
     5    2    3 1   
     6    2   10 1   
     7    2   11 1   
     8    3   12 1   
     9    3   13 1   
    10    3   14 1   
    11    4    6 1   
    12    5    6 1   
    13    6    8 1   
    14    7   15 1   
@<TRIPOS>SUBSTRUCTURE
     1 1JJ         1 TEMP              0 ****  ****    0 ROOT
