@<TRIPOS>MOLECULE
1JJ
   15    14     1     0     0
SMALL
bcc


@<TRIPOS>ATOM
      1 C1          1.9080    0.0180   -0.1040 c3        1 1JJ     -0.046100
      2 C2          2.4770   -0.5100    1.1890 c3        1 1JJ     -0.091400
      3 C3          3.7140    0.2280    1.6400 c3        1 1JJ     -0.065100
      4 O1         -0.2290    0.2010    1.5010 o         1 1JJ     -0.942833
      5 O2         -0.0580    1.6750   -0.5590 o         1 1JJ     -0.942833
      6 P1          0.1200    0.2970    0.0310 p5        1 1JJ      1.196700
      7 O3          2.1690   -0.8810   -1.1640 oh        1 1JJ     -0.680800
      8 O4         -0.4340   -0.8410   -0.8100 o         1 1JJ     -0.942833
      9 H1          2.3930    0.9860   -0.3880 h1        1 1JJ      0.022700
     10 H2          1.6740   -0.4200    1.9770 hc        1 1JJ      0.047700
     11 H3          2.7400   -1.5990    1.0820 hc        1 1JJ      0.047700
     12 H4          4.1030   -0.1880    2.6040 hc        1 1JJ     -0.009967
     13 H5          3.4860    1.3100    1.7950 hc        1 1JJ     -0.009967
     14 H6          4.5270    0.1500    0.8770 hc        1 1JJ     -0.009967
     15 H8          1.3120   -1.2930   -1.3910 ho        1 1JJ      0.427000
@<TRIPOS>BOND
     1    1    2 1   
     2    1    6 1   
     3    1    7 1   
     4    1    9 1   
     5    2    3 1   
     6    2   10 1   
     7    2   11 1   
     8    3   12 1   
     9    3   13 1   
    10    3   14 1   
    11    4    6 1   
    12    5    6 1   
    13    6    8 1   
    14    7   15 1   
@<TRIPOS>SUBSTRUCTURE
     1 1JJ         1 TEMP              0 ****  ****    0 ROOT
