@<TRIPOS>MOLECULE
1JJ
   15    14     1     0     0
SMALL
bcc


@<TRIPOS>ATOM
      1 C1         -0.8630   -0.5080    0.0610 c3        1 1JJ     -0.046100
      2 C2         -1.8340    0.5620   -0.3710 c3        1 1JJ     -0.091400
      3 C3         -3.0710    0.6270    0.4920 c3        1 1JJ     -0.065100
      4 O1          1.4880   -0.4900   -1.0320 o         1 1JJ     -0.942833
      5 O2          0.7180    1.6530    0.0990 o         1 1JJ     -0.942833
      6 P1          0.8260    0.1460    0.1790 p5        1 1JJ      1.196700
      7 O3         -0.8880   -1.5950   -0.8440 oh        1 1JJ     -0.680800
      8 O4          1.3020   -0.3720    1.5150 o         1 1JJ     -0.942833
      9 H1         -1.1470   -0.9260    1.0600 h1        1 1JJ      0.022700
     10 H2         -1.2910    1.5520   -0.3290 hc        1 1JJ      0.047700
     11 H3         -2.1580    0.3870   -1.4330 hc        1 1JJ      0.047700
     12 H4         -3.6280   -0.3410    0.4650 hc        1 1JJ     -0.009967
     13 H5         -2.7930    0.8370    1.5530 hc        1 1JJ     -0.009967
     14 H6         -3.7630    1.4350    0.1460 hc        1 1JJ     -0.009967
     15 H8         -0.0470   -1.5570   -1.3400 ho        1 1JJ      0.427000
@<TRIPOS>BOND
     1    1    2 1   
     2    1    6 1   
     3    1    7 1   
     4    1    9 1   
     5    2    3 1   
     6    2   10 1   
     7    2   11 1   
     8    3   12 1   
     9    3   13 1   
    10    3   14 1   
    11    4    6 1   
    12    5    6 1   
    13    6    8 1   
    14    7   15 1   
@<TRIPOS>SUBSTRUCTURE
     1 1JJ         1 TEMP              0 ****  ****    0 ROOT
