@<TRIPOS>MOLECULE
1JJ
   15    13     1     0     0
SMALL
bcc


@<TRIPOS>ATOM
      1 C1         -0.1340   -0.1090   -0.5700 c3        1 1JJ     -0.180000
      2 C2          0.3630   -0.1030    0.8570 c3        1 1JJ     -0.121400
      3 C3          1.7160    0.5700    0.9170 c3        1 1JJ     -0.070100
      4 O1         -2.4170    1.2650   -0.0230 o         1 1JJ     -1.037100
      5 O2         -2.4880   -1.1820    0.2720 o         1 1JJ     -1.037100
      6 P1         -1.9480   -0.0580   -0.5800 p3        1 1JJ      1.851300
      7 O3          0.3050   -1.2810   -1.2150 oh        1 1JJ     -0.550800
      8 O4         -2.4490   -0.2140   -1.9960 os        1 1JJ     -1.262000
      9 H1          0.2160    0.6730   -1.0410 h1        1 1JJ     -0.002300
     10 H2          0.4420   -1.0240    1.1790 hc        1 1JJ      0.079200
     11 H3         -0.2700    0.3860    1.4210 hc        1 1JJ      0.079200
     12 H4          2.3560    0.0670    0.3720 hc        1 1JJ     -0.014967
     13 H5          1.6410    1.4850    0.5720 hc        1 1JJ     -0.014967
     14 H6          2.0270    0.5960    1.8460 hc        1 1JJ     -0.014967
     15 H8          0.6400   -1.0720   -2.0120 ho        1 1JJ      0.295000
@<TRIPOS>BOND
     1    1    2 1   
     2    1    6 1   
     3    1    7 1   
     4    1    9 1   
     5    2    3 1   
     6    2   10 1   
     7    2   11 1   
     8    3   12 1   
     9    3   13 1   
    10    3   14 1   
    11    4    6 1   
    12    5    6 1   
    13    7   15 1   
@<TRIPOS>SUBSTRUCTURE
     1 1JJ         1 TEMP              0 ****  ****    0 ROOT
