@<TRIPOS>MOLECULE
1JK
   29    30     1     0     0
SMALL
bcc


@<TRIPOS>ATOM
      1 OAC        -4.9320   -0.1340    0.9990 o         1 1JK     -0.837800
      2 CAJ         5.4190    0.8300   -0.1480 ca        1 1JK     -0.134000
      3 CAO         5.0700   -0.4230   -0.6490 ca        1 1JK     -0.140000
      4 CAP         4.4540    1.6210    0.4760 ca        1 1JK     -0.140000
      5 CAU         3.7610   -0.8880   -0.5300 ca        1 1JK     -0.108000
      6 CAV         3.1450    1.1630    0.5990 ca        1 1JK     -0.108000
      7 CBA         0.2460    0.2920    0.4280 cc        1 1JK     -0.393600
      8 CBC        -2.2740   -0.4730    0.6950 c3        1 1JK     -0.118700
      9 CBF        -2.6000    1.6530   -0.6200 c3        1 1JK     -0.072100
     10 NBG         1.0060   -1.8530    0.1770 nd        1 1JK     -0.385300
     11 OBK        -0.2980   -1.8930    0.3300 os        1 1JK     -0.124100
     12 CBN        -4.5430    0.1550   -0.1670 c         1 1JK      0.918600
     13 CBS        -0.8250   -0.5820    0.4870 cd        1 1JK      0.323000
     14 CBT         2.7860   -0.0970    0.0950 ca        1 1JK     -0.104500
     15 CBU         1.4150   -0.5610    0.2240 cc        1 1JK      0.351800
     16 CBV        -3.0110    0.2120   -0.4430 c3        1 1JK     -0.190700
     17 HAP         4.7260    2.6090    0.8730 ha        1 1JK      0.125000
     18 HAU         3.4940   -1.8790   -0.9290 ha        1 1JK      0.144500
     19 HAV         2.3860    1.7870    1.0940 ha        1 1JK      0.144500
     20 HBAA        0.2380    1.3740    0.4950 ha        1 1JK      0.171000
     21 HBC        -2.7190   -1.4970    0.8360 hc        1 1JK      0.083200
     22 HBCA       -2.4650    0.1000    1.6440 hc        1 1JK      0.083200
     23 HBF        -2.7360    2.2200    0.3330 hc        1 1JK      0.020367
     24 HBFA       -1.5300    1.7340   -0.9310 hc        1 1JK      0.020367
     25 HBV        -2.8230   -0.3460   -1.3980 hc        1 1JK      0.043700
     26 OXT        -5.3070    0.4060   -1.1390 o         1 1JK     -0.837800
     27 H2         -3.2420    2.1220   -1.4050 hc        1 1JK      0.020367
     28 HAJ         6.4520    1.1950   -0.2450 ha        1 1JK      0.122000
     29 HAO         5.8280   -1.0490   -1.1420 ha        1 1JK      0.125000
@<TRIPOS>BOND
     1    1   12 1   
     2    2    3 ar  
     3    2    4 ar  
     4    2   28 1   
     5    3    5 ar  
     6    3   29 1   
     7    4    6 ar  
     8    4   17 1   
     9    5   14 ar  
    10    5   18 1   
    11    6   14 ar  
    12    6   19 1   
    13    7   13 2   
    14    7   15 1   
    15    7   20 1   
    16    8   13 1   
    17    8   16 1   
    18    8   21 1   
    19    8   22 1   
    20    9   16 1   
    21    9   23 1   
    22    9   24 1   
    23    9   27 1   
    24   10   11 1   
    25   10   15 2   
    26   11   13 1   
    27   12   16 1   
    28   12   26 1   
    29   14   15 1   
    30   16   25 1   
@<TRIPOS>SUBSTRUCTURE
     1 1JK         1 TEMP              0 ****  ****    0 ROOT
