@<TRIPOS>MOLECULE
1JK
   29    28     1     0     0
SMALL
bcc


@<TRIPOS>ATOM
      1 OAC         0.4380   -2.4540    0.2520 o         1 1JK     -0.833300
      2 CAJ         3.7950    1.4420    9.7560 ce        1 1JK     -0.061700
      3 CAO         3.5450    1.0890    8.4790 cf        1 1JK     -0.075000
      4 CAP         4.8750    2.2270   10.1850 cg        1 1JK     -0.146300
      5 CAU         4.3760    1.4660    7.3610 cf        1 1JK     -0.136000
      6 CAV         5.7880    2.8970   10.5770 c1        1 1JK     -0.177500
      7 CBA         2.7850    0.4480    4.0470 cc        1 1JK     -0.342600
      8 CBC         0.6580   -0.4180    2.7440 c3        1 1JK     -0.198600
      9 CBF         3.2530    1.6590    0.0800 c3        1 1JK     -0.119800
     10 NBG         1.6310    0.7580    6.0030 nd        1 1JK     -0.382300
     11 OBK         0.7930    0.2980    5.1010 os        1 1JK     -0.140100
     12 CBN         0.7760   -1.2380    0.3620 c         1 1JK      0.822600
     13 CBS         1.4660    0.0870    3.8650 cd        1 1JK      0.305000
     14 CBT         4.0770    1.3590    6.0560 ce        1 1JK     -0.173800
     15 CBU         2.8610    0.8750    5.4460 cc        1 1JK      0.338100
     16 CBV         1.4740   -0.8160    1.6010 c1        1 1JK     -0.057100
     17 HAP         6.5950    3.4890   10.9220 ha        1 1JK      0.159500
     18 HAU         5.3670    1.8790    7.6360 ha        1 1JK      0.125000
     19 HAV         4.8340    1.6660    5.3090 ha        1 1JK      0.133000
     20 HBAA        3.5920    0.4170    3.3210 ha        1 1JK      0.191000
     21 HBC        -0.0860    0.3800    2.4480 hc        1 1JK      0.098700
     22 HBCA        0.0580   -1.3140    3.0870 hc        1 1JK      0.098700
     23 HBF         3.7070    1.5420    1.0880 hc        1 1JK      0.029200
     24 HBFA        2.8250    2.6800   -0.0190 hc        1 1JK      0.029200
     25 HBV         2.4430    0.8970   -0.0520 hc        1 1JK      0.029200
     26 OXT         0.5880   -0.3530   -0.5280 o         1 1JK     -0.833300
     27 H2          4.0330    1.5070   -0.6970 hc        1 1JK      0.029200
     28 HAJ         3.1150    1.1090   10.5620 ha        1 1JK      0.135000
     29 HAO         2.6590    0.4650    8.2670 ha        1 1JK      0.154000
@<TRIPOS>BOND
     1    1   12 1   
     2    2    3 2   
     3    2    4 1   
     4    2   28 1   
     5    3    5 1   
     6    3   29 1   
     7    4    6 3   
     8    5   14 2   
     9    5   18 1   
    10    6   17 1   
    11    7   13 2   
    12    7   15 1   
    13    7   20 1   
    14    8   13 1   
    15    8   16 1   
    16    8   21 1   
    17    8   22 1   
    18    9   23 1   
    19    9   24 1   
    20    9   25 1   
    21    9   27 1   
    22   10   11 1   
    23   10   15 2   
    24   11   13 1   
    25   12   16 3   
    26   12   26 1   
    27   14   15 1   
    28   14   19 1   
@<TRIPOS>SUBSTRUCTURE
     1 1JK         1 TEMP              0 ****  ****    0 ROOT
