@<TRIPOS>MOLECULE
1JK
   29    28     1     0     0
SMALL
bcc


@<TRIPOS>ATOM
      1 OAC         0.4570   -2.5900    0.3480 o         1 1JK     -0.833300
      2 CAJ         3.8430    1.5630    9.7310 ce        1 1JK     -0.061700
      3 CAO         3.5850    1.1810    8.4650 cf        1 1JK     -0.075000
      4 CAP         4.9120    2.3780   10.1310 cg        1 1JK     -0.146300
      5 CAU         4.3950    1.5530    7.3290 cf        1 1JK     -0.136000
      6 CAV         5.8170    3.0730   10.5000 c1        1 1JK     -0.177500
      7 CBA         2.7860    0.4370    4.0550 cc        1 1JK     -0.342600
      8 CBC         0.6630   -0.4990    2.7950 c3        1 1JK     -0.198600
      9 CBF         3.1800    1.5780    0.0590 c3        1 1JK     -0.119800
     10 NBG         1.6490    0.7630    6.0180 nd        1 1JK     -0.382300
     11 OBK         0.8110    0.2680    5.1360 os        1 1JK     -0.140100
     12 CBN         0.7710   -1.3650    0.4300 c         1 1JK      0.822600
     13 CBS         1.4730    0.0450    3.8960 cd        1 1JK      0.305000
     14 CBT         4.0820    1.4150    6.0300 ce        1 1JK     -0.173800
     15 CBU         2.8700    0.8940    5.4440 cc        1 1JK      0.338100
     16 CBV         1.4740   -0.9030    1.6510 c1        1 1JK     -0.057100
     17 HAP         6.6160    3.6870   10.8230 ha        1 1JK      0.159500
     18 HAU         5.3790    1.9920    7.5840 ha        1 1JK      0.125000
     19 HAV         4.8240    1.7220    5.2680 ha        1 1JK      0.133000
     20 HBAA        3.5850    0.4070    3.3200 ha        1 1JK      0.191000
     21 HBC        -0.1010    0.2780    2.4920 hc        1 1JK      0.098700
     22 HBCA        0.0860   -1.4000    3.1640 hc        1 1JK      0.098700
     23 HBF         2.3860    0.7970   -0.0470 hc        1 1JK      0.029200
     24 HBFA        3.6490    1.4910    1.0640 hc        1 1JK      0.029200
     25 HBV         2.7290    2.5870   -0.0540 hc        1 1JK      0.029200
     26 OXT         0.5530   -0.5030   -0.4760 o         1 1JK     -0.833300
     27 H2          3.9540    1.4280   -0.7240 hc        1 1JK      0.029200
     28 HAJ         3.1800    1.2320   10.5510 ha        1 1JK      0.135000
     29 HAO         2.7090    0.5360    8.2750 ha        1 1JK      0.154000
@<TRIPOS>BOND
     1    1   12 1   
     2    2    3 2   
     3    2    4 1   
     4    2   28 1   
     5    3    5 1   
     6    3   29 1   
     7    4    6 3   
     8    5   14 2   
     9    5   18 1   
    10    6   17 1   
    11    7   13 2   
    12    7   15 1   
    13    7   20 1   
    14    8   13 1   
    15    8   16 1   
    16    8   21 1   
    17    8   22 1   
    18    9   23 1   
    19    9   24 1   
    20    9   25 1   
    21    9   27 1   
    22   10   11 1   
    23   10   15 2   
    24   11   13 1   
    25   12   16 3   
    26   12   26 1   
    27   14   15 1   
    28   14   19 1   
@<TRIPOS>SUBSTRUCTURE
     1 1JK         1 TEMP              0 ****  ****    0 ROOT
