@<TRIPOS>MOLECULE
1JK
   29    25     1     0     0
SMALL
bcc


@<TRIPOS>ATOM
      1 OAC        -0.1830   -3.4740   -2.8390 o         1 1JK     -0.572500
      2 CAJ         1.7930    1.5710    4.8160 c1        1 1JK     -0.131250
      3 CAO         0.6370    0.8090    4.7650 c1        1 1JK     -0.131250
      4 CAP         2.4220    1.9560    3.6420 c1        1 1JK     -0.131250
      5 CAU         0.1100    0.4300    3.5400 c1        1 1JK     -0.131250
      6 CAV         1.8950    1.5780    2.4180 c1        1 1JK     -0.105000
      7 CBA        -0.6920    0.7120    0.0230 c1        1 1JK     -0.260000
      8 CBC        -1.3630   -0.2490   -2.2680 c3        1 1JK     -0.116000
      9 CBF        -1.1010   -0.7830   -4.6660 c3        1 1JK     -0.188000
     10 NBG         0.8420   -0.7470    0.6520 n2        1 1JK     -0.055000
     11 OBK         0.3760   -1.1140   -0.6050 os        1 1JK     -0.076000
     12 CBN        -1.0720   -2.5950   -2.9870 c1        1 1JK      0.335000
     13 CBS        -0.5630   -0.2140   -0.9830 c2        1 1JK      0.038000
     14 CBT         0.7390    0.8150    2.3660 c1        1 1JK      0.002000
     15 CBU         0.1850    0.3700    1.0310 c2        1 1JK     -0.081000
     16 CBV        -0.6790   -1.1610   -3.2630 c2        1 1JK     -0.177000
     17 HAJ         2.1640    1.8370    5.6790 ha        1 1JK      0.128750
     18 HAO         0.2030    0.5240    5.5910 ha        1 1JK      0.128750
     19 HAP         3.2300    2.5030    3.6780 ha        1 1JK      0.128750
     20 HAU        -0.7160   -0.0890    3.5030 ha        1 1JK      0.128750
     21 HAV         2.3330    1.8570    1.5910 ha        1 1JK      0.147000
     22 HBAA       -1.2970    1.4780    0.0240 DU        1 1JK      0.175000
     23 HBC        -2.2630   -0.5850   -2.0830 hc        1 1JK      0.128500
     24 HBCA       -1.4220    0.6540   -2.6400 hc        1 1JK      0.128500
     25 HBF        -0.7160    0.0870   -4.9000 hc        1 1JK      0.061667
     26 HBFA       -0.7820   -1.4620   -5.2970 hc        1 1JK      0.061667
     27 HBV         0.2890   -1.0670   -3.1790 ha        1 1JK      0.075000
     28 OXT        -2.2880   -2.9080   -2.8990 o         1 1JK     -0.572500
     29 H2         -2.0790   -0.7310   -4.7100 hc        1 1JK      0.061667
@<TRIPOS>BOND
     1    1   12 1   
     2    2    4 1   
     3    2   17 1   
     4    3    5 1   
     5    3   18 1   
     6    4   19 1   
     7    5   20 1   
     8    6   14 1   
     9    6   21 1   
    10    7   13 1   
    11    7   15 1   
    12    8   13 1   
    13    8   16 1   
    14    8   23 1   
    15    8   24 1   
    16    9   16 1   
    17    9   25 1   
    18    9   26 1   
    19    9   29 1   
    20   10   11 1   
    21   10   15 1   
    22   11   13 1   
    23   12   28 1   
    24   14   15 1   
    25   16   27 1   
@<TRIPOS>SUBSTRUCTURE
     1 1JK         1 TEMP              0 ****  ****    0 ROOT
