@<TRIPOS>MOLECULE
1JL
   44    46     1     0     0
SMALL
bcc


@<TRIPOS>ATOM
      1 C1         -0.4260    0.1640    0.3650 ca        1 1JL     -0.007000
      2 C2          0.9160    0.5070    0.4780 ca        1 1JL     -0.161000
      3 C3          1.5150    0.6060    1.7410 ca        1 1JL      0.000700
      4 C4          0.7430    0.3620    2.8840 ca        1 1JL     -0.161000
      5 C5         -0.5990    0.0200    2.7610 ca        1 1JL     -0.007000
      6 C6         -1.2060   -0.0900    1.5030 ca        1 1JL     -0.414500
      7 S7         -2.8320   -0.4610    1.3550 sy        1 1JL      1.521200
      8 O8         -3.3180    0.0460    0.1340 o         1 1JL     -0.642800
      9 O9         -3.5050   -0.0720    2.5260 o         1 1JL     -0.642800
     10 N10        -2.8140   -2.1020    1.1970 nh        1 1JL     -0.773500
     11 C11        -2.6740   -3.0970    2.1690 ca        1 1JL      0.256600
     12 C12        -2.3680   -4.4300    1.7910 ca        1 1JL     -0.264600
     13 C13        -2.2780   -5.4390    2.7580 ca        1 1JL     -0.023000
     14 C14        -2.4370   -5.1580    4.1040 ca        1 1JL     -0.189000
     15 C15        -2.7160   -3.8300    4.4840 ca        1 1JL      0.186100
     16 C16        -2.8440   -2.8080    3.5430 ca        1 1JL     -0.270000
     17 C17        -2.1780   -4.8100    0.3810 c         1 1JL      0.642700
     18 O18        -2.7550   -5.6970   -0.2460 o         1 1JL     -0.475000
     19 O19        -1.2590   -4.1240   -0.3730 oh        1 1JL     -0.592100
     20 O20        -2.8150   -3.6420    5.8510 os        1 1JL     -0.246200
     21 C21        -3.3250   -2.4220    6.3030 ca        1 1JL      0.076100
     22 C22        -2.5450   -1.7270    7.2370 ca        1 1JL     -0.135500
     23 C23        -3.0720   -0.5800    7.8270 ca        1 1JL     -0.112000
     24 C24        -4.3470   -0.1310    7.4820 ca        1 1JL     -0.130000
     25 C25        -5.1110   -0.8310    6.5480 ca        1 1JL     -0.112000
     26 C26        -4.6080   -1.9860    5.9510 ca        1 1JL     -0.135500
     27 C27         2.9490    0.9550    1.8630 c3        1 1JL     -0.071800
     28 H1         -0.8960    0.1090   -0.6340 ha        1 1JL      0.155500
     29 H2          1.5100    0.7070   -0.4270 ha        1 1JL      0.145500
     30 H3          1.1990    0.4470    3.8820 ha        1 1JL      0.145500
     31 H4         -1.2060   -0.1560    3.6680 ha        1 1JL      0.155500
     32 H5         -0.7130   -3.5670    0.2000 ho        1 1JL      0.430000
     33 H6         -2.0800   -6.4740    2.4300 ha        1 1JL      0.156000
     34 H7         -2.3570   -5.9410    4.8710 ha        1 1JL      0.162000
     35 H8         -3.1040   -1.7900    3.8830 ha        1 1JL      0.185000
     36 H10        -1.5460   -2.0990    7.5030 ha        1 1JL      0.149000
     37 H11        -2.4740   -0.0260    8.5660 ha        1 1JL      0.139500
     38 H12        -4.7520    0.7800    7.9480 ha        1 1JL      0.138000
     39 H13        -6.1140   -0.4710    6.2740 ha        1 1JL      0.139500
     40 H14        -5.1990   -2.5450    5.2110 ha        1 1JL      0.149000
     41 H15         3.2680    1.6340    1.0350 hc        1 1JL      0.056033
     42 H16         3.5690    0.0240    1.8110 hc        1 1JL      0.056033
     43 H17         3.1580    1.4600    2.8380 hc        1 1JL      0.056033
     44 H102       -2.9320   -2.4720    0.2740 hn        1 1JL      0.462800
@<TRIPOS>BOND
     1    1    2 ar  
     2    1    6 ar  
     3    1   28 1   
     4    2    3 ar  
     5    2   29 1   
     6    3    4 ar  
     7    3   27 1   
     8    4    5 ar  
     9    4   30 1   
    10    5    6 ar  
    11    5   31 1   
    12    6    7 1   
    13    7    8 2   
    14    7    9 2   
    15    7   10 1   
    16   10   11 1   
    17   10   44 1   
    18   11   12 ar  
    19   11   16 ar  
    20   12   13 ar  
    21   12   17 1   
    22   13   14 ar  
    23   13   33 1   
    24   14   15 ar  
    25   14   34 1   
    26   15   16 ar  
    27   15   20 1   
    28   16   35 1   
    29   17   18 2   
    30   17   19 1   
    31   19   32 1   
    32   20   21 1   
    33   21   22 ar  
    34   21   26 ar  
    35   22   23 ar  
    36   22   36 1   
    37   23   24 ar  
    38   23   37 1   
    39   24   25 ar  
    40   24   38 1   
    41   25   26 ar  
    42   25   39 1   
    43   26   40 1   
    44   27   41 1   
    45   27   42 1   
    46   27   43 1   
@<TRIPOS>SUBSTRUCTURE
     1 1JL         1 TEMP              0 ****  ****    0 ROOT
