@<TRIPOS>MOLECULE
1JL
   43    34     1     0     0
SMALL
bcc


@<TRIPOS>ATOM
      1 C1         -0.4820    2.5170   -3.0530 c1        1 1JL     -0.024000
      2 C2         -0.6510    3.0870   -4.3060 c1        1 1JL     -0.174000
      3 C3          0.4330    3.2170   -5.1600 c1        1 1JL     -0.024000
      4 C4          1.6870    2.7790   -4.7610 c2        1 1JL     -0.158000
      5 C5          1.8560    2.2090   -3.5090 c1        1 1JL     -0.001000
      6 C6          0.7710    2.0780   -2.6550 c1        1 1JL     -0.811000
      7 S7          0.9910    1.3650   -1.0440 s4        1 1JL      2.065800
      8 O8          2.3800    1.1320   -0.7620 o         1 1JL     -0.561400
      9 O9          0.6490    2.2990   -0.0080 o         1 1JL     -0.561400
     10 N10         0.1150   -0.0190   -0.9110 n2        1 1JL     -0.832000
     11 C11         0.3830   -0.9300    0.1440 c1        1 1JL      0.116000
     12 C12         0.5010   -2.2850   -0.1250 c1        1 1JL     -0.137000
     13 C13         0.6810   -3.1850    0.9140 c1        1 1JL     -0.079000
     14 C14         0.7440   -2.7300    2.2220 c1        1 1JL     -0.171000
     15 C15         0.6260   -1.3750    2.4910 c1        1 1JL      0.040000
     16 C16         0.4460   -0.4750    1.4520 c2        1 1JL     -0.205000
     17 C17         0.4230   -2.7830   -1.5540 c1        1 1JL      0.367000
     18 O18         1.4690   -3.1580   -2.1480 o         1 1JL     -0.566000
     19 O19        -0.6920   -2.8620   -2.1330 o         1 1JL     -0.566000
     20 O20         0.7620   -0.9060    3.8120 o         1 1JL     -0.166000
     21 C21        -0.3640   -1.2910    4.5650 c1        1 1JL      0.093000
     22 C22        -0.5590   -2.6250    4.8870 c1        1 1JL     -0.137500
     23 C23        -1.6490   -3.0000    5.6560 c1        1 1JL     -0.137500
     24 C24        -2.5440   -2.0410    6.1040 c1        1 1JL     -0.137500
     25 C25        -2.3490   -0.7070    5.7820 c1        1 1JL     -0.137500
     26 C26        -1.2590   -0.3320    5.0130 c1        1 1JL     -0.185000
     27 C27         0.2430    3.8130   -6.5390 c2        1 1JL     -0.183000
     28 H1         -1.2460    2.4250   -2.4520 ha        1 1JL      0.152000
     29 H2         -1.5340    3.3950   -4.5870 ha        1 1JL      0.124000
     30 H3          2.4510    2.8710   -5.3630 ha        1 1JL      0.140000
     31 H4          2.7400    1.9000   -3.2270 ha        1 1JL      0.206000
     32 H5         -0.5250   -0.2150   -1.5310 hn        1 1JL      0.297000
     33 H6          0.7480   -4.1400    0.7250 ha        1 1JL      0.166000
     34 H7          0.9000   -3.3590    2.9490 ha        1 1JL      0.132000
     35 H8          0.3740    0.4800    1.6410 ha        1 1JL      0.147000
     36 H10         0.0700   -3.3000    4.5720 ha        1 1JL      0.127250
     37 H11        -1.7870   -3.9390    5.8830 ha        1 1JL      0.127250
     38 H12        -3.3120   -2.3050    6.6460 ha        1 1JL      0.127250
     39 H13        -2.9780   -0.0330    6.0980 ha        1 1JL      0.127250
     40 H14        -1.1210    0.6070    4.7860 ha        1 1JL      0.161000
     41 H15        -0.0570    3.1140   -7.1580 ha        1 1JL      0.081333
     42 H16         1.0930    4.1850   -6.8550 ha        1 1JL      0.081333
     43 H17        -0.4300    4.5240   -6.4980 ha        1 1JL      0.081333
@<TRIPOS>BOND
     1    1    6 1   
     2    1   28 1   
     3    2    3 1   
     4    2   29 1   
     5    3    4 1   
     6    4    5 1   
     7    4   30 1   
     8    5   31 1   
     9    6    7 1   
    10    7    8 1   
    11    7    9 1   
    12   10   11 1   
    13   10   32 1   
    14   11   16 1   
    15   12   13 1   
    16   13   33 1   
    17   14   15 1   
    18   14   34 1   
    19   15   16 1   
    20   16   35 1   
    21   17   18 1   
    22   17   19 1   
    23   20   21 1   
    24   21   26 1   
    25   22   23 1   
    26   22   36 1   
    27   23   37 1   
    28   24   25 1   
    29   24   38 1   
    30   25   39 1   
    31   26   40 1   
    32   27   41 1   
    33   27   42 1   
    34   27   43 1   
@<TRIPOS>SUBSTRUCTURE
     1 1JL         1 TEMP              0 ****  ****    0 ROOT
