@<TRIPOS>MOLECULE
1JL
   43    45     1     0     0
SMALL
bcc


@<TRIPOS>ATOM
      1 C1          3.3880   -0.3110   -0.0290 ca        1 1JL     -0.013000
      2 C2          4.3300   -0.7300   -0.9680 ca        1 1JL     -0.166500
      3 C3          4.4190   -2.0760   -1.3320 ca        1 1JL     -0.032300
      4 C4          3.5470   -3.0010   -0.7420 ca        1 1JL     -0.166500
      5 C5          2.6110   -2.5780    0.1920 ca        1 1JL     -0.013000
      6 C6          2.5210   -1.2310    0.5710 ca        1 1JL     -0.376500
      7 S7          1.3990   -0.7870    1.7610 sy        1 1JL      1.495200
      8 O8          0.3920   -1.7870    1.8030 o         1 1JL     -0.669800
      9 O9          2.0840   -0.6190    2.9910 o         1 1JL     -0.669800
     10 N10         0.8260    0.6420    1.2840 nh        1 1JL     -0.766500
     11 C11        -0.0250    0.9130    0.2000 ca        1 1JL      0.183600
     12 C12         0.2020    2.0360   -0.6380 ca        1 1JL     -0.158600
     13 C13        -0.6930    2.3010   -1.6780 ca        1 1JL     -0.083000
     14 C14        -1.7960    1.4900   -1.9250 ca        1 1JL     -0.169000
     15 C15        -1.9990    0.3790   -1.1000 ca        1 1JL      0.077100
     16 C16        -1.1420    0.0800   -0.0410 ca        1 1JL     -0.202000
     17 C17         1.3780    2.9930   -0.4790 c         1 1JL      0.914200
     18 O18         1.3430    4.0700   -1.1310 o         1 1JL     -0.827800
     19 O19         2.3460    2.6770    0.2810 o         1 1JL     -0.827800
     20 O20        -3.0300   -0.5070   -1.4420 os        1 1JL     -0.257200
     21 C21        -4.1310   -0.5250   -0.6030 ca        1 1JL      0.139100
     22 C22        -5.1300   -1.4500   -0.9620 ca        1 1JL     -0.175000
     23 C23        -6.2820   -1.5320   -0.1880 ca        1 1JL     -0.104500
     24 C24        -6.4480   -0.7110    0.9290 ca        1 1JL     -0.177000
     25 C25        -5.4520    0.1990    1.2770 ca        1 1JL     -0.104500
     26 C26        -4.2880    0.3010    0.5170 ca        1 1JL     -0.175000
     27 C27         5.4060   -2.5180   -2.3440 c3        1 1JL     -0.057800
     28 H1          3.3230    0.7740    0.2150 ha        1 1JL      0.178000
     29 H2          4.9990    0.0120   -1.4300 ha        1 1JL      0.131500
     30 H3          3.6020   -4.0620   -1.0250 ha        1 1JL      0.131500
     31 H4          1.9150   -3.3080    0.6420 ha        1 1JL      0.178000
     32 H5          1.3370    1.4760    1.5530 hn        1 1JL      0.502800
     33 H6         -0.4980    3.1890   -2.3060 ha        1 1JL      0.165000
     34 H7         -2.4890    1.7010   -2.7500 ha        1 1JL      0.132000
     35 H8         -1.3410   -0.8070    0.5850 ha        1 1JL      0.169000
     36 H10        -4.9830   -2.0910   -1.8410 ha        1 1JL      0.151000
     37 H11        -7.0670   -2.2530   -0.4600 ha        1 1JL      0.123500
     38 H12        -7.3620   -0.7850    1.5340 ha        1 1JL      0.121000
     39 H13        -5.5790    0.8440    2.1590 ha        1 1JL      0.123500
     40 H14        -3.4950    1.0130    0.7930 ha        1 1JL      0.151000
     41 H15         5.7240   -3.5740   -2.1600 hc        1 1JL      0.041367
     42 H16         4.9510   -2.4620   -3.3650 hc        1 1JL      0.041367
     43 H17         6.3140   -1.8660   -2.3290 hc        1 1JL      0.041367
@<TRIPOS>BOND
     1    1    2 ar  
     2    1    6 ar  
     3    1   28 1   
     4    2    3 ar  
     5    2   29 1   
     6    3    4 ar  
     7    3   27 1   
     8    4    5 ar  
     9    4   30 1   
    10    5    6 ar  
    11    5   31 1   
    12    6    7 1   
    13    7    8 2   
    14    7    9 2   
    15    7   10 1   
    16   10   11 1   
    17   10   32 1   
    18   11   12 ar  
    19   11   16 ar  
    20   12   13 ar  
    21   12   17 1   
    22   13   14 ar  
    23   13   33 1   
    24   14   15 ar  
    25   14   34 1   
    26   15   16 ar  
    27   15   20 1   
    28   16   35 1   
    29   17   18 1   
    30   17   19 1   
    31   20   21 1   
    32   21   22 ar  
    33   21   26 ar  
    34   22   23 ar  
    35   22   36 1   
    36   23   24 ar  
    37   23   37 1   
    38   24   25 ar  
    39   24   38 1   
    40   25   26 ar  
    41   25   39 1   
    42   26   40 1   
    43   27   41 1   
    44   27   42 1   
    45   27   43 1   
@<TRIPOS>SUBSTRUCTURE
     1 1JL         1 TEMP              0 ****  ****    0 ROOT
