@<TRIPOS>MOLECULE
1JL
   43    45     1     0     0
SMALL
bcc


@<TRIPOS>ATOM
      1 C1          0.0520   -0.7320    0.3490 ca        1 1JL     -0.013000
      2 C2          1.4300   -0.7760    0.1300 ca        1 1JL     -0.166500
      3 C3          2.2880    0.0680    0.8400 ca        1 1JL     -0.032300
      4 C4          1.7470    0.9580    1.7780 ca        1 1JL     -0.166500
      5 C5          0.3750    0.9960    1.9920 ca        1 1JL     -0.013000
      6 C6         -0.4940    0.1610    1.2760 ca        1 1JL     -0.376500
      7 S7         -2.1630    0.2970    1.5380 sy        1 1JL      1.495200
      8 O8         -2.3550    0.8900    2.8140 o         1 1JL     -0.669800
      9 O9         -2.7300    1.0440    0.4750 o         1 1JL     -0.669800
     10 N10        -2.7230   -1.2120    1.4720 nu        1 1JL     -0.766500
     11 C11        -2.5330   -2.2460    2.4040 ca        1 1JL      0.183600
     12 C12        -2.2570   -3.5700    1.9730 ca        1 1JL     -0.158600
     13 C13        -2.1210   -4.5820    2.9280 ca        1 1JL     -0.083000
     14 C14        -2.2360   -4.3280    4.2910 ca        1 1JL     -0.169000
     15 C15        -2.4930   -3.0160    4.7010 ca        1 1JL      0.077100
     16 C16        -2.6500   -1.9740    3.7870 ca        1 1JL     -0.202000
     17 C17        -2.0980   -3.9740    0.5120 c         1 1JL      0.914200
     18 O18        -2.0870   -5.2050    0.2470 o         1 1JL     -0.827800
     19 O19        -1.9710   -3.0760   -0.3770 o         1 1JL     -0.827800
     20 O20        -2.4670   -2.7470    6.0760 os        1 1JL     -0.257200
     21 C21        -3.6830   -2.4540    6.6700 ca        1 1JL      0.139100
     22 C22        -3.6120   -2.1580    8.0440 ca        1 1JL     -0.175000
     23 C23        -4.7840   -1.8660    8.7330 ca        1 1JL     -0.104500
     24 C24        -6.0140   -1.8660    8.0740 ca        1 1JL     -0.177000
     25 C25        -6.0740   -2.1590    6.7120 ca        1 1JL     -0.104500
     26 C26        -4.9130   -2.4550    6.0000 ca        1 1JL     -0.175000
     27 C27         3.7510    0.0090    0.6220 c3        1 1JL     -0.057800
     28 H1         -0.5990   -1.4410   -0.2110 ha        1 1JL      0.178000
     29 H2          1.8380   -1.4890   -0.6020 ha        1 1JL      0.131500
     30 H3          2.4120    1.6220    2.3480 ha        1 1JL      0.131500
     31 H4         -0.0440    1.6880    2.7430 ha        1 1JL      0.178000
     32 H5         -2.9670   -1.5920    0.5630 hn        1 1JL      0.502800
     33 H6         -1.9210   -5.6050    2.5620 ha        1 1JL      0.165000
     34 H7         -2.1190   -5.1270    5.0340 ha        1 1JL      0.132000
     35 H8         -2.8520   -0.9550    4.1550 ha        1 1JL      0.169000
     36 H10        -2.6360   -2.1580    8.5480 ha        1 1JL      0.151000
     37 H11        -4.7370   -1.6310    9.8060 ha        1 1JL      0.123500
     38 H12        -6.9340   -1.6330    8.6270 ha        1 1JL      0.121000
     39 H13        -7.0420   -2.1560    6.1900 ha        1 1JL      0.123500
     40 H14        -4.9550   -2.6790    4.9230 ha        1 1JL      0.151000
     41 H15         4.2270    1.0010    0.8180 hc        1 1JL      0.041367
     42 H16         4.2070   -0.7420    1.3170 hc        1 1JL      0.041367
     43 H17         3.9870   -0.2980   -0.4270 hc        1 1JL      0.041367
@<TRIPOS>BOND
     1    1    2 ar  
     2    1    6 ar  
     3    1   28 1   
     4    2    3 ar  
     5    2   29 1   
     6    3    4 ar  
     7    3   27 1   
     8    4    5 ar  
     9    4   30 1   
    10    5    6 ar  
    11    5   31 1   
    12    6    7 1   
    13    7    8 2   
    14    7    9 2   
    15    7   10 1   
    16   10   11 1   
    17   10   32 1   
    18   11   12 ar  
    19   11   16 ar  
    20   12   13 ar  
    21   12   17 1   
    22   13   14 ar  
    23   13   33 1   
    24   14   15 ar  
    25   14   34 1   
    26   15   16 ar  
    27   15   20 1   
    28   16   35 1   
    29   17   18 1   
    30   17   19 1   
    31   20   21 1   
    32   21   22 ar  
    33   21   26 ar  
    34   22   23 ar  
    35   22   36 1   
    36   23   24 ar  
    37   23   37 1   
    38   24   25 ar  
    39   24   38 1   
    40   25   26 ar  
    41   25   39 1   
    42   26   40 1   
    43   27   41 1   
    44   27   42 1   
    45   27   43 1   
@<TRIPOS>SUBSTRUCTURE
     1 1JL         1 TEMP              0 ****  ****    0 ROOT
