@<TRIPOS>MOLECULE
1JL
   43    45     1     0     0
SMALL
bcc


@<TRIPOS>ATOM
      1 C1          0.0500   -0.7390    0.3450 ca        1 1JL     -0.013000
      2 C2          1.4280   -0.7640    0.1320 ca        1 1JL     -0.166500
      3 C3          2.2710    0.1010    0.8350 ca        1 1JL     -0.032300
      4 C4          1.7130    0.9930    1.7610 ca        1 1JL     -0.166500
      5 C5          0.3400    1.0130    1.9690 ca        1 1JL     -0.013000
      6 C6         -0.5140    0.1560    1.2600 ca        1 1JL     -0.376500
      7 S7         -2.1850    0.2700    1.5150 sy        1 1JL      1.495200
      8 O8         -2.3910    0.8750    2.7830 o         1 1JL     -0.669800
      9 O9         -2.7600    0.9960    0.4410 o         1 1JL     -0.669800
     10 N10        -2.7220   -1.2480    1.4640 nh        1 1JL     -0.766500
     11 C11        -2.5190   -2.2680    2.4090 ca        1 1JL      0.183600
     12 C12        -2.2210   -3.5930    1.9950 ca        1 1JL     -0.158600
     13 C13        -2.0730   -4.5910    2.9620 ca        1 1JL     -0.083000
     14 C14        -2.1970   -4.3230    4.3210 ca        1 1JL     -0.169000
     15 C15        -2.4760   -3.0110    4.7150 ca        1 1JL      0.077100
     16 C16        -2.6470   -1.9820    3.7880 ca        1 1JL     -0.202000
     17 C17        -2.0500   -4.0110    0.5390 c         1 1JL      0.914200
     18 O18        -2.0170   -5.2450    0.2890 o         1 1JL     -0.827800
     19 O19        -1.9340   -3.1210   -0.3600 o         1 1JL     -0.827800
     20 O20        -2.4610   -2.7250    6.0870 os        1 1JL     -0.257200
     21 C21        -3.6840   -2.4460    6.6730 ca        1 1JL      0.139100
     22 C22        -3.6230   -2.1320    8.0430 ca        1 1JL     -0.175000
     23 C23        -4.8030   -1.8510    8.7240 ca        1 1JL     -0.104500
     24 C24        -6.0300   -1.8790    8.0600 ca        1 1JL     -0.177000
     25 C25        -6.0790   -2.1880    6.7010 ca        1 1JL     -0.104500
     26 C26        -4.9110   -2.4740    5.9970 ca        1 1JL     -0.175000
     27 C27         3.7360    0.0620    0.6230 c3        1 1JL     -0.057800
     28 H1         -0.5890   -1.4630   -0.2090 ha        1 1JL      0.178000
     29 H2          1.8500   -1.4780   -0.5910 ha        1 1JL      0.131500
     30 H3          2.3660    1.6740    2.3260 ha        1 1JL      0.131500
     31 H4         -0.0930    1.7070    2.7110 ha        1 1JL      0.178000
     32 H5         -2.9560   -1.6430    0.5590 hn        1 1JL      0.502800
     33 H6         -1.8550   -5.6150    2.6090 ha        1 1JL      0.165000
     34 H7         -2.0700   -5.1120    5.0740 ha        1 1JL      0.132000
     35 H8         -2.8660   -0.9620    4.1440 ha        1 1JL      0.169000
     36 H10        -2.6500   -2.1110    8.5510 ha        1 1JL      0.151000
     37 H11        -4.7640   -1.6030    9.7950 ha        1 1JL      0.123500
     38 H12        -6.9560   -1.6540    8.6070 ha        1 1JL      0.121000
     39 H13        -7.0450   -2.2070    6.1750 ha        1 1JL      0.123500
     40 H14        -4.9440   -2.7110    4.9230 ha        1 1JL      0.151000
     41 H15         3.9800   -0.2430   -0.4250 hc        1 1JL      0.041367
     42 H16         4.1980    1.0600    0.8190 hc        1 1JL      0.041367
     43 H17         4.1990   -0.6820    1.3190 hc        1 1JL      0.041367
@<TRIPOS>BOND
     1    1    2 ar  
     2    1    6 ar  
     3    1   28 1   
     4    2    3 ar  
     5    2   29 1   
     6    3    4 ar  
     7    3   27 1   
     8    4    5 ar  
     9    4   30 1   
    10    5    6 ar  
    11    5   31 1   
    12    6    7 1   
    13    7    8 2   
    14    7    9 2   
    15    7   10 1   
    16   10   11 1   
    17   10   32 1   
    18   11   12 ar  
    19   11   16 ar  
    20   12   13 ar  
    21   12   17 1   
    22   13   14 ar  
    23   13   33 1   
    24   14   15 ar  
    25   14   34 1   
    26   15   16 ar  
    27   15   20 1   
    28   16   35 1   
    29   17   18 1   
    30   17   19 1   
    31   20   21 1   
    32   21   22 ar  
    33   21   26 ar  
    34   22   23 ar  
    35   22   36 1   
    36   23   24 ar  
    37   23   37 1   
    38   24   25 ar  
    39   24   38 1   
    40   25   26 ar  
    41   25   39 1   
    42   26   40 1   
    43   27   41 1   
    44   27   42 1   
    45   27   43 1   
@<TRIPOS>SUBSTRUCTURE
     1 1JL         1 TEMP              0 ****  ****    0 ROOT
