@<TRIPOS>MOLECULE
1JM
   27    27     1     0     0
SMALL
bcc


@<TRIPOS>ATOM
      1 CAA        -2.6920    2.2370    1.2240 c3        1 1JM      0.149100
      2 N          -2.1430    1.5020    0.1190 n3        1 1JM     -0.803200
      3 CA         -2.3110    0.0550    0.2400 c3        1 1JM      0.061500
      4 C          -3.8010   -0.3810    0.0490 c         1 1JM      0.924600
      5 O          -4.1260   -1.0210   -0.9890 o         1 1JM     -0.855300
      6 CB         -1.4210   -0.7100   -0.7500 c3        1 1JM     -0.028100
      7 CG          0.0370   -0.5270   -0.5080 ca        1 1JM     -0.086300
      8 CD1         0.7210   -1.3490    0.3980 ca        1 1JM     -0.166000
      9 CE1         2.0930   -1.2050    0.5940 ca        1 1JM     -0.115500
     10 CZ          2.8170   -0.2360   -0.1080 ca        1 1JM     -0.139600
     11 CAL         4.3120   -0.0940    0.0910 c         1 1JM      0.906200
     12 OAB         4.9310    0.7960   -0.5650 o         1 1JM     -0.852800
     13 OAD         4.8940   -0.8730    0.9040 o         1 1JM     -0.852800
     14 CE2         2.1340    0.5930   -1.0030 ca        1 1JM     -0.115500
     15 CD2         0.7620    0.4510   -1.2010 ca        1 1JM     -0.166000
     16 H1         -3.7490    1.8970    1.4000 h1        1 1JM      0.018033
     17 H2         -2.1200    2.1130    2.1880 h1        1 1JM      0.018033
     18 H3         -2.6840    3.3290    0.9630 h1        1 1JM      0.018033
     19 H4         -1.1620    1.7060    0.0240 hn        1 1JM      0.336800
     20 H6         -2.0220   -0.2860    1.2840 h1        1 1JM      0.003700
     21 H10        -1.6910   -1.7960   -0.6560 hc        1 1JM      0.054200
     22 H11        -1.6870   -0.3980   -1.7940 hc        1 1JM      0.054200
     23 H12         0.1620   -2.1140    0.9550 ha        1 1JM      0.111000
     24 H13         2.6350   -1.8510    1.3010 ha        1 1JM      0.135000
     25 H15         2.7090    1.3580   -1.5480 ha        1 1JM      0.135000
     26 H16         0.2370    1.1080   -1.9100 ha        1 1JM      0.111000
     27 O1         -4.6110   -0.1070    0.9840 o         1 1JM     -0.855300
@<TRIPOS>BOND
     1    1    2 1   
     2    1   16 1   
     3    1   17 1   
     4    1   18 1   
     5    2    3 1   
     6    2   19 1   
     7    3    4 1   
     8    3    6 1   
     9    3   20 1   
    10    4    5 1   
    11    4   27 1   
    12    6    7 1   
    13    6   21 1   
    14    6   22 1   
    15    7    8 ar  
    16    7   15 ar  
    17    8    9 ar  
    18    8   23 1   
    19    9   10 ar  
    20    9   24 1   
    21   10   11 1   
    22   10   14 ar  
    23   11   12 1   
    24   11   13 1   
    25   14   15 ar  
    26   14   25 1   
    27   15   26 1   
@<TRIPOS>SUBSTRUCTURE
     1 1JM         1 TEMP              0 ****  ****    0 ROOT
