@<TRIPOS>MOLECULE
1JM
   27    24     1     0     0
SMALL
bcc


@<TRIPOS>ATOM
      1 CAA        -2.7090   -2.1280   -1.8940 c3        1 1JM      0.159100
      2 N          -1.2340   -2.0980   -1.7730 n3        1 1JM     -0.794200
      3 CA         -0.8780   -1.4660   -0.5790 c3        1 1JM      0.043500
      4 C          -1.2380   -2.4110    0.6570 c         1 1JM      0.884600
      5 O          -1.9860   -1.9810    1.5850 o         1 1JM     -0.856300
      6 CB          0.5800   -1.1800   -0.5850 c3        1 1JM     -0.047300
      7 CG          0.8260    0.1890    0.0190 c1        1 1JM     -0.037100
      8 CD1         0.9620    1.2870   -0.8020 c1        1 1JM     -0.089500
      9 CE1         1.3180    2.5570   -0.2420 c1        1 1JM     -0.061500
     10 CZ          1.5240    2.6770    1.1270 cg        1 1JM     -0.087200
     11 CAL         1.8260    4.0560    1.7370 c         1 1JM      0.854800
     12 OAB         2.9930    4.4330    1.8440 o         1 1JM     -0.855300
     13 OAD         0.8940    4.8580    1.9470 o         1 1JM     -0.855300
     14 CE2         1.3870    1.5640    1.9570 c1        1 1JM     -0.085000
     15 CD2         1.0380    0.3190    1.4100 c1        1 1JM     -0.085000
     16 H1         -2.9470   -2.4580   -2.7520 h1        1 1JM      0.009367
     17 H2         -3.0730   -1.2020   -1.7800 h1        1 1JM      0.009367
     18 H3         -3.0780   -2.7060   -1.2100 h1        1 1JM      0.009367
     19 H4         -0.9170   -2.9310   -1.7770 hn        1 1JM      0.350800
     20 H6         -1.4040   -0.5690   -0.4940 h1        1 1JM      0.049700
     21 H10         1.0700   -1.8870   -0.0380 hc        1 1JM      0.040700
     22 H11         0.9280   -1.1940   -1.5590 hc        1 1JM      0.040700
     23 H12         0.8700    1.1860   -1.7670 ha        1 1JM      0.056500
     24 H13         1.5520    3.3330   -0.8560 ha        1 1JM      0.075500
     25 H15         1.4390    1.6700    2.9120 ha        1 1JM      0.063500
     26 H16         1.0650   -0.3230    2.2230 ha        1 1JM      0.063500
     27 O1         -0.8100   -3.5940    0.6900 o         1 1JM     -0.856300
@<TRIPOS>BOND
     1    1    2 1   
     2    1   16 1   
     3    1   17 1   
     4    1   18 1   
     5    2    3 1   
     6    2   19 1   
     7    3    4 1   
     8    3    6 1   
     9    3   20 1   
    10    4    5 1   
    11    4   27 1   
    12    6    7 1   
    13    6   21 1   
    14    6   22 1   
    15    7    8 3   
    16    8   23 1   
    17    9   10 3   
    18    9   24 1   
    19   10   11 1   
    20   11   12 1   
    21   11   13 1   
    22   14   15 3   
    23   14   25 1   
    24   15   26 1   
@<TRIPOS>SUBSTRUCTURE
     1 1JM         1 TEMP              0 ****  ****    0 ROOT
