@<TRIPOS>MOLECULE
1JN
   42    45     1     0     0
SMALL
bcc


@<TRIPOS>ATOM
      1 C4         -0.2130   -0.6020    0.3100 ca        1 1JN     -0.199000
      2 C5         -0.0300    0.5960    2.4370 ca        1 1JN     -0.099300
      3 C6         -0.6800    1.3130    3.5550 c3        1 1JN     -0.042800
      4 C7          1.3500    0.4080    2.3970 ca        1 1JN     -0.090000
      5 C8          1.1700   -0.7690    0.2940 ca        1 1JN     -0.079000
      6 C10         4.4930   -3.8160    0.3690 ca        1 1JN      0.063400
      7 C13         4.1810   -2.4510   -0.0250 ca        1 1JN     -0.075200
      8 C15         4.9880   -4.2350   -4.3270 c3        1 1JN     -0.078400
      9 C17         4.5950   -2.8560   -3.7810 c3        1 1JN     -0.036100
     10 C20         4.1910   -2.0490   -1.3710 ca        1 1JN     -0.128000
     11 C22         3.4510   -0.4130    1.2980 c3        1 1JN      0.101600
     12 C1         -2.9840   -0.2380    0.4540 c3        1 1JN      0.111700
     13 O2         -2.1690    0.3050    1.4870 os        1 1JN     -0.324900
     14 C3         -0.8110    0.0790    1.3760 ca        1 1JN      0.130100
     15 C9          1.9560   -0.2670    1.3330 ca        1 1JN     -0.156300
     16 N11         4.4070   -3.9260    1.7730 nc        1 1JN     -0.566100
     17 C12         4.0620   -2.7060    2.2060 cd        1 1JN      0.421700
     18 C14         4.8180   -4.7740   -0.6080 ca        1 1JN     -0.057000
     19 C16         5.1300   -5.1830   -3.1290 c3        1 1JN     -0.032100
     20 C18         4.8220   -4.3580   -1.9230 ca        1 1JN     -0.108300
     21 C19         4.5130   -3.0190   -2.2990 ca        1 1JN     -0.068300
     22 N21         3.9400   -1.7530    1.1690 na        1 1JN     -0.169300
     23 H1         -0.8170   -1.0070   -0.5130 ha        1 1JN      0.141000
     24 H2         -1.2230    2.2120    3.1680 hc        1 1JN      0.048033
     25 H3          0.0660    1.6430    4.3170 hc        1 1JN      0.048033
     26 H4         -1.4330    0.6480    4.0500 hc        1 1JN      0.048033
     27 H5          1.9680    0.8030    3.2200 ha        1 1JN      0.133000
     28 H6          1.6460   -1.3080   -0.5420 ha        1 1JN      0.144000
     29 H7          4.2070   -4.6120   -5.0310 hc        1 1JN      0.044200
     30 H8          5.9510   -4.1700   -4.8890 hc        1 1JN      0.044200
     31 H9          5.3580   -2.0840   -4.0530 hc        1 1JN      0.052700
     32 H10         3.6110   -2.5250   -4.1990 hc        1 1JN      0.052700
     33 H11         3.9570   -1.0180   -1.6640 ha        1 1JN      0.136000
     34 H12         3.8920    0.0200    2.2440 h1        1 1JN      0.064700
     35 H13         3.8450    0.1810    0.4210 h1        1 1JN      0.064700
     36 H14        -4.0210    0.0490    0.7650 h1        1 1JN      0.046033
     37 H15        -2.7280    0.2210   -0.5310 h1        1 1JN      0.046033
     38 H16        -2.8790   -1.3490    0.4100 h1        1 1JN      0.046033
     39 H17         3.9040   -2.4290    3.2560 h5        1 1JN      0.067800
     40 H18         5.0590   -5.8060   -0.3210 ha        1 1JN      0.150000
     41 H19         6.1670   -5.6000   -3.0690 hc        1 1JN      0.053200
     42 H20         4.4210   -6.0450   -3.2130 hc        1 1JN      0.053200
@<TRIPOS>BOND
     1    1    5 ar  
     2    1   14 ar  
     3    1   23 1   
     4    2    3 1   
     5    2    4 ar  
     6    2   14 ar  
     7    3   24 1   
     8    3   25 1   
     9    3   26 1   
    10    4   15 ar  
    11    4   27 1   
    12    5   15 ar  
    13    5   28 1   
    14    6    7 ar  
    15    6   16 1   
    16    6   18 ar  
    17    7   10 ar  
    18    7   22 1   
    19    8    9 1   
    20    8   19 1   
    21    8   29 1   
    22    8   30 1   
    23    9   21 1   
    24    9   31 1   
    25    9   32 1   
    26   10   21 ar  
    27   10   33 1   
    28   11   15 1   
    29   11   22 1   
    30   11   34 1   
    31   11   35 1   
    32   12   13 1   
    33   12   36 1   
    34   12   37 1   
    35   12   38 1   
    36   13   14 1   
    37   16   17 2   
    38   17   22 1   
    39   17   39 1   
    40   18   20 ar  
    41   18   40 1   
    42   19   20 1   
    43   19   41 1   
    44   19   42 1   
    45   20   21 ar  
@<TRIPOS>SUBSTRUCTURE
     1 1JN         1 TEMP              0 ****  ****    0 ROOT
