@<TRIPOS>MOLECULE
1JN
   42    45     1     0     0
SMALL
bcc


@<TRIPOS>ATOM
      1 C4         -0.2020   -0.5720    0.2910 ca        1 1JN     -0.199000
      2 C5         -0.0280    0.6060    2.4300 ca        1 1JN     -0.099300
      3 C6         -0.6810    1.3230    3.5470 c3        1 1JN     -0.042800
      4 C7          1.3510    0.4000    2.4040 ca        1 1JN     -0.090000
      5 C8          1.1790   -0.7580    0.2890 ca        1 1JN     -0.079000
      6 C10         4.4600   -3.8480    0.3760 ca        1 1JN      0.063400
      7 C13         4.1710   -2.4770   -0.0100 ca        1 1JN     -0.075200
      8 C15         5.0030   -4.2350   -4.3170 c3        1 1JN     -0.078400
      9 C17         4.6210   -2.8560   -3.7640 c3        1 1JN     -0.036100
     10 C20         4.2010   -2.0640   -1.3530 ca        1 1JN     -0.128000
     11 C22         3.4530   -0.4400    1.3220 c3        1 1JN      0.101600
     12 C1         -2.9700   -0.1730    0.4080 c3        1 1JN      0.111700
     13 O2         -2.1590    0.3510    1.4540 os        1 1JN     -0.324900
     14 C3         -0.8030    0.1080    1.3560 ca        1 1JN      0.130100
     15 C9          1.9600   -0.2750    1.3410 ca        1 1JN     -0.156300
     16 N11         4.3560   -3.9700    1.7780 nc        1 1JN     -0.566100
     17 C12         4.0230   -2.7490    2.2180 cd        1 1JN      0.421700
     18 C14         4.7840   -4.8020   -0.6050 ca        1 1JN     -0.057000
     19 C16         5.1190   -5.1950   -3.1260 c3        1 1JN     -0.032100
     20 C18         4.8070   -4.3760   -1.9170 ca        1 1JN     -0.108300
     21 C19         4.5210   -3.0300   -2.2850 ca        1 1JN     -0.068300
     22 N21         3.9260   -1.7860    1.1870 na        1 1JN     -0.169300
     23 H1         -0.8020   -0.9630   -0.5420 ha        1 1JN      0.141000
     24 H2         -1.2080    2.2320    3.1610 hc        1 1JN      0.048033
     25 H3         -1.4470    0.6630    4.0280 hc        1 1JN      0.048033
     26 H4          0.0610    1.6370    4.3200 hc        1 1JN      0.048033
     27 H5          1.9640    0.7800    3.2370 ha        1 1JN      0.133000
     28 H6          1.6570   -1.2960   -0.5460 ha        1 1JN      0.144000
     29 H7          5.9730   -4.1780   -4.8680 hc        1 1JN      0.044200
     30 H8          4.2250   -4.5960   -5.0340 hc        1 1JN      0.044200
     31 H9          5.3970   -2.0910   -4.0220 hc        1 1JN      0.052700
     32 H10         3.6460   -2.5080   -4.1900 hc        1 1JN      0.052700
     33 H11         3.9840   -1.0270   -1.6390 ha        1 1JN      0.136000
     34 H12         3.8650    0.1560    0.4550 h1        1 1JN      0.064700
     35 H13         3.8890   -0.0210    2.2760 h1        1 1JN      0.064700
     36 H14        -2.6960    0.2900   -0.5710 h1        1 1JN      0.046033
     37 H15        -2.8790   -1.2850    0.3560 h1        1 1JN      0.046033
     38 H16        -4.0060    0.1250    0.7100 h1        1 1JN      0.046033
     39 H17         3.8570   -2.4780    3.2680 h5        1 1JN      0.067800
     40 H18         5.0080   -5.8400   -0.3240 ha        1 1JN      0.150000
     41 H19         6.1490   -5.6260   -3.0580 hc        1 1JN      0.053200
     42 H20         4.3990   -6.0460   -3.2250 hc        1 1JN      0.053200
@<TRIPOS>BOND
     1    1    5 ar  
     2    1   14 ar  
     3    1   23 1   
     4    2    3 1   
     5    2    4 ar  
     6    2   14 ar  
     7    3   24 1   
     8    3   25 1   
     9    3   26 1   
    10    4   15 ar  
    11    4   27 1   
    12    5   15 ar  
    13    5   28 1   
    14    6    7 ar  
    15    6   16 1   
    16    6   18 ar  
    17    7   10 ar  
    18    7   22 1   
    19    8    9 1   
    20    8   19 1   
    21    8   29 1   
    22    8   30 1   
    23    9   21 1   
    24    9   31 1   
    25    9   32 1   
    26   10   21 ar  
    27   10   33 1   
    28   11   15 1   
    29   11   22 1   
    30   11   34 1   
    31   11   35 1   
    32   12   13 1   
    33   12   36 1   
    34   12   37 1   
    35   12   38 1   
    36   13   14 1   
    37   16   17 2   
    38   17   22 1   
    39   17   39 1   
    40   18   20 ar  
    41   18   40 1   
    42   19   20 1   
    43   19   41 1   
    44   19   42 1   
    45   20   21 ar  
@<TRIPOS>SUBSTRUCTURE
     1 1JN         1 TEMP              0 ****  ****    0 ROOT
