@<TRIPOS>MOLECULE
1JO
   57    57     1     0     0
SMALL
bcc


@<TRIPOS>ATOM
      1 OXT        -8.8260   -4.0150   -0.2920 o         1 1JO     -0.847800
      2 C          -8.1290   -3.1750    0.3490 c         1 1JO      0.889600
      3 O          -8.1830   -3.0170    1.6000 o         1 1JO     -0.847800
      4 CA         -7.1700   -2.2410   -0.4610 c3        1 1JO      0.017500
      5 N          -7.2630   -2.4040   -1.9080 n3        1 1JO     -0.895800
      6 CB         -5.7460   -2.4050    0.0750 c3        1 1JO     -0.056400
      7 CG         -4.8530   -1.2700   -0.3810 c3        1 1JO     -0.144400
      8 CD         -3.3970   -1.4890   -0.0140 c         1 1JO      0.653100
      9 OE1        -2.9950   -2.4540    0.6650 o         1 1JO     -0.613100
     10 NE2        -2.4940   -0.5660   -0.5380 n         1 1JO     -0.564900
     11 CBD        -1.1050   -0.5400   -0.1500 c3        1 1JO      0.032700
     12 CBA        -0.6510    0.8900    0.2680 c         1 1JO      0.625100
     13 OAE        -1.4260    1.8670    0.1530 o         1 1JO     -0.648100
     14 NAU         0.5990    0.9960    0.8280 n         1 1JO     -0.510900
     15 CAQ         1.2410    2.2730    1.0240 c3        1 1JO     -0.047000
     16 CAX         2.6370    2.3870    0.3670 c         1 1JO      0.894600
     17 OAF         2.8160    1.9080   -0.7920 o         1 1JO     -0.848800
     18 OAB         3.5460    2.9690    1.0250 o         1 1JO     -0.848800
     19 CAT        -0.1760   -1.0300   -1.2740 c3        1 1JO     -0.015300
     20 SAW         1.1330   -2.0170   -0.5890 ss        1 1JO     -0.350200
     21 CAO         2.6080   -1.2310   -1.1880 c3        1 1JO     -0.029300
     22 CAM         3.7110   -1.4580   -0.1840 c3        1 1JO     -0.056400
     23 CAN         4.8710   -0.5210   -0.4550 c3        1 1JO     -0.102400
     24 CAR         5.8740   -0.5440    0.6810 c3        1 1JO     -0.029100
     25 CBB         6.9150    0.5090    0.5250 ca        1 1JO     -0.074300
     26 CAK         8.2670    0.1620    0.4230 ca        1 1JO     -0.125000
     27 CAI         9.2420    1.1510    0.2970 ca        1 1JO     -0.144500
     28 CAH         8.8720    2.4940    0.2720 ca        1 1JO     -0.154000
     29 CAJ         7.5260    2.8450    0.3730 ca        1 1JO     -0.144500
     30 CAL         6.5450    1.8620    0.4990 ca        1 1JO     -0.125000
     31 H2         -7.5070   -1.1850   -0.2420 h1        1 1JO      0.038700
     32 H3         -6.7770   -3.2450   -2.1660 hn        1 1JO      0.329800
     33 H4         -8.2340   -2.5640   -2.1280 hn        1 1JO      0.329800
     34 H6         -5.8020   -2.4240    1.1960 hc        1 1JO      0.061200
     35 H7         -5.3090   -3.3850   -0.2510 hc        1 1JO      0.061200
     36 H8         -4.9320   -1.1490   -1.4940 hc        1 1JO      0.063200
     37 H9         -5.1970   -0.3110    0.0900 hc        1 1JO      0.063200
     38 H10        -2.8570    0.2980   -0.8760 hn        1 1JO      0.316500
     39 H11        -0.9740   -1.2310    0.7430 h1        1 1JO      0.109700
     40 H12         1.2220    0.2270    0.6790 hn        1 1JO      0.313500
     41 H13         0.5960    3.0960    0.6080 h1        1 1JO      0.051700
     42 H14         1.3490    2.4350    2.1330 h1        1 1JO      0.051700
     43 H16        -0.7360   -1.6880   -1.9830 h1        1 1JO      0.080200
     44 H17         0.2360   -0.1690   -1.8520 h1        1 1JO      0.080200
     45 H18         2.8830   -1.6630   -2.1790 h1        1 1JO      0.090200
     46 H19         2.4400   -0.1250   -1.3240 h1        1 1JO      0.090200
     47 H20         3.3140   -1.2670    0.8500 hc        1 1JO      0.036700
     48 H21         4.0570   -2.5230   -0.2190 hc        1 1JO      0.036700
     49 H22         5.3740   -0.8090   -1.4130 hc        1 1JO      0.075200
     50 H23         4.4720    0.5300   -0.5810 hc        1 1JO      0.075200
     51 H24         5.3330   -0.3680    1.6520 hc        1 1JO      0.037700
     52 H25         6.3520   -1.5580    0.7450 hc        1 1JO      0.037700
     53 H26         8.5630   -0.8970    0.4400 ha        1 1JO      0.167500
     54 H27        10.3000    0.8690    0.2170 ha        1 1JO      0.118500
     55 H28         9.6400    3.2740    0.1720 ha        1 1JO      0.107000
     56 H29         7.2260    3.9030    0.3520 ha        1 1JO      0.118500
     57 H30         5.4710    2.1540    0.5760 ha        1 1JO      0.167500
@<TRIPOS>BOND
     1    1    2 1   
     2    2    3 1   
     3    2    4 1   
     4    4    5 1   
     5    4    6 1   
     6    4   31 1   
     7    5   32 1   
     8    5   33 1   
     9    6    7 1   
    10    6   34 1   
    11    6   35 1   
    12    7    8 1   
    13    7   36 1   
    14    7   37 1   
    15    8    9 2   
    16    8   10 1   
    17   10   11 1   
    18   10   38 1   
    19   11   12 1   
    20   11   19 1   
    21   11   39 1   
    22   12   13 2   
    23   12   14 1   
    24   14   15 1   
    25   14   40 1   
    26   15   16 1   
    27   15   41 1   
    28   15   42 1   
    29   16   17 1   
    30   16   18 1   
    31   19   20 1   
    32   19   43 1   
    33   19   44 1   
    34   20   21 1   
    35   21   22 1   
    36   21   45 1   
    37   21   46 1   
    38   22   23 1   
    39   22   47 1   
    40   22   48 1   
    41   23   24 1   
    42   23   49 1   
    43   23   50 1   
    44   24   25 1   
    45   24   51 1   
    46   24   52 1   
    47   25   26 ar  
    48   25   30 ar  
    49   26   27 ar  
    50   26   53 1   
    51   27   28 ar  
    52   27   54 1   
    53   28   29 ar  
    54   28   55 1   
    55   29   30 ar  
    56   29   56 1   
    57   30   57 1   
@<TRIPOS>SUBSTRUCTURE
     1 1JO         1 TEMP              0 ****  ****    0 ROOT
