@<TRIPOS>MOLECULE
1JO
   60    60     1     0     0
SMALL
bcc


@<TRIPOS>ATOM
      1 OXT         6.2870    2.3850   -4.0120 o         1 1JO     -0.773300
      2 C           5.4160    1.6970   -4.5860 c         1 1JO      0.891600
      3 O           4.9060    1.9090   -5.7210 o         1 1JO     -0.773300
      4 CA          4.7450    0.5470   -3.7430 c3        1 1JO     -0.049500
      5 N           4.3190   -0.5430   -4.6720 nz        1 1JO     -0.825600
      6 CB          3.5610    1.1630   -2.9880 c3        1 1JO     -0.093400
      7 CG          4.0110    2.3380   -2.1380 c3        1 1JO     -0.159400
      8 CD          3.5430    3.6860   -2.6270 c         1 1JO      0.559100
      9 OE1         2.8980    4.4870   -1.9650 o         1 1JO     -0.430100
     10 NE2         3.9630    4.0820   -4.0070 ny        1 1JO     -0.691800
     11 CBD         3.3270    5.3300   -4.5330 c3        1 1JO      0.054500
     12 CBA         1.9230    5.0190   -5.1080 c         1 1JO      0.654100
     13 OAE         1.5060    3.8430   -5.1410 o         1 1JO     -0.609100
     14 NAU         1.1640    6.0990   -5.4970 ns        1 1JO     -0.501900
     15 CAQ        -0.0200    5.9170   -6.2920 c3        1 1JO     -0.022000
     16 CAX         0.2240    6.0350   -7.7880 c         1 1JO      0.597100
     17 OAF        -0.8250    5.8770   -8.6360 oh        1 1JO     -0.547100
     18 OAB         1.3020    6.2650   -8.3350 o         1 1JO     -0.487000
     19 CAT         4.1910    5.9710   -5.6250 c3        1 1JO     -0.073300
     20 SAW         5.9000    5.9400   -5.1900 ss        1 1JO     -0.267200
     21 CAO         6.6210    4.8300   -6.3850 c3        1 1JO     -0.011300
     22 CAM         8.0510    4.6410   -5.9450 c3        1 1JO     -0.080400
     23 CAN         8.8730    4.0190   -7.0570 c3        1 1JO     -0.070400
     24 CAR        10.3070    3.8060   -6.6090 c3        1 1JO     -0.035100
     25 CBB        11.1340    3.2030   -7.6900 ca        1 1JO     -0.085300
     26 CAK        11.5810    1.8810   -7.5890 ca        1 1JO     -0.128000
     27 CAI        12.3670    1.3250   -8.5980 ca        1 1JO     -0.126000
     28 CAH        12.7110    2.0830   -9.7160 ca        1 1JO     -0.126000
     29 CAJ        12.2690    3.4030   -9.8220 ca        1 1JO     -0.126000
     30 CAL        11.4850    3.9610   -8.8140 ca        1 1JO     -0.128000
     31 H2          5.4950    0.1250   -3.0150 hx        1 1JO      0.120700
     32 H3          5.1140   -1.1570   -4.8620 hn        1 1JO      0.462133
     33 H4          3.5450   -1.0840   -4.2890 hn        1 1JO      0.462133
     34 H6          3.1070    0.3910   -2.3090 hc        1 1JO      0.076700
     35 H7          2.7620    1.4780   -3.7120 hc        1 1JO      0.076700
     36 H8          3.6020    2.2240   -1.0940 hc        1 1JO      0.132700
     37 H9          5.1400    2.3720   -2.0600 hc        1 1JO      0.132700
     38 H10         5.0200    4.2130   -4.0340 hn        1 1JO      0.508300
     39 H11         3.2170    6.0500   -3.6630 hx        1 1JO      0.141700
     40 H12        -1.6390    5.7060   -8.1400 ho        1 1JO      0.435000
     41 H13        -0.4640    4.9010   -6.0790 h1        1 1JO      0.107200
     42 H14        -0.7660    6.7110   -5.9910 h1        1 1JO      0.107200
     43 H16         4.0160    5.4740   -6.6130 h1        1 1JO      0.115700
     44 H17         3.8850    7.0450   -5.7240 h1        1 1JO      0.115700
     45 H18         6.0800    3.8490   -6.3900 h1        1 1JO      0.088700
     46 H19         6.5630    5.2800   -7.4040 h1        1 1JO      0.088700
     47 H20         8.5000    5.6300   -5.6570 hc        1 1JO      0.066200
     48 H21         8.0770    3.9740   -5.0400 hc        1 1JO      0.066200
     49 H22         8.4190    3.0380   -7.3550 hc        1 1JO      0.049700
     50 H23         8.8580    4.6840   -7.9610 hc        1 1JO      0.049700
     51 H24        10.7540    4.7930   -6.3090 hc        1 1JO      0.050200
     52 H25        10.3190    3.1470   -5.7000 hc        1 1JO      0.050200
     53 H26        11.3180    1.2790   -6.7060 ha        1 1JO      0.128500
     54 H27        12.7180    0.2860   -8.5090 ha        1 1JO      0.134000
     55 H28        13.3320    1.6450  -10.5100 ha        1 1JO      0.136000
     56 H29        12.5430    4.0050  -10.7010 ha        1 1JO      0.134000
     57 H30        11.1420    5.0030   -8.8970 ha        1 1JO      0.128500
     58 HN3         4.0320   -0.0930   -5.5630 hn        1 1JO      0.462133
     59 HE23        3.7320    3.3080   -4.6620 hn        1 1JO      0.508300
     60 HAU2        1.6250    6.9780   -5.6060 hn        1 1JO      0.330500
@<TRIPOS>BOND
     1    1    2 1   
     2    2    3 1   
     3    2    4 1   
     4    4    5 1   
     5    4    6 1   
     6    4   31 1   
     7    5   32 1   
     8    5   33 1   
     9    5   58 1   
    10    6    7 1   
    11    6   34 1   
    12    6   35 1   
    13    7    8 1   
    14    7   36 1   
    15    7   37 1   
    16    8    9 2   
    17    8   10 1   
    18   10   11 1   
    19   10   38 1   
    20   10   59 1   
    21   11   12 1   
    22   11   19 1   
    23   11   39 1   
    24   12   13 2   
    25   12   14 1   
    26   14   15 1   
    27   14   60 1   
    28   15   16 1   
    29   15   41 1   
    30   15   42 1   
    31   16   17 1   
    32   16   18 2   
    33   17   40 1   
    34   19   20 1   
    35   19   43 1   
    36   19   44 1   
    37   20   21 1   
    38   21   22 1   
    39   21   45 1   
    40   21   46 1   
    41   22   23 1   
    42   22   47 1   
    43   22   48 1   
    44   23   24 1   
    45   23   49 1   
    46   23   50 1   
    47   24   25 1   
    48   24   51 1   
    49   24   52 1   
    50   25   26 ar  
    51   25   30 ar  
    52   26   27 ar  
    53   26   53 1   
    54   27   28 ar  
    55   27   54 1   
    56   28   29 ar  
    57   28   55 1   
    58   29   30 ar  
    59   29   56 1   
    60   30   57 1   
@<TRIPOS>SUBSTRUCTURE
     1 1JO         1 TEMP              0 ****  ****    0 ROOT
