@<TRIPOS>MOLECULE
1JO
   60    60     1     0     0
SMALL
bcc


@<TRIPOS>ATOM
      1 OXT         6.2040    2.3820   -3.8900 o         1 1JO     -0.773300
      2 C           5.3630    1.6870   -4.4990 c         1 1JO      0.889600
      3 O           4.9180    1.8850   -5.6640 o         1 1JO     -0.773300
      4 CA          4.6430    0.5540   -3.6760 c3        1 1JO     -0.049500
      5 N           4.2530   -0.5440   -4.6120 n4        1 1JO     -0.825600
      6 CB          3.4290    1.1900   -2.9880 c3        1 1JO     -0.093400
      7 CG          3.8500    2.3690   -2.1280 c3        1 1JO     -0.159400
      8 CD          3.4230    3.7170   -2.6520 c         1 1JO      0.560100
      9 OE1         2.7580    4.5340   -2.0290 o         1 1JO     -0.431100
     10 NE2         3.9120    4.0950   -4.0150 n4        1 1JO     -0.689800
     11 CBD         3.3020    5.3360   -4.5870 c3        1 1JO      0.054500
     12 CBA         1.9230    5.0160   -5.2160 c         1 1JO      0.654100
     13 OAE         1.5060    3.8410   -5.2460 o         1 1JO     -0.609100
     14 NAU         1.1820    6.0910   -5.6530 n         1 1JO     -0.501900
     15 CAQ         0.0330    5.8970   -6.4960 c3        1 1JO     -0.022000
     16 CAX         0.3430    5.9840   -7.9820 c         1 1JO      0.597100
     17 OAF        -0.6690    5.8160   -8.8720 oh        1 1JO     -0.547100
     18 OAB         1.4450    6.1990   -8.4850 o         1 1JO     -0.487000
     19 CAT         4.2120    5.9580   -5.6520 c3        1 1JO     -0.071300
     20 SAW         5.9000    5.9480   -5.1450 ss        1 1JO     -0.270200
     21 CAO         6.6810    4.8150   -6.2810 c3        1 1JO     -0.013300
     22 CAM         8.1630    5.0580   -6.1600 c3        1 1JO     -0.074400
     23 CAN         8.9330    4.0510   -6.9920 c3        1 1JO     -0.072400
     24 CAR        10.4260    4.3050   -6.8970 c3        1 1JO     -0.035100
     25 CBB        11.1990    3.3300   -7.7140 ca        1 1JO     -0.085300
     26 CAK        11.9530    2.3260   -7.0970 ca        1 1JO     -0.127500
     27 CAI        12.6870    1.4240   -7.8670 ca        1 1JO     -0.126500
     28 CAH        12.6720    1.5160   -9.2580 ca        1 1JO     -0.127000
     29 CAJ        11.9220    2.5160   -9.8790 ca        1 1JO     -0.126500
     30 CAL        11.1900    3.4190   -9.1110 ca        1 1JO     -0.127500
     31 H2          5.3520    0.1350   -2.9080 hx        1 1JO      0.121700
     32 H3          3.4530   -1.0710   -4.2620 hn        1 1JO      0.461800
     33 H4          5.0490   -1.1700   -4.7520 hn        1 1JO      0.461800
     34 H6          2.6710    1.5070   -3.7550 hc        1 1JO      0.077200
     35 H7          2.9330    0.4300   -2.3250 hc        1 1JO      0.077200
     36 H8          4.9740    2.3920   -1.9950 hc        1 1JO      0.133200
     37 H9          3.3890    2.2710   -1.1050 hc        1 1JO      0.133200
     38 H10         4.9680    4.2260   -3.9900 hn        1 1JO      0.508300
     39 H11         3.1580    6.0690   -3.7340 hx        1 1JO      0.141700
     40 H12         1.6480    6.9680   -5.7550 hn        1 1JO      0.330500
     41 H13        -0.4230    4.8860   -6.2830 h1        1 1JO      0.107700
     42 H14        -0.7220    6.6990   -6.2430 h1        1 1JO      0.107700
     43 H16         3.9070    7.0280   -5.7860 h1        1 1JO      0.115700
     44 H17         4.0800    5.4410   -6.6370 h1        1 1JO      0.115700
     45 H18         6.3290    5.0010   -7.3240 h1        1 1JO      0.089700
     46 H19         6.4240    3.7600   -5.9990 h1        1 1JO      0.089700
     47 H20         8.4110    6.0980   -6.5020 hc        1 1JO      0.060700
     48 H21         8.4770    4.9720   -5.0850 hc        1 1JO      0.060700
     49 H22         8.7030    3.0130   -6.6350 hc        1 1JO      0.050200
     50 H23         8.6090    4.1180   -8.0640 hc        1 1JO      0.050200
     51 H24        10.6510    5.3470   -7.2540 hc        1 1JO      0.051700
     52 H25        10.7460    4.2470   -5.8220 hc        1 1JO      0.051700
     53 H26        11.9740    2.2520   -5.9990 ha        1 1JO      0.129500
     54 H27        13.2820    0.6410   -7.3740 ha        1 1JO      0.134000
     55 H28        13.2540    0.8070   -9.8640 ha        1 1JO      0.136000
     56 H29        11.9130    2.5950  -10.9760 ha        1 1JO      0.134000
     57 H30        10.6040    4.2100   -9.6030 ha        1 1JO      0.129500
     58 HN3         4.0180   -0.1030   -5.5230 hn        1 1JO      0.461800
     59 HE23        3.7130    3.3130   -4.6710 hn        1 1JO      0.508300
     60 HAU2       -1.5050    5.6590   -8.4090 ho        1 1JO      0.435000
@<TRIPOS>BOND
     1    1    2 1   
     2    2    3 1   
     3    2    4 1   
     4    4    5 1   
     5    4    6 1   
     6    4   31 1   
     7    5   32 1   
     8    5   33 1   
     9    5   58 1   
    10    6    7 1   
    11    6   34 1   
    12    6   35 1   
    13    7    8 1   
    14    7   36 1   
    15    7   37 1   
    16    8    9 2   
    17    8   10 1   
    18   10   11 1   
    19   10   38 1   
    20   10   59 1   
    21   11   12 1   
    22   11   19 1   
    23   11   39 1   
    24   12   13 2   
    25   12   14 1   
    26   14   15 1   
    27   14   40 1   
    28   15   16 1   
    29   15   41 1   
    30   15   42 1   
    31   16   17 1   
    32   16   18 2   
    33   17   60 1   
    34   19   20 1   
    35   19   43 1   
    36   19   44 1   
    37   20   21 1   
    38   21   22 1   
    39   21   45 1   
    40   21   46 1   
    41   22   23 1   
    42   22   47 1   
    43   22   48 1   
    44   23   24 1   
    45   23   49 1   
    46   23   50 1   
    47   24   25 1   
    48   24   51 1   
    49   24   52 1   
    50   25   26 ar  
    51   25   30 ar  
    52   26   27 ar  
    53   26   53 1   
    54   27   28 ar  
    55   27   54 1   
    56   28   29 ar  
    57   28   55 1   
    58   29   30 ar  
    59   29   56 1   
    60   30   57 1   
@<TRIPOS>SUBSTRUCTURE
     1 1JO         1 TEMP              0 ****  ****    0 ROOT
