@<TRIPOS>MOLECULE
1JO
   57    53     1     0     0
SMALL
bcc


@<TRIPOS>ATOM
      1 OXT        -5.9770   -5.9980    4.3970 o         1 1JO     -0.813500
      2 C          -4.8420   -5.7510    4.8550 c1        1 1JO      0.774000
      3 O          -4.6700   -5.6890    6.0800 o         1 1JO     -0.813500
      4 CA         -3.6680   -5.6810    3.9320 c2        1 1JO      0.131200
      5 N          -2.6550   -6.5960    4.3700 nh        1 1JO     -0.481100
      6 CB         -3.1020   -4.2740    3.9330 c3        1 1JO     -0.138700
      7 CG         -2.7190   -3.8680    2.4570 c3        1 1JO     -0.145400
      8 CD         -2.2710   -2.4080    2.4240 c         1 1JO      0.663100
      9 OE1        -2.7270   -1.6300    3.1840 o         1 1JO     -0.640100
     10 NE2        -1.3440   -1.9720    1.4190 n         1 1JO     -0.565900
     11 CBD        -1.2800   -0.6010    1.0580 c3        1 1JO      0.043700
     12 CBA        -1.9120   -0.4070   -0.3070 c         1 1JO      0.620100
     13 OAE        -1.3570   -0.7800   -1.2660 o         1 1JO     -0.660100
     14 NAU        -3.1350    0.2570   -0.4200 n         1 1JO     -0.507900
     15 CAQ        -3.7950    0.3240   -1.6660 c3        1 1JO     -0.051000
     16 CAX        -5.2010    0.8780   -1.4620 c         1 1JO      0.901600
     17 OAF        -5.4060    2.1060   -1.5490 o         1 1JO     -0.846300
     18 OAB        -6.1470    0.1080   -1.3110 o         1 1JO     -0.846300
     19 CAT         0.1710   -0.1550    1.0130 c3        1 1JO     -0.029300
     20 SAW         0.2500    1.5650    0.5810 ss        1 1JO     -0.335200
     21 CAO         1.9870    2.0720    0.4550 c3        1 1JO     -0.004300
     22 CAM         2.0740    3.4060   -0.2870 c3        1 1JO     -0.089400
     23 CAN         3.4520    3.5070   -1.0140 c3        1 1JO     -0.059400
     24 CAR         3.2640    4.2110   -2.4200 c3        1 1JO     -0.100300
     25 CBB         4.4620    3.8960   -3.3080 c1        1 1JO     -0.025100
     26 CAK         4.5950    2.6170   -3.8820 c1        1 1JO     -0.083500
     27 CAI         5.6220    2.3620   -4.7860 c1        1 1JO     -0.083500
     28 CAH         6.5140    3.3690   -5.1220 c1        1 1JO     -0.083500
     29 CAJ         6.3820    4.6440   -4.5530 c1        1 1JO     -0.083500
     30 CAL         5.3510    4.8990   -3.6450 c1        1 1JO     -0.087500
     31 H2         -3.9570   -5.9210    3.0100 h4        1 1JO     -0.048200
     32 H3         -3.0220   -7.1950    5.0070 hn        1 1JO      0.176200
     33 H4         -2.3470   -7.0560    3.6700 hn        1 1JO      0.176200
     34 H6         -2.2970   -4.2460    4.5000 hc        1 1JO      0.053700
     35 H7         -3.7650   -3.6580    4.2810 hc        1 1JO      0.053700
     36 H8         -1.9620   -4.4540    2.1350 hc        1 1JO      0.067700
     37 H9         -3.4890   -3.9840    1.8750 hc        1 1JO      0.067700
     38 H10        -0.7780   -2.5570    1.0510 hn        1 1JO      0.324500
     39 H11        -1.7700   -0.0620    1.7250 h1        1 1JO      0.106700
     40 H12        -3.5190    0.6530    0.3320 hn        1 1JO      0.329500
     41 H13        -3.2710    0.9450   -2.3000 h1        1 1JO      0.048200
     42 H14        -3.8500   -0.5700   -2.0560 h1        1 1JO      0.048200
     43 H16         0.6050   -0.3000    1.9380 h1        1 1JO      0.086200
     44 H17         0.6450   -0.6700    0.3530 h1        1 1JO      0.086200
     45 H18         2.3670    2.1730    1.3620 h1        1 1JO      0.064200
     46 H19         2.4930    1.3870   -0.0390 h1        1 1JO      0.064200
     47 H20         1.9860    4.1520    0.3610 hc        1 1JO      0.071700
     48 H21         1.3630    3.4590   -0.9380 hc        1 1JO      0.071700
     49 H22         3.8090    2.6300   -1.1440 hc        1 1JO      0.030700
     50 H23         4.0720    4.0350   -0.4670 hc        1 1JO      0.030700
     51 H24         3.1970    5.1960   -2.2920 hc        1 1JO      0.078700
     52 H25         2.4770    3.8930   -2.8290 hc        1 1JO      0.078700
     53 H26         3.9400    1.8770   -3.6330 ha        1 1JO      0.079000
     54 H27         5.6730    1.4910   -5.2380 ha        1 1JO      0.079000
     55 H28         7.2450    3.1890   -5.7640 ha        1 1JO      0.079000
     56 H29         7.0110    5.3530   -4.7910 ha        1 1JO      0.079000
     57 H30         5.2280    5.8270   -3.2690 ha        1 1JO      0.058500
@<TRIPOS>BOND
     1    1    2 2   
     2    2    3 2   
     3    4    5 2   
     4    4    6 1   
     5    4   31 1   
     6    5   32 1   
     7    5   33 1   
     8    6    7 1   
     9    6   34 1   
    10    6   35 1   
    11    7    8 1   
    12    7   36 1   
    13    7   37 1   
    14    8    9 2   
    15    8   10 1   
    16   10   11 1   
    17   10   38 1   
    18   11   12 1   
    19   11   19 1   
    20   11   39 1   
    21   12   13 2   
    22   12   14 1   
    23   14   15 1   
    24   14   40 1   
    25   15   16 1   
    26   15   41 1   
    27   15   42 1   
    28   16   17 1   
    29   16   18 1   
    30   19   20 1   
    31   19   43 1   
    32   19   44 1   
    33   20   21 1   
    34   21   22 1   
    35   21   45 1   
    36   21   46 1   
    37   22   23 1   
    38   22   47 1   
    39   22   48 1   
    40   23   24 1   
    41   23   49 1   
    42   23   50 1   
    43   24   25 1   
    44   24   51 1   
    45   24   52 1   
    46   25   30 3   
    47   26   27 3   
    48   26   53 1   
    49   27   54 1   
    50   28   29 3   
    51   28   55 1   
    52   29   56 1   
    53   30   57 1   
@<TRIPOS>SUBSTRUCTURE
     1 1JO         1 TEMP              0 ****  ****    0 ROOT
