@<TRIPOS>MOLECULE
1JO
   60    60     1     0     0
SMALL
bcc


@<TRIPOS>ATOM
      1 OXT         2.1310    3.1200   -3.2960 o         1 1JO     -0.785800
      2 C           1.2720    2.7180   -2.4680 c         1 1JO      0.947600
      3 O           0.3330    3.3750   -1.9720 o         1 1JO     -0.785800
      4 CA          1.3630    1.1910   -2.0450 c3        1 1JO     -0.052500
      5 N           0.5880    1.0020   -0.7780 n4        1 1JO     -0.830600
      6 CB          2.7980    0.6910   -1.9230 c3        1 1JO     -0.080400
      7 CG          3.5560    0.8540   -3.2310 c3        1 1JO     -0.120400
      8 CD          4.2900    2.1700   -3.2660 c         1 1JO      0.601100
      9 OE1         4.7110    2.8110   -2.3140 o         1 1JO     -0.442100
     10 NE2         4.6380    2.7010   -4.6380 n4        1 1JO     -0.679800
     11 CBD         3.9970    4.0290   -4.9360 c3        1 1JO      0.086500
     12 CBA         2.6990    3.8100   -5.7550 c         1 1JO      0.679100
     13 OAE         2.6360    2.8280   -6.5320 o         1 1JO     -0.656100
     14 NAU         1.7250    4.7630   -5.6560 n         1 1JO     -0.499900
     15 CAQ         0.4850    4.6340   -6.3780 c3        1 1JO     -0.011000
     16 CAX         0.6070    5.0670   -7.8330 c         1 1JO      0.609100
     17 OAF         1.2260    4.2490   -8.7250 oh        1 1JO     -0.573100
     18 OAB         0.1690    6.1130   -8.3020 o         1 1JO     -0.459000
     19 CAT         4.9040    4.9440   -5.7610 c3        1 1JO     -0.070300
     20 SAW         6.5910    4.8150   -5.2460 ss        1 1JO     -0.289200
     21 CAO         7.4710    4.7330   -6.7910 c3        1 1JO     -0.000300
     22 CAM         8.9370    4.6710   -6.4430 c3        1 1JO     -0.079400
     23 CAN         9.7780    4.5760   -7.7010 c3        1 1JO     -0.074400
     24 CAR        11.2550    4.5240   -7.3590 c3        1 1JO     -0.032100
     25 CBB        12.0940    4.4450   -8.5860 ca        1 1JO     -0.092300
     26 CAK        12.7260    3.2480   -8.9380 ca        1 1JO     -0.126500
     27 CAI        13.5190    3.1830  -10.0830 ca        1 1JO     -0.124000
     28 CAH        13.6870    4.3120  -10.8840 ca        1 1JO     -0.123000
     29 CAJ        13.0600    5.5090  -10.5370 ca        1 1JO     -0.124000
     30 CAL        12.2680    5.5760   -9.3920 ca        1 1JO     -0.126500
     31 H2          0.8250    0.6160   -2.8540 hx        1 1JO      0.104700
     32 H3          0.1550    0.0810   -0.7400 hn        1 1JO      0.461467
     33 H4          1.1950    1.1310    0.0320 hn        1 1JO      0.461467
     34 H6          3.3350    1.2440   -1.1040 hc        1 1JO      0.076700
     35 H7          2.7970   -0.4020   -1.6570 hc        1 1JO      0.076700
     36 H8          4.3240    0.0370   -3.3240 hc        1 1JO      0.101700
     37 H9          2.8450    0.7770   -4.0990 hc        1 1JO      0.101700
     38 H10         5.6750    2.8520   -4.6930 hn        1 1JO      0.471800
     39 H11         3.7630    4.5120   -3.9340 hx        1 1JO      0.161700
     40 H12         1.7170    5.3490   -4.8490 hn        1 1JO      0.351500
     41 H13         0.1250    3.5630   -6.3580 h1        1 1JO      0.096700
     42 H14        -0.2890    5.2890   -5.8830 h1        1 1JO      0.096700
     43 H16         4.5460    5.9960   -5.6080 h1        1 1JO      0.113200
     44 H17         4.8120    4.7150   -6.8540 h1        1 1JO      0.113200
     45 H18         7.1580    3.8340   -7.3740 h1        1 1JO      0.076200
     46 H19         7.2500    5.6400   -7.4040 h1        1 1JO      0.076200
     47 H20         9.1400    3.7810   -5.7890 hc        1 1JO      0.060700
     48 H21         9.2300    5.5870   -5.8630 hc        1 1JO      0.060700
     49 H22         9.5780    5.4630   -8.3580 hc        1 1JO      0.051200
     50 H23         9.4920    3.6590   -8.2800 hc        1 1JO      0.051200
     51 H24        11.5350    5.4430   -6.7760 hc        1 1JO      0.050200
     52 H25        11.4540    3.6390   -6.6980 hc        1 1JO      0.050200
     53 H26        12.6020    2.3550   -8.3080 ha        1 1JO      0.128500
     54 H27        14.0160    2.2390  -10.3530 ha        1 1JO      0.136500
     55 H28        14.3140    4.2600  -11.7870 ha        1 1JO      0.138000
     56 H29        13.1940    6.4020  -11.1640 ha        1 1JO      0.136500
     57 H30        11.7790    6.5230   -9.1170 ha        1 1JO      0.128500
     58 HN3        -0.1450    1.7450   -0.7620 hn        1 1JO      0.461467
     59 HE23        4.3420    2.0290   -5.3600 hn        1 1JO      0.471800
     60 HAU2        1.5210    3.4330   -8.2890 ho        1 1JO      0.445000
@<TRIPOS>BOND
     1    1    2 1   
     2    2    3 1   
     3    2    4 1   
     4    4    5 1   
     5    4    6 1   
     6    4   31 1   
     7    5   32 1   
     8    5   33 1   
     9    5   58 1   
    10    6    7 1   
    11    6   34 1   
    12    6   35 1   
    13    7    8 1   
    14    7   36 1   
    15    7   37 1   
    16    8    9 2   
    17    8   10 1   
    18   10   11 1   
    19   10   38 1   
    20   10   59 1   
    21   11   12 1   
    22   11   19 1   
    23   11   39 1   
    24   12   13 2   
    25   12   14 1   
    26   14   15 1   
    27   14   40 1   
    28   15   16 1   
    29   15   41 1   
    30   15   42 1   
    31   16   17 1   
    32   16   18 2   
    33   17   60 1   
    34   19   20 1   
    35   19   43 1   
    36   19   44 1   
    37   20   21 1   
    38   21   22 1   
    39   21   45 1   
    40   21   46 1   
    41   22   23 1   
    42   22   47 1   
    43   22   48 1   
    44   23   24 1   
    45   23   49 1   
    46   23   50 1   
    47   24   25 1   
    48   24   51 1   
    49   24   52 1   
    50   25   26 ar  
    51   25   30 ar  
    52   26   27 ar  
    53   26   53 1   
    54   27   28 ar  
    55   27   54 1   
    56   28   29 ar  
    57   28   55 1   
    58   29   30 ar  
    59   29   56 1   
    60   30   57 1   
@<TRIPOS>SUBSTRUCTURE
     1 1JO         1 TEMP              0 ****  ****    0 ROOT
