@<TRIPOS>MOLECULE
1JP
   56    56     1     0     0
SMALL
bcc


@<TRIPOS>ATOM
      1 O           7.6140    3.0580   -2.8390 o         1 1JP     -0.846300
      2 C           6.8680    3.2760   -1.8390 c         1 1JP      0.887600
      3 OXT         6.4770    4.4220   -1.4850 o         1 1JP     -0.846300
      4 CA          6.4400    2.0550   -0.9600 c3        1 1JP      0.019500
      5 N           6.9210    0.7680   -1.4480 n3        1 1JP     -0.894800
      6 CB          4.9230    2.0960   -0.7540 c3        1 1JP     -0.061400
      7 CG          4.4920    1.1560    0.3510 c3        1 1JP     -0.147400
      8 CD          3.0070    1.2290    0.6590 c         1 1JP      0.664100
      9 OE1         2.5940    1.6440    1.7620 o         1 1JP     -0.637100
     10 NE2         2.1280    0.8090   -0.3240 n         1 1JP     -0.558900
     11 CBE         0.7120    0.6800   -0.1090 c3        1 1JP      0.037700
     12 CBA         0.2360   -0.7980    0.0040 c         1 1JP      0.709500
     13 OAE        -0.5710   -1.0950    0.9050 o         1 1JP     -0.611100
     14 NAU         0.8550   -1.7590   -0.8040 ne        1 1JP     -0.703100
     15 CAO         0.3680   -2.3890   -1.8020 cf        1 1JP      0.458200
     16 CAX        -1.0040   -2.2880   -2.4760 c         1 1JP      0.787300
     17 OAF        -1.4090   -3.3160   -3.0780 o         1 1JP     -0.816800
     18 OAB        -1.6240   -1.1900   -2.4050 o         1 1JP     -0.816800
     19 CAT        -0.1270    1.3500   -1.2070 c3        1 1JP     -0.035300
     20 S1         -1.5390    2.2030   -0.5610 ss        1 1JP     -0.328200
     21 CAS        -2.7990    0.9570   -0.5610 c3        1 1JP     -0.058300
     22 CBD        -3.6640    1.0330    0.6830 c3        1 1JP      0.165100
     23 OAH        -3.0150    0.5950    1.8650 oh        1 1JP     -0.620800
     24 CAR        -4.9330    0.1990    0.4600 c3        1 1JP     -0.102400
     25 CAP        -5.8340    0.2570    1.6770 c3        1 1JP     -0.042100
     26 CBB        -7.0380   -0.6070    1.5380 ca        1 1JP     -0.056300
     27 CAL        -8.3220   -0.0500    1.5700 ca        1 1JP     -0.129500
     28 CAJ        -9.4480   -0.8640    1.4590 ca        1 1JP     -0.134500
     29 CAI        -9.3040   -2.2430    1.3140 ca        1 1JP     -0.150000
     30 CAK        -8.0280   -2.8050    1.2800 ca        1 1JP     -0.134500
     31 CAM        -6.9010   -1.9940    1.3930 ca        1 1JP     -0.129500
     32 H2          6.9320    2.2130    0.0460 h1        1 1JP      0.040700
     33 H3          6.3520    0.4870   -2.2270 hn        1 1JP      0.330800
     34 H4          7.8470    0.9170   -1.8160 hn        1 1JP      0.330800
     35 H6          4.6530    3.1540   -0.4920 hc        1 1JP      0.054700
     36 H7          4.3980    1.8390   -1.7100 hc        1 1JP      0.054700
     37 H8          4.7560    0.0980    0.0860 hc        1 1JP      0.065200
     38 H9          5.0380    1.4160    1.2960 hc        1 1JP      0.065200
     39 H10         2.5000    0.4320   -1.1630 hn        1 1JP      0.315500
     40 H11         0.4650    1.1680    0.8880 h1        1 1JP      0.121700
     41 H12         1.0470   -3.1330   -2.2750 h4        1 1JP     -0.005200
     42 H14         0.4610    2.1460   -1.7280 h1        1 1JP      0.106200
     43 H15        -0.4550    0.5920   -1.9680 h1        1 1JP      0.106200
     44 H16        -3.4350    1.1080   -1.4680 h1        1 1JP      0.104200
     45 H17        -2.3350   -0.0630   -0.6600 h1        1 1JP      0.104200
     46 H18        -3.9530    2.1020    0.8990 h1        1 1JP      0.049700
     47 H19        -2.3140   -0.0260    1.6160 ho        1 1JP      0.439000
     48 H20        -5.4730    0.5900   -0.4390 hc        1 1JP      0.052200
     49 H21        -4.6380   -0.8620    0.2500 hc        1 1JP      0.052200
     50 H22        -5.2420   -0.0730    2.5750 hc        1 1JP      0.055700
     51 H23        -6.1420    1.3220    1.8580 hc        1 1JP      0.055700
     52 H24        -8.4420    1.0380    1.6790 ha        1 1JP      0.137000
     53 H25       -10.4510   -0.4160    1.4830 ha        1 1JP      0.120000
     54 H26       -10.1920   -2.8840    1.2240 ha        1 1JP      0.115000
     55 H27        -7.9090   -3.8920    1.1600 ha        1 1JP      0.120000
     56 H28        -5.8940   -2.4380    1.3610 ha        1 1JP      0.137000
@<TRIPOS>BOND
     1    1    2 1   
     2    2    3 1   
     3    2    4 1   
     4    4    5 1   
     5    4    6 1   
     6    4   32 1   
     7    5   33 1   
     8    5   34 1   
     9    6    7 1   
    10    6   35 1   
    11    6   36 1   
    12    7    8 1   
    13    7   37 1   
    14    7   38 1   
    15    8    9 2   
    16    8   10 1   
    17   10   11 1   
    18   10   39 1   
    19   11   12 1   
    20   11   19 1   
    21   11   40 1   
    22   12   13 2   
    23   12   14 1   
    24   14   15 2   
    25   15   16 1   
    26   15   41 1   
    27   16   17 1   
    28   16   18 1   
    29   19   20 1   
    30   19   42 1   
    31   19   43 1   
    32   20   21 1   
    33   21   22 1   
    34   21   44 1   
    35   21   45 1   
    36   22   23 1   
    37   22   24 1   
    38   22   46 1   
    39   23   47 1   
    40   24   25 1   
    41   24   48 1   
    42   24   49 1   
    43   25   26 1   
    44   25   50 1   
    45   25   51 1   
    46   26   27 ar  
    47   26   31 ar  
    48   27   28 ar  
    49   27   52 1   
    50   28   29 ar  
    51   28   53 1   
    52   29   30 ar  
    53   29   54 1   
    54   30   31 ar  
    55   30   55 1   
    56   31   56 1   
@<TRIPOS>SUBSTRUCTURE
     1 1JP         1 TEMP              0 ****  ****    0 ROOT
