@<TRIPOS>MOLECULE
1JP
   56    51     1     0     0
SMALL
bcc


@<TRIPOS>ATOM
      1 O          -2.7630    3.7580    8.3280 o         1 1JP     -0.803000
      2 C          -1.9670    4.3130    7.4910 c1        1 1JP      0.784500
      3 OXT        -0.8250    4.6730    7.8580 o         1 1JP     -0.803000
      4 CA         -2.4500    4.6500    6.1010 c2        1 1JP      0.131200
      5 N          -3.7030    5.3230    6.1860 nh        1 1JP     -0.481100
      6 CB         -2.6150    3.3730    5.2990 c3        1 1JP     -0.137700
      7 CG         -1.8520    3.5000    3.9700 c3        1 1JP     -0.147400
      8 CD         -1.6570    2.0930    3.3500 c         1 1JP      0.665100
      9 OE1        -2.4080    1.1810    3.6570 o         1 1JP     -0.639100
     10 NE2        -0.6530    1.8860    2.3610 n         1 1JP     -0.561900
     11 CBE        -0.4000    0.5880    1.8680 c3        1 1JP      0.044700
     12 CBA         0.4770   -0.1650    2.8560 c         1 1JP      0.571100
     13 OAE         0.0060   -1.0310    3.5350 o         1 1JP     -0.589100
     14 NAU         1.8730    0.2130    3.0260 n1        1 1JP     -0.608800
     15 CAO         2.6490   -0.4700    3.8590 c1        1 1JP      0.361300
     16 CAX         2.0890   -1.6250    4.6210 c1        1 1JP      0.784500
     17 OAF         1.6070   -1.4460    5.7520 o         1 1JP     -0.803000
     18 OAB         2.0210   -2.7450    4.0880 o         1 1JP     -0.803000
     19 CAT         0.3200    0.6820    0.5050 c3        1 1JP     -0.038300
     20 S1         -0.5620   -0.3600   -0.7360 ss        1 1JP     -0.341200
     21 CAS         0.5340   -0.7090   -2.0860 c3        1 1JP     -0.031300
     22 CBD        -0.0760   -1.7900   -2.9830 c3        1 1JP      0.157100
     23 OAH        -0.3130   -2.9720   -2.2220 oh        1 1JP     -0.641800
     24 CAR         0.8850   -2.1070   -4.1310 c3        1 1JP     -0.070400
     25 CAP         0.1230   -2.8530   -5.2430 c3        1 1JP     -0.089300
     26 CBB         1.0820   -3.1230   -6.4350 c1        1 1JP     -0.014100
     27 CAL         1.1120   -2.2560   -7.5080 c1        1 1JP     -0.081500
     28 CAJ         1.9360   -2.5140   -8.5800 c1        1 1JP     -0.081500
     29 CAI         2.7310   -3.6370   -8.5830 c1        1 1JP     -0.081500
     30 CAK         2.7030   -4.5040   -7.5140 c1        1 1JP     -0.081500
     31 CAM         1.8770   -4.2450   -6.4380 c1        1 1JP     -0.078500
     32 H2         -1.7780    5.2460    5.6460 h4        1 1JP     -0.048200
     33 H3         -3.9780    5.3540    7.0760 hn        1 1JP      0.175700
     34 H4         -3.6160    6.1570    5.8710 hn        1 1JP      0.175700
     35 H6         -2.2510    2.6070    5.8170 hc        1 1JP      0.054200
     36 H7         -3.5680    3.2210    5.1170 hc        1 1JP      0.054200
     37 H8         -0.9620    3.9140    4.1380 hc        1 1JP      0.066200
     38 H9         -2.3580    4.0580    3.3550 hc        1 1JP      0.066200
     39 H10        -0.1900    2.5940    2.0330 hn        1 1JP      0.318500
     40 H11        -1.2520    0.1070    1.7550 h1        1 1JP      0.120700
     41 H12         3.6030   -0.2120    3.9760 ha        1 1JP      0.066500
     42 H14         0.3280    1.6190    0.2010 h1        1 1JP      0.102700
     43 H15         1.2470    0.3620    0.6010 h1        1 1JP      0.102700
     44 H16         0.6750    0.1170   -2.6170 h1        1 1JP      0.078200
     45 H17         1.3920   -1.0210   -1.7340 h1        1 1JP      0.078200
     46 H18        -0.9070   -1.4710   -3.3450 h1        1 1JP      0.077700
     47 H19        -1.1570   -3.0270   -2.0310 ho        1 1JP      0.450000
     48 H20         1.2390   -1.3030   -4.4770 hc        1 1JP      0.043700
     49 H21         1.6060   -2.6630   -3.8050 hc        1 1JP      0.043700
     50 H22        -0.2130   -3.7100   -4.8920 hc        1 1JP      0.073200
     51 H23        -0.6420   -2.2980   -5.5500 hc        1 1JP      0.073200
     52 H24         0.5510   -1.4620   -7.5080 ha        1 1JP      0.066500
     53 H25         1.9560   -1.8890   -9.3530 ha        1 1JP      0.066500
     54 H26         3.3230   -3.8220   -9.3560 ha        1 1JP      0.066500
     55 H27         3.3140   -5.2930   -7.4960 ha        1 1JP      0.066500
     56 H28         1.8560   -4.8630   -5.6740 ha        1 1JP      0.072500
@<TRIPOS>BOND
     1    1    2 2   
     2    2    3 2   
     3    4    5 2   
     4    4    6 1   
     5    4   32 1   
     6    5   33 1   
     7    5   34 1   
     8    6    7 1   
     9    6   35 1   
    10    6   36 1   
    11    7    8 1   
    12    7   37 1   
    13    7   38 1   
    14    8    9 2   
    15    8   10 1   
    16   10   11 1   
    17   10   39 1   
    18   11   12 1   
    19   11   19 1   
    20   11   40 1   
    21   12   13 2   
    22   12   14 1   
    23   14   15 3   
    24   15   41 1   
    25   16   17 2   
    26   16   18 2   
    27   19   20 1   
    28   19   42 1   
    29   19   43 1   
    30   20   21 1   
    31   21   22 1   
    32   21   44 1   
    33   21   45 1   
    34   22   23 1   
    35   22   24 1   
    36   22   46 1   
    37   23   47 1   
    38   24   25 1   
    39   24   48 1   
    40   24   49 1   
    41   25   26 1   
    42   25   50 1   
    43   25   51 1   
    44   26   31 3   
    45   27   28 3   
    46   27   52 1   
    47   28   53 1   
    48   29   30 3   
    49   29   54 1   
    50   30   55 1   
    51   31   56 1   
@<TRIPOS>SUBSTRUCTURE
     1 1JP         1 TEMP              0 ****  ****    0 ROOT
