@<TRIPOS>MOLECULE
1JP
   58    58     1     0     0
SMALL
bcc


@<TRIPOS>ATOM
      1 O           3.5230   -1.1610    1.4650 o         1 1JP     -0.768800
      2 C           2.8710   -1.1770    0.3960 c         1 1JP      0.935600
      3 OXT         1.7880   -0.6290    0.1020 o         1 1JP     -0.768800
      4 CA          3.5320   -2.0080   -0.8050 c3        1 1JP     -0.066500
      5 N           4.6890   -2.8030   -0.3210 n4        1 1JP     -0.818600
      6 CB          3.9050   -1.0120   -1.9040 c3        1 1JP     -0.079400
      7 CG          2.6880   -0.6930   -2.7500 c3        1 1JP     -0.166400
      8 CD          2.2240   -1.8490   -3.5910 c         1 1JP      0.562100
      9 OE1         1.1490   -2.4280   -3.5300 o         1 1JP     -0.435100
     10 NE2         3.2020   -2.3280   -4.6370 n4        1 1JP     -0.689800
     11 CBE         2.9330   -3.7040   -5.1620 c3        1 1JP      0.044500
     12 CBA         4.3020   -4.3750   -5.5020 c         1 1JP      0.714500
     13 OAE         5.0620   -3.7990   -6.2910 o         1 1JP     -0.538100
     14 NAU         4.5280   -5.6600   -4.9830 ne        1 1JP     -0.636100
     15 CAO         4.8880   -5.8880   -3.7750 cf        1 1JP      0.480200
     16 CAX         5.0910   -4.8590   -2.6770 c         1 1JP      0.782300
     17 OAF         5.2440   -5.2370   -1.4890 o         1 1JP     -0.839800
     18 OAB         5.0490   -3.6200   -2.9840 o         1 1JP     -0.839800
     19 CAT         2.0090   -3.7170   -6.3760 c3        1 1JP     -0.050300
     20 S1          2.0850   -2.2730   -7.3970 ss        1 1JP     -0.312200
     21 CAS         3.2350   -2.6810   -8.6860 c3        1 1JP     -0.050300
     22 CBD         2.5870   -3.3650   -9.8820 c3        1 1JP      0.145100
     23 OAH         2.0330   -4.6190   -9.5020 oh        1 1JP     -0.595800
     24 CAR         3.6460   -3.6510  -10.9460 c3        1 1JP     -0.074400
     25 CAP         3.0010   -4.0740  -12.2520 c3        1 1JP     -0.035100
     26 CBB         4.0210   -4.4310  -13.2750 ca        1 1JP     -0.083300
     27 CAL         4.2510   -3.5940  -14.3730 ca        1 1JP     -0.126500
     28 CAJ         5.2010   -3.9400  -15.3330 ca        1 1JP     -0.127500
     29 CAI         5.9280   -5.1230  -15.2060 ca        1 1JP     -0.130000
     30 CAK         5.7010   -5.9620  -14.1140 ca        1 1JP     -0.127500
     31 CAM         4.7530   -5.6190  -13.1530 ca        1 1JP     -0.126500
     32 H2          2.7600   -2.7310   -1.1900 hx        1 1JP      0.077700
     33 H3          5.0350   -2.3620    0.5440 hn        1 1JP      0.462800
     34 H4          4.3940   -3.7660   -0.1180 hn        1 1JP      0.462800
     35 H6          4.7580   -1.3810   -2.5330 hc        1 1JP      0.074200
     36 H7          4.2390   -0.0520   -1.4200 hc        1 1JP      0.074200
     37 H8          2.8980    0.1850   -3.4160 hc        1 1JP      0.132200
     38 H9          1.8340   -0.4210   -2.0460 hc        1 1JP      0.132200
     39 H10         3.1910   -1.6720   -5.4430 hn        1 1JP      0.488800
     40 H11         2.4290   -4.2840   -4.3290 hx        1 1JP      0.127700
     41 H12         5.0460   -6.9480   -3.4800 h4        1 1JP      0.051800
     42 H14         2.2180   -4.6410   -6.9750 h1        1 1JP      0.118700
     43 H15         0.9460   -3.7620   -6.0180 h1        1 1JP      0.118700
     44 H16         4.0620   -3.3190   -8.2850 h1        1 1JP      0.103200
     45 H17         3.6650   -1.7000   -9.0090 h1        1 1JP      0.103200
     46 H18         1.7820   -2.7020  -10.3070 h1        1 1JP      0.049700
     47 H19         1.1670   -4.4340   -9.1170 ho        1 1JP      0.403000
     48 H20         4.3250   -4.4660  -10.5800 hc        1 1JP      0.060200
     49 H21         4.2610   -2.7280  -11.1020 hc        1 1JP      0.060200
     50 H22         2.3460   -3.2450  -12.6330 hc        1 1JP      0.054200
     51 H23         2.3380   -4.9620  -12.0560 hc        1 1JP      0.054200
     52 H24         3.6790   -2.6610  -14.4800 ha        1 1JP      0.132000
     53 H25         5.3750   -3.2780  -16.1940 ha        1 1JP      0.132000
     54 H26         6.6760   -5.3960  -15.9640 ha        1 1JP      0.132000
     55 H27         6.2720   -6.8970  -14.0110 ha        1 1JP      0.132000
     56 H28         4.5720   -6.2820  -12.2940 ha        1 1JP      0.132000
     57 HN3         5.4230   -2.8690   -1.0400 hn        1 1JP      0.462800
     58 HE23        4.1530   -2.3360   -4.2120 hn        1 1JP      0.488800
@<TRIPOS>BOND
     1    1    2 1   
     2    2    3 1   
     3    2    4 1   
     4    4    5 1   
     5    4    6 1   
     6    4   32 1   
     7    5   33 1   
     8    5   34 1   
     9    5   57 1   
    10    6    7 1   
    11    6   35 1   
    12    6   36 1   
    13    7    8 1   
    14    7   37 1   
    15    7   38 1   
    16    8    9 2   
    17    8   10 1   
    18   10   11 1   
    19   10   39 1   
    20   10   58 1   
    21   11   12 1   
    22   11   19 1   
    23   11   40 1   
    24   12   13 2   
    25   12   14 1   
    26   14   15 2   
    27   15   16 1   
    28   15   41 1   
    29   16   17 1   
    30   16   18 1   
    31   19   20 1   
    32   19   42 1   
    33   19   43 1   
    34   20   21 1   
    35   21   22 1   
    36   21   44 1   
    37   21   45 1   
    38   22   23 1   
    39   22   24 1   
    40   22   46 1   
    41   23   47 1   
    42   24   25 1   
    43   24   48 1   
    44   24   49 1   
    45   25   26 1   
    46   25   50 1   
    47   25   51 1   
    48   26   27 ar  
    49   26   31 ar  
    50   27   28 ar  
    51   27   52 1   
    52   28   29 ar  
    53   28   53 1   
    54   29   30 ar  
    55   29   54 1   
    56   30   31 ar  
    57   30   55 1   
    58   31   56 1   
@<TRIPOS>SUBSTRUCTURE
     1 1JP         1 TEMP              0 ****  ****    0 ROOT
