@<TRIPOS>MOLECULE
1JP
   58    58     1     0     0
SMALL
bcc


@<TRIPOS>ATOM
      1 O           3.2850   -1.1930    1.4640 o         1 1JP     -0.768800
      2 C           2.6170   -1.4000    0.4250 c         1 1JP      0.935600
      3 OXT         1.4140   -1.1720    0.1810 o         1 1JP     -0.768800
      4 CA          3.4280   -2.0310   -0.8050 c3        1 1JP     -0.065500
      5 N           4.7780   -2.4740   -0.3730 n4        1 1JP     -0.818600
      6 CB          3.4660   -0.9840   -1.9180 c3        1 1JP     -0.079400
      7 CG          2.1730   -1.0190   -2.7080 c3        1 1JP     -0.166400
      8 CD          2.0070   -2.2680   -3.5280 c         1 1JP      0.562100
      9 OE1         1.1360   -3.1180   -3.4190 o         1 1JP     -0.435100
     10 NE2         3.0320   -2.4730   -4.6180 n4        1 1JP     -0.689800
     11 CBE         3.1290   -3.8770   -5.1300 c3        1 1JP      0.044500
     12 CBA         4.6140   -4.1500   -5.5320 c         1 1JP      0.714500
     13 OAE         5.1510   -3.3970   -6.3550 o         1 1JP     -0.538100
     14 NAU         5.2060   -5.3180   -5.0260 ne        1 1JP     -0.635100
     15 CAO         5.6670   -5.4250   -3.8350 cf        1 1JP      0.480200
     16 CAX         5.6270   -4.3670   -2.7470 c         1 1JP      0.782300
     17 OAF         5.9290   -4.6740   -1.5670 o         1 1JP     -0.839800
     18 OAB         5.2330   -3.1910   -3.0510 o         1 1JP     -0.839800
     19 CAT         2.1910   -4.1590   -6.3000 c3        1 1JP     -0.050300
     20 S1          1.8230   -2.7630   -7.3240 ss        1 1JP     -0.312200
     21 CAS         2.9830   -2.8560   -8.6640 c3        1 1JP     -0.050300
     22 CBD         2.4970   -3.7090   -9.8280 c3        1 1JP      0.145100
     23 OAH         2.3230   -5.0610   -9.4210 oh        1 1JP     -0.595800
     24 CAR         3.5470   -3.7090  -10.9390 c3        1 1JP     -0.074400
     25 CAP         2.9870   -4.3120  -12.2130 c3        1 1JP     -0.035100
     26 CBB         4.0220   -4.3920  -13.2800 ca        1 1JP     -0.083300
     27 CAL         3.9680   -3.5410  -14.3890 ca        1 1JP     -0.126500
     28 CAJ         4.9340   -3.6280  -15.3900 ca        1 1JP     -0.127500
     29 CAI         5.9610   -4.5660  -15.2920 ca        1 1JP     -0.130000
     30 CAK         6.0190   -5.4190  -14.1890 ca        1 1JP     -0.127500
     31 CAM         5.0540   -5.3330  -13.1880 ca        1 1JP     -0.126500
     32 H2          2.8680   -2.9420   -1.1550 hx        1 1JP      0.077700
     33 H3          4.7670   -3.4780   -0.1590 hn        1 1JP      0.462800
     34 H4          5.0270   -1.9450    0.4760 hn        1 1JP      0.462800
     35 H6          4.3590   -1.1120   -2.5850 hc        1 1JP      0.074200
     36 H7          3.5440    0.0370   -1.4490 hc        1 1JP      0.074200
     37 H8          1.3080   -0.9830   -1.9670 hc        1 1JP      0.132200
     38 H9          2.1050   -0.1260   -3.3830 hc        1 1JP      0.132200
     39 H10         3.9660   -2.2150   -4.2360 hn        1 1JP      0.488800
     40 H11         2.8410   -4.5620   -4.2740 hx        1 1JP      0.127700
     41 H12         6.1230   -6.3970   -3.5490 h4        1 1JP      0.051800
     42 H14         2.6190   -4.9980   -6.9070 h1        1 1JP      0.118700
     43 H15         1.1990   -4.4880   -5.8930 h1        1 1JP      0.118700
     44 H16         3.9710   -3.2370   -8.3010 h1        1 1JP      0.103200
     45 H17         3.1120   -1.8000   -9.0070 h1        1 1JP      0.103200
     46 H18         1.5240   -3.2970  -10.2180 h1        1 1JP      0.049700
     47 H19         1.4580   -5.1140   -8.9980 ho        1 1JP      0.403000
     48 H20         3.8780   -2.6560  -11.1240 hc        1 1JP      0.060200
     49 H21         4.4380   -4.3020  -10.6020 hc        1 1JP      0.060200
     50 H22         2.6010   -5.3430  -11.9850 hc        1 1JP      0.054200
     51 H23         2.1150   -3.6990  -12.5660 hc        1 1JP      0.054200
     52 H24         3.1580   -2.8000  -14.4730 ha        1 1JP      0.132000
     53 H25         4.8840   -2.9560  -16.2600 ha        1 1JP      0.132000
     54 H26         6.7230   -4.6350  -16.0820 ha        1 1JP      0.132000
     55 H27         6.8270   -6.1610  -14.1100 ha        1 1JP      0.132000
     56 H28         5.0990   -6.0080  -12.3190 ha        1 1JP      0.132000
     57 HN3         5.4710   -2.3430   -1.1250 hn        1 1JP      0.462800
     58 HE23        2.8060   -1.8560   -5.4230 hn        1 1JP      0.488800
@<TRIPOS>BOND
     1    1    2 1   
     2    2    3 1   
     3    2    4 1   
     4    4    5 1   
     5    4    6 1   
     6    4   32 1   
     7    5   33 1   
     8    5   34 1   
     9    5   57 1   
    10    6    7 1   
    11    6   35 1   
    12    6   36 1   
    13    7    8 1   
    14    7   37 1   
    15    7   38 1   
    16    8    9 2   
    17    8   10 1   
    18   10   11 1   
    19   10   39 1   
    20   10   58 1   
    21   11   12 1   
    22   11   19 1   
    23   11   40 1   
    24   12   13 2   
    25   12   14 1   
    26   14   15 2   
    27   15   16 1   
    28   15   41 1   
    29   16   17 1   
    30   16   18 1   
    31   19   20 1   
    32   19   42 1   
    33   19   43 1   
    34   20   21 1   
    35   21   22 1   
    36   21   44 1   
    37   21   45 1   
    38   22   23 1   
    39   22   24 1   
    40   22   46 1   
    41   23   47 1   
    42   24   25 1   
    43   24   48 1   
    44   24   49 1   
    45   25   26 1   
    46   25   50 1   
    47   25   51 1   
    48   26   27 ar  
    49   26   31 ar  
    50   27   28 ar  
    51   27   52 1   
    52   28   29 ar  
    53   28   53 1   
    54   29   30 ar  
    55   29   54 1   
    56   30   31 ar  
    57   30   55 1   
    58   31   56 1   
@<TRIPOS>SUBSTRUCTURE
     1 1JP         1 TEMP              0 ****  ****    0 ROOT
