@<TRIPOS>MOLECULE
1JP
   58    58     1     0     0
SMALL
bcc


@<TRIPOS>ATOM
      1 O           2.9950   -3.3730    0.2750 o         1 1JP     -0.767800
      2 C           2.5860   -2.1820    0.2650 c         1 1JP      0.936600
      3 OXT         2.6590   -1.2990    1.1320 o         1 1JP     -0.767800
      4 CA          1.8600   -1.7410   -1.1000 c3        1 1JP     -0.074500
      5 N           1.2580   -2.9550   -1.7200 nz        1 1JP     -0.824600
      6 CB          2.9220   -1.0640   -1.9510 c3        1 1JP     -0.087400
      7 CG          2.5470   -0.8120   -3.3960 c3        1 1JP     -0.172400
      8 CD          2.7810   -2.0570   -4.2340 c         1 1JP      0.666100
      9 OE1         1.8330   -2.8310   -4.5050 o         1 1JP     -0.652100
     10 NE2         4.0610   -2.3210   -4.6700 ns        1 1JP     -0.533900
     11 CBE         4.4190   -3.6110   -5.1990 c3        1 1JP      0.050700
     12 CBA         4.6470   -4.7050   -4.1240 c         1 1JP      0.661500
     13 OAE         5.0200   -5.8390   -4.4660 o         1 1JP     -0.556100
     14 NAU         4.2770   -4.4130   -2.7890 ne        1 1JP     -0.679100
     15 CAO         4.9930   -4.6040   -1.7480 cf        1 1JP      0.472200
     16 CAX         6.4010   -5.1140   -1.6670 c         1 1JP      0.478800
     17 OAF         7.3360   -4.5230   -1.1330 o         1 1JP     -0.452000
     18 OAB         6.7180   -6.3330   -2.1810 oh        1 1JP     -0.567100
     19 CAT         5.6700   -3.5700   -6.0810 c3        1 1JP     -0.038300
     20 S1          5.4990   -2.5960   -7.5350 ss        1 1JP     -0.283200
     21 CAS         4.7010   -3.6970   -8.6700 c3        1 1JP     -0.058300
     22 CBD         4.1840   -2.8630   -9.8350 c3        1 1JP      0.155100
     23 OAH         2.8990   -2.3290   -9.5440 oh        1 1JP     -0.594800
     24 CAR         4.0290   -3.7260  -11.0860 c3        1 1JP     -0.068400
     25 CAP         3.6810   -2.8750  -12.2930 c3        1 1JP     -0.037100
     26 CBB         3.4490   -3.7120  -13.5010 ca        1 1JP     -0.080300
     27 CAL         4.3970   -3.7560  -14.5300 ca        1 1JP     -0.127500
     28 CAJ         4.1680   -4.5350  -15.6640 ca        1 1JP     -0.128000
     29 CAI         2.9910   -5.2740  -15.7800 ca        1 1JP     -0.131000
     30 CAK         2.0420   -5.2320  -14.7590 ca        1 1JP     -0.128000
     31 CAM         2.2680   -4.4550  -13.6250 ca        1 1JP     -0.127500
     32 H2          1.0260   -1.0260   -0.8640 hx        1 1JP      0.092700
     33 H3          1.9910   -3.6810   -1.7440 hn        1 1JP      0.454133
     34 H4          0.5080   -3.2880   -1.1150 hn        1 1JP      0.454133
     35 H6          3.8710   -1.6650   -1.8990 hc        1 1JP      0.087700
     36 H7          3.1310   -0.0810   -1.4420 hc        1 1JP      0.087700
     37 H8          1.4650   -0.5290   -3.4860 hc        1 1JP      0.080700
     38 H9          3.1500    0.0470   -3.7960 hc        1 1JP      0.080700
     39 H10         5.9670   -6.7110   -2.6680 ho        1 1JP      0.450000
     40 H11         3.5390   -3.9910   -5.8110 h1        1 1JP      0.119700
     41 H12         4.5460   -4.3180   -0.7540 h4        1 1JP      0.126800
     42 H14         5.9380   -4.6260   -6.3440 h1        1 1JP      0.100700
     43 H15         6.5350   -3.1260   -5.5250 h1        1 1JP      0.100700
     44 H16         3.8540   -4.2340   -8.1790 h1        1 1JP      0.078700
     45 H17         5.4310   -4.4600   -9.0320 h1        1 1JP      0.078700
     46 H18         4.9020   -2.0160  -10.0420 h1        1 1JP      0.049700
     47 H19         2.9990   -1.7760   -8.7590 ho        1 1JP      0.408000
     48 H20         4.9880   -4.2750  -11.2680 hc        1 1JP      0.056700
     49 H21         3.2200   -4.4820  -10.9120 hc        1 1JP      0.056700
     50 H22         2.7550   -2.2810  -12.0610 hc        1 1JP      0.057200
     51 H23         4.5090   -2.1420  -12.4830 hc        1 1JP      0.057200
     52 H24         5.3260   -3.1740  -14.4440 ha        1 1JP      0.132000
     53 H25         4.9180   -4.5640  -16.4680 ha        1 1JP      0.131000
     54 H26         2.8110   -5.8870  -16.6750 ha        1 1JP      0.131000
     55 H27         1.1110   -5.8120  -14.8490 ha        1 1JP      0.131000
     56 H28         1.5180   -4.4190  -12.8210 ha        1 1JP      0.132000
     57 HN3         0.9040   -2.7790   -2.6640 hn        1 1JP      0.454133
     58 HE23        4.7990   -1.7090   -4.4080 hn        1 1JP      0.325500
@<TRIPOS>BOND
     1    1    2 1   
     2    2    3 1   
     3    2    4 1   
     4    4    5 1   
     5    4    6 1   
     6    4   32 1   
     7    5   33 1   
     8    5   34 1   
     9    5   57 1   
    10    6    7 1   
    11    6   35 1   
    12    6   36 1   
    13    7    8 1   
    14    7   37 1   
    15    7   38 1   
    16    8    9 2   
    17    8   10 1   
    18   10   11 1   
    19   10   58 1   
    20   11   12 1   
    21   11   19 1   
    22   11   40 1   
    23   12   13 2   
    24   12   14 1   
    25   14   15 2   
    26   15   16 1   
    27   15   41 1   
    28   16   17 2   
    29   16   18 1   
    30   18   39 1   
    31   19   20 1   
    32   19   42 1   
    33   19   43 1   
    34   20   21 1   
    35   21   22 1   
    36   21   44 1   
    37   21   45 1   
    38   22   23 1   
    39   22   24 1   
    40   22   46 1   
    41   23   47 1   
    42   24   25 1   
    43   24   48 1   
    44   24   49 1   
    45   25   26 1   
    46   25   50 1   
    47   25   51 1   
    48   26   27 ar  
    49   26   31 ar  
    50   27   28 ar  
    51   27   52 1   
    52   28   29 ar  
    53   28   53 1   
    54   29   30 ar  
    55   29   54 1   
    56   30   31 ar  
    57   30   55 1   
    58   31   56 1   
@<TRIPOS>SUBSTRUCTURE
     1 1JP         1 TEMP              0 ****  ****    0 ROOT
