@<TRIPOS>MOLECULE
1JQ
   29    30     1     0     0
SMALL
bcc


@<TRIPOS>ATOM
      1 CBC         0.0010    0.4070   -0.1390 c3        1 1JQ     -0.131700
      2 CBS        -0.6050    0.0100   -1.4150 cc        1 1JQ      0.327000
      3 CBA        -0.5490   -1.0990   -2.2410 cd        1 1JQ     -0.390600
      4 OBK        -1.5170    0.9250   -2.0060 os        1 1JQ     -0.133100
      5 NBG        -2.0050    0.4330   -3.1240 nc        1 1JQ     -0.390300
      6 CBU        -1.4660   -0.7920   -3.3370 cd        1 1JQ      0.354800
      7 CBT        -1.7510   -1.6630   -4.4650 ca        1 1JQ     -0.105500
      8 CAU        -2.2670   -1.1490   -5.6640 ca        1 1JQ     -0.107500
      9 CAO        -2.5270   -2.0000   -6.7370 ca        1 1JQ     -0.140500
     10 CAJ        -2.2790   -3.3680   -6.6260 ca        1 1JQ     -0.134000
     11 CAP        -1.7680   -3.8850   -5.4360 ca        1 1JQ     -0.140500
     12 CAV        -1.5050   -3.0410   -4.3600 ca        1 1JQ     -0.107500
     13 CBF         2.3690    1.0630   -0.6320 c3        1 1JQ     -0.070100
     14 CBV         1.4660    0.0160   -0.0290 c3        1 1JQ     -0.187700
     15 CBN         1.8560   -0.2460    1.4540 c         1 1JQ      0.915600
     16 OAC         0.9310   -0.3690    2.3060 o         1 1JQ     -0.837800
     17 OX0         3.0850   -0.3570    1.7170 o         1 1JQ     -0.837800
     18 HBC1       -0.1170    1.5130    0.0100 hc        1 1JQ      0.089200
     19 HBC2       -0.5610   -0.1030    0.7010 hc        1 1JQ      0.089200
     20 HBV         1.6300   -0.9600   -0.5630 hc        1 1JQ      0.035700
     21 HBA         0.0460   -1.9960   -2.1240 ha        1 1JQ      0.175000
     22 HAU        -2.4660   -0.0710   -5.7600 ha        1 1JQ      0.145000
     23 HAV        -1.1050   -3.4520   -3.4200 ha        1 1JQ      0.145000
     24 HAO        -2.9310   -1.5890   -7.6730 ha        1 1JQ      0.125000
     25 HAJ        -2.4850   -4.0360   -7.4740 ha        1 1JQ      0.122000
     26 HAP        -1.5710   -4.9630   -5.3440 ha        1 1JQ      0.125000
     27 HBF1        2.2000    1.1570   -1.7320 hc        1 1JQ      0.022367
     28 HBF2        2.1870    2.0590   -0.1610 hc        1 1JQ      0.022367
     29 HBF3        3.4340    0.7790   -0.4460 hc        1 1JQ      0.022367
@<TRIPOS>BOND
     1    1    2 1   
     2    1   14 1   
     3    1   18 1   
     4    1   19 1   
     5    2    3 2   
     6    2    4 1   
     7    3    6 1   
     8    3   21 1   
     9    4    5 1   
    10    5    6 2   
    11    6    7 1   
    12    7    8 ar  
    13    7   12 ar  
    14    8    9 ar  
    15    8   22 1   
    16    9   10 ar  
    17    9   24 1   
    18   10   11 ar  
    19   10   25 1   
    20   11   12 ar  
    21   11   26 1   
    22   12   23 1   
    23   13   14 1   
    24   13   27 1   
    25   13   28 1   
    26   13   29 1   
    27   14   15 1   
    28   14   20 1   
    29   15   16 1   
    30   15   17 1   
@<TRIPOS>SUBSTRUCTURE
     1 1JQ         1 TEMP              0 ****  ****    0 ROOT
