@<TRIPOS>MOLECULE
1JQ
   29    30     1     0     0
SMALL
bcc


@<TRIPOS>ATOM
      1 CBC         2.2550   -0.5160   -0.8300 c3        1 1JQ     -0.131700
      2 CBS         0.7950   -0.5850   -0.7050 cc        1 1JQ      0.327000
      3 CBA        -0.2060    0.2560   -0.2520 cd        1 1JQ     -0.390600
      4 OBK         0.1640   -1.7680   -1.1750 os        1 1JQ     -0.133100
      5 NBG        -1.1400   -1.6850   -1.0310 nc        1 1JQ     -0.390300
      6 CBU        -1.4450   -0.4860   -0.4770 cd        1 1JQ      0.354800
      7 CBT        -2.7810   -0.0110   -0.1590 ca        1 1JQ     -0.105500
      8 CAU        -3.8450   -0.9070    0.0170 ca        1 1JQ     -0.107500
      9 CAO        -5.1180   -0.4310    0.3280 ca        1 1JQ     -0.140500
     10 CAJ        -5.3430    0.9380    0.4660 ca        1 1JQ     -0.134000
     11 CAP        -4.2890    1.8340    0.2910 ca        1 1JQ     -0.140500
     12 CAV        -3.0140    1.3660   -0.0200 ca        1 1JQ     -0.107500
     13 CBF         3.1970   -0.8580    1.4680 c3        1 1JQ     -0.070100
     14 CBV         2.9240    0.1390    0.3680 c3        1 1JQ     -0.187700
     15 CBN         4.2410    0.8510   -0.0570 c         1 1JQ      0.915600
     16 OAC         4.4550    1.0330   -1.2890 o         1 1JQ     -0.837800
     17 OX0         5.0110    1.2400    0.8640 o         1 1JQ     -0.837800
     18 HBC1        2.6720   -1.5450   -0.9920 hc        1 1JQ      0.089200
     19 HBC2        2.5100    0.0930   -1.7490 hc        1 1JQ      0.089200
     20 HBV         2.2560    0.9500    0.7670 hc        1 1JQ      0.035700
     21 HBA        -0.1100    1.2420    0.1880 ha        1 1JQ      0.175000
     22 HAU        -3.6770   -1.9900   -0.0910 ha        1 1JQ      0.145000
     23 HAV        -2.1850    2.0760   -0.1610 ha        1 1JQ      0.145000
     24 HAO        -5.9470   -1.1410    0.4650 ha        1 1JQ      0.125000
     25 HAJ        -6.3480    1.3100    0.7120 ha        1 1JQ      0.122000
     26 HAP        -4.4620    2.9150    0.3980 ha        1 1JQ      0.125000
     27 HBF1        3.8120   -1.7080    1.0850 hc        1 1JQ      0.022367
     28 HBF2        3.7710   -0.3530    2.2840 hc        1 1JQ      0.022367
     29 HBF3        2.2460   -1.2690    1.8840 hc        1 1JQ      0.022367
@<TRIPOS>BOND
     1    1    2 1   
     2    1   14 1   
     3    1   18 1   
     4    1   19 1   
     5    2    3 2   
     6    2    4 1   
     7    3    6 1   
     8    3   21 1   
     9    4    5 1   
    10    5    6 2   
    11    6    7 1   
    12    7    8 ar  
    13    7   12 ar  
    14    8    9 ar  
    15    8   22 1   
    16    9   10 ar  
    17    9   24 1   
    18   10   11 ar  
    19   10   25 1   
    20   11   12 ar  
    21   11   26 1   
    22   12   23 1   
    23   13   14 1   
    24   13   27 1   
    25   13   28 1   
    26   13   29 1   
    27   14   15 1   
    28   14   20 1   
    29   15   16 1   
    30   15   17 1   
@<TRIPOS>SUBSTRUCTURE
     1 1JQ         1 TEMP              0 ****  ****    0 ROOT
