@<TRIPOS>MOLECULE
1JQ
   29    30     1     0     0
SMALL
bcc


@<TRIPOS>ATOM
      1 CBC         0.0240    0.4370   -0.1600 c3        1 1JQ     -0.131700
      2 CBS        -0.5780    0.0450   -1.4390 cc        1 1JQ      0.327000
      3 CBA        -0.5640   -1.0820   -2.2420 cd        1 1JQ     -0.390600
      4 OBK        -1.4300    0.9930   -2.0670 os        1 1JQ     -0.133100
      5 NBG        -1.9210    0.5040   -3.1840 nc        1 1JQ     -0.390300
      6 CBU        -1.4430   -0.7520   -3.3620 cd        1 1JQ      0.354800
      7 CBT        -1.7520   -1.6310   -4.4780 ca        1 1JQ     -0.105500
      8 CAU        -2.2170   -1.1150   -5.6970 ca        1 1JQ     -0.107500
      9 CAO        -2.5010   -1.9750   -6.7570 ca        1 1JQ     -0.140500
     10 CAJ        -2.3260   -3.3500   -6.6140 ca        1 1JQ     -0.134000
     11 CAP        -1.8660   -3.8690   -5.4030 ca        1 1JQ     -0.140500
     12 CAV        -1.5800   -3.0160   -4.3390 ca        1 1JQ     -0.107500
     13 CBF         2.4310    0.9630   -0.6180 c3        1 1JQ     -0.070100
     14 CBV         1.4640   -0.0250   -0.0130 c3        1 1JQ     -0.187700
     15 CBN         1.8130   -0.2770    1.4820 c         1 1JQ      0.915600
     16 OAC         0.8670   -0.3360    2.3180 o         1 1JQ     -0.837800
     17 OX0         3.0300   -0.4440    1.7720 o         1 1JQ     -0.837800
     18 HBC1       -0.0410    1.5510   -0.0340 hc        1 1JQ      0.089200
     19 HBC2       -0.5790   -0.0260    0.6790 hc        1 1JQ      0.089200
     20 HBV         1.5880   -1.0180   -0.5250 hc        1 1JQ      0.035700
     21 HBA        -0.0180   -2.0060   -2.0940 ha        1 1JQ      0.175000
     22 HAU        -2.3570   -0.0310   -5.8180 ha        1 1JQ      0.145000
     23 HAV        -1.2200   -3.4280   -3.3840 ha        1 1JQ      0.145000
     24 HAO        -2.8640   -1.5630   -7.7100 ha        1 1JQ      0.125000
     25 HAJ        -2.5500   -4.0250   -7.4520 ha        1 1JQ      0.122000
     26 HAP        -1.7280   -4.9530   -5.2860 ha        1 1JQ      0.125000
     27 HBF1        3.4760    0.6300   -0.4060 hc        1 1JQ      0.022367
     28 HBF2        2.2870    1.0430   -1.7230 hc        1 1JQ      0.022367
     29 HBF3        2.2910    1.9760   -0.1700 hc        1 1JQ      0.022367
@<TRIPOS>BOND
     1    1    2 1   
     2    1   14 1   
     3    1   18 1   
     4    1   19 1   
     5    2    3 2   
     6    2    4 1   
     7    3    6 1   
     8    3   21 1   
     9    4    5 1   
    10    5    6 2   
    11    6    7 1   
    12    7    8 ar  
    13    7   12 ar  
    14    8    9 ar  
    15    8   22 1   
    16    9   10 ar  
    17    9   24 1   
    18   10   11 ar  
    19   10   25 1   
    20   11   12 ar  
    21   11   26 1   
    22   12   23 1   
    23   13   14 1   
    24   13   27 1   
    25   13   28 1   
    26   13   29 1   
    27   14   15 1   
    28   14   20 1   
    29   15   16 1   
    30   15   17 1   
@<TRIPOS>SUBSTRUCTURE
     1 1JQ         1 TEMP              0 ****  ****    0 ROOT
