@<TRIPOS>MOLECULE
1JQ
   29    26     1     0     0
SMALL
bcc


@<TRIPOS>ATOM
      1 CBC         0.5830    2.4320    0.1040 c3        1 1JQ     -0.006200
      2 CBS         0.0970    1.0110    0.2890 c2        1 1JQ     -0.028200
      3 CBA         0.2160   -0.0080   -0.6240 c1        1 1JQ     -0.082800
      4 OBK        -0.5820    0.5360    1.3600 os        1 1JQ     -0.080400
      5 NBG        -0.8920   -0.7970    1.1150 n2        1 1JQ     -0.196700
      6 CBU        -0.4020   -1.1240   -0.0990 ce        1 1JQ     -0.034800
      7 CBT        -0.4990   -2.3640   -0.7110 cg        1 1JQ     -0.032300
      8 CAU         0.5000   -3.3070   -0.5260 c1        1 1JQ     -0.052500
      9 CAO         0.3710   -4.5710   -1.0820 c1        1 1JQ     -0.074250
     10 CAJ        -0.7560   -4.8910   -1.8220 c1        1 1JQ     -0.074250
     11 CAP        -1.7550   -3.9480   -2.0070 c1        1 1JQ     -0.074250
     12 CAV        -1.6270   -2.6850   -1.4510 c1        1 1JQ     -0.074250
     13 CBF         1.6740    4.2650    1.3510 c3        1 1JQ     -0.067100
     14 CBV         0.7150    3.1000    1.4550 c3        1 1JQ     -0.192700
     15 CBN        -0.6400    3.6010    1.9040 c         1 1JQ      0.913600
     16 OAC        -1.1320    3.1990    2.9910 o         1 1JQ     -0.840800
     17 OX0        -1.2620    4.4440    1.2050 o         1 1JQ     -0.840800
     18 HBC1       -0.0580    2.9270   -0.4440 hc        1 1JQ      0.059200
     19 HBC2        1.4540    2.4230   -0.3410 hc        1 1JQ      0.059200
     20 HBV         1.0550    2.4560    2.1050 hc        1 1JQ      0.042700
     21 HBA         0.6590    0.0480   -1.4920 DU        1 1JQ      0.233000
     22 HAU         1.2930   -3.0820   -0.0050 ha        1 1JQ      0.085500
     23 HAV        -2.3280   -2.0190   -1.5840 ha        1 1JQ      0.074500
     24 HAO         1.0750   -5.2350   -0.9520 ha        1 1JQ      0.074500
     25 HAJ        -0.8570   -5.7880   -2.1930 ha        1 1JQ      0.074500
     26 HAP        -2.5490   -4.1730   -2.5280 ha        1 1JQ      0.074500
     27 HBF1        1.6320    4.7980    2.1720 hc        1 1JQ      0.020700
     28 HBF2        2.5860    3.9270    1.2270 hc        1 1JQ      0.020700
     29 HBF3        1.4270    4.8240    0.5850 hc        1 1JQ      0.020700
@<TRIPOS>BOND
     1    1    2 1   
     2    1   14 1   
     3    1   18 1   
     4    1   19 1   
     5    2    3 2   
     6    2    4 1   
     7    3    6 2   
     8    4    5 1   
     9    5    6 1   
    10    6    7 1   
    11    7    8 3   
    12    8   22 1   
    13    9   10 3   
    14    9   24 1   
    15   10   25 1   
    16   11   12 3   
    17   11   26 1   
    18   12   23 1   
    19   13   14 1   
    20   13   27 1   
    21   13   28 1   
    22   13   29 1   
    23   14   15 1   
    24   14   20 1   
    25   15   16 1   
    26   15   17 1   
@<TRIPOS>SUBSTRUCTURE
     1 1JQ         1 TEMP              0 ****  ****    0 ROOT
