@<TRIPOS>MOLECULE
1JR
   33    36     1     0     0
SMALL
bcc


@<TRIPOS>ATOM
      1 C1         -0.3000    0.1740    0.1550 ca        1 1JR     -0.115000
      2 C2          1.0680   -0.0840    0.0640 ca        1 1JR     -0.127500
      3 C3         -0.8890    0.3670    1.4040 ca        1 1JR     -0.127500
      4 C4          3.1560   -4.9920    1.6520 ca        1 1JR     -0.249300
      5 C5          1.8480   -0.1460    1.2170 ca        1 1JR     -0.108500
      6 C6         -0.1170    0.3060    2.5620 ca        1 1JR     -0.108500
      7 C7          3.7850   -3.7840    1.9520 ca        1 1JR     -0.078000
      8 C8          2.2570   -5.5320    2.5900 ca        1 1JR      0.404200
      9 C9          2.5840   -3.7770    4.0430 ca        1 1JR      0.419200
     10 C10         1.2590    0.0500    2.4750 ca        1 1JR     -0.032000
     11 C11         3.4990   -3.1530    3.1680 ca        1 1JR     -0.234600
     12 C12         3.1890   -0.8030    3.9830 cc        1 1JR     -0.264600
     13 C13         2.0840   -0.0210    3.6640 cd        1 1JR      0.003700
     14 C14         3.5760   -0.3760    5.3380 cc        1 1JR      0.224800
     15 C15         4.7570   -1.1670    5.7530 c         1 1JR      0.628000
     16 C16         4.1550   -1.8500    3.5210 c3        1 1JR      0.231300
     17 N17         1.9700   -4.9420    3.7680 nb        1 1JR     -0.661000
     18 N18         1.8760    0.7930    4.8100 na        1 1JR     -0.029600
     19 N19         2.7530    0.5900    5.7930 nd        1 1JR     -0.403800
     20 N20         5.1280   -1.9500    4.6310 n         1 1JR     -0.549900
     21 O21         5.3600   -1.1590    6.8300 o         1 1JR     -0.577500
     22 H1         -0.9130    0.2230   -0.7570 ha        1 1JR      0.138000
     23 H2          1.5350   -0.2380   -0.9200 ha        1 1JR      0.138000
     24 H3         -1.9690    0.5650    1.4780 ha        1 1JR      0.138000
     25 H5          2.9270   -0.3490    1.1470 ha        1 1JR      0.136000
     26 H6         -0.5970    0.4440    3.5420 ha        1 1JR      0.136000
     27 H7          4.4950   -3.3340    1.2420 ha        1 1JR      0.140000
     28 H8          1.7370   -6.4870    2.3930 h4        1 1JR      0.025100
     29 H9          2.3250   -3.3120    5.0120 h4        1 1JR      0.033100
     30 H10         4.7270   -1.4690    2.6200 h1        1 1JR      0.078700
     31 H11         1.1630    1.4800    4.9080 hn        1 1JR      0.327700
     32 H12         5.5700   -2.8250    4.7820 hn        1 1JR      0.317500
     33 H4          3.3540   -5.5140    0.7080 ha        1 1JR      0.146000
@<TRIPOS>BOND
     1    1    2 ar  
     2    1    3 ar  
     3    1   22 1   
     4    2    5 ar  
     5    2   23 1   
     6    3    6 ar  
     7    3   24 1   
     8    4    7 ar  
     9    4    8 ar  
    10    4   33 1   
    11    5   10 ar  
    12    5   25 1   
    13    6   10 ar  
    14    6   26 1   
    15    7   11 ar  
    16    7   27 1   
    17    8   17 ar  
    18    8   28 1   
    19    9   11 ar  
    20    9   17 ar  
    21    9   29 1   
    22   10   13 1   
    23   11   16 1   
    24   12   13 2   
    25   12   14 1   
    26   12   16 1   
    27   13   18 1   
    28   14   15 1   
    29   14   19 2   
    30   15   20 1   
    31   15   21 2   
    32   16   20 1   
    33   16   30 1   
    34   18   19 1   
    35   18   31 1   
    36   20   32 1   
@<TRIPOS>SUBSTRUCTURE
     1 1JR         1 TEMP              0 ****  ****    0 ROOT
