@<TRIPOS>MOLECULE
1JR
   33    25     1     0     0
SMALL
bcc


@<TRIPOS>ATOM
      1 C1         -1.3180   -1.7960   -3.7620 c1        1 1JR     -0.119667
      2 C2         -1.9460   -0.6230   -3.3750 c1        1 1JR     -0.119667
      3 C3         -0.6560   -2.5710   -2.8210 c1        1 1JR     -0.119667
      4 C4          3.4800    0.5020    1.1010 c1        1 1JR     -0.119667
      5 C5         -1.9130   -0.2230   -2.0480 c1        1 1JR     -0.119667
      6 C6         -0.6220   -2.1710   -1.4940 c1        1 1JR     -0.120000
      7 C7          2.1500    0.3940    1.3870 c1        1 1JR     -0.119667
      8 C8          3.9140    1.4330    0.1700 c1        1 1JR     -0.063000
      9 C9          1.6850    2.1310   -0.1750 c1        1 1JR     -0.058000
     10 C10        -1.2510   -0.9970   -1.1080 c1        1 1JR     -0.028000
     11 C11         1.2490    1.2010    0.7560 c1        1 1JR     -0.159000
     12 C12        -0.9410    0.1400    1.1820 c1        1 1JR     -0.192000
     13 C13        -1.4080   -0.8870    0.3930 c1        1 1JR     -0.080500
     14 C14        -1.3430   -0.0970    2.4590 c1        1 1JR     -0.080500
     15 C15        -0.8860    1.0720    3.3180 c1        1 1JR      0.376000
     16 C16        -0.1730    1.4510    1.1680 c2        1 1JR      0.140000
     17 N17         3.0140    2.2390   -0.4600 n1        1 1JR     -0.137000
     18 N18        -2.0900   -1.7440    1.1840 n2        1 1JR     -0.072500
     19 N19        -2.0520   -1.2580    2.4670 n2        1 1JR     -0.072500
     20 N20        -0.2040    1.9930    2.4780 n2        1 1JR     -0.362000
     21 O21        -1.1060    1.2160    4.5040 o         1 1JR     -0.304000
     22 H1         -1.3410   -2.0780   -4.6960 ha        1 1JR      0.142167
     23 H2         -2.4120   -0.0780   -4.0380 ha        1 1JR      0.142167
     24 H3         -0.2130   -3.3970   -3.0930 ha        1 1JR      0.142167
     25 H4          4.1250   -0.0750    1.5520 ha        1 1JR      0.142167
     26 H5         -2.3550    0.6030   -1.7760 ha        1 1JR      0.142167
     27 H6         -0.1560   -2.7160   -0.8320 ha        1 1JR      0.128000
     28 H7          1.8430   -0.2610    2.0420 ha        1 1JR      0.142167
     29 H8          4.8650    1.5110   -0.0350 ha        1 1JR      0.163000
     30 H9          1.0410    2.7090   -0.6270 ha        1 1JR      0.159000
     31 H10        -0.5940    2.0730    0.5430 h4        1 1JR      0.120000
     32 H11        -2.5120   -2.5040    0.9110 DU        1 1JR      0.277000
     33 H12         0.1210    2.8080    2.7280 hn        1 1JR      0.232000
@<TRIPOS>BOND
     1    1    3 1   
     2    1   22 1   
     3    2    5 1   
     4    2   23 1   
     5    3   24 1   
     6    4    7 1   
     7    4   25 1   
     8    5   26 1   
     9    6   10 1   
    10    6   27 1   
    11    7   28 1   
    12    8   17 1   
    13    8   29 1   
    14    9   11 1   
    15    9   30 1   
    16   11   16 1   
    17   12   13 1   
    18   12   14 1   
    19   13   18 1   
    20   14   19 1   
    21   15   21 1   
    22   16   20 1   
    23   16   31 1   
    24   18   19 1   
    25   20   33 1   
@<TRIPOS>SUBSTRUCTURE
     1 1JR         1 TEMP              0 ****  ****    0 ROOT
