@<TRIPOS>MOLECULE
1JR
   33    36     1     0     0
SMALL
bcc


@<TRIPOS>ATOM
      1 C1         -0.3010    0.1740    0.1560 ca        1 1JR     -0.115000
      2 C2          1.0650   -0.0910    0.0610 ca        1 1JR     -0.127500
      3 C3         -0.8850    0.3770    1.4070 ca        1 1JR     -0.127500
      4 C4          3.1340   -5.0030    1.6670 ca        1 1JR     -0.249300
      5 C5          1.8490   -0.1510    1.2120 ca        1 1JR     -0.108500
      6 C6         -0.1080    0.3180    2.5620 ca        1 1JR     -0.108500
      7 C7          3.7710   -3.7970    1.9580 ca        1 1JR     -0.078000
      8 C8          2.2350   -5.5330    2.6100 ca        1 1JR      0.404200
      9 C9          2.5750   -3.7720    4.0520 ca        1 1JR      0.419200
     10 C10         1.2660    0.0540    2.4710 ca        1 1JR     -0.032000
     11 C11         3.4920   -3.1570    3.1720 ca        1 1JR     -0.234600
     12 C12         3.1970   -0.8020    3.9760 cc        1 1JR     -0.264600
     13 C13         2.0950   -0.0160    3.6580 cd        1 1JR      0.003700
     14 C14         3.5920   -0.3710    5.3270 cc        1 1JR      0.224800
     15 C15         4.7700   -1.1660    5.7420 c         1 1JR      0.628000
     16 C16         4.1560   -1.8560    3.5160 c3        1 1JR      0.231300
     17 N17         1.9550   -4.9350    3.7850 nb        1 1JR     -0.661000
     18 N18         1.8960    0.8050    4.8000 na        1 1JR     -0.029600
     19 N19         2.7760    0.6020    5.7800 nd        1 1JR     -0.403800
     20 N20         5.1330   -1.9560    4.6220 ns        1 1JR     -0.549900
     21 O21         5.3770   -1.1560    6.8160 o         1 1JR     -0.577500
     22 H1         -0.9180    0.2220   -0.7540 ha        1 1JR      0.138000
     23 H2          1.5280   -0.2520   -0.9240 ha        1 1JR      0.138000
     24 H3         -1.9640    0.5800    1.4840 ha        1 1JR      0.138000
     25 H5          2.9270   -0.3600    1.1390 ha        1 1JR      0.136000
     26 H6         -0.5840    0.4620    3.5430 ha        1 1JR      0.136000
     27 H7          4.4820   -3.3550    1.2430 ha        1 1JR      0.140000
     28 H8          1.7090   -6.4860    2.4190 h4        1 1JR      0.025100
     29 H9          2.3220   -3.3000    5.0190 h4        1 1JR      0.033100
     30 H10         4.7270   -1.4830    2.6110 h1        1 1JR      0.078700
     31 H11         1.1870    1.4960    4.8970 hn        1 1JR      0.327700
     32 H12         5.5700   -2.8320    4.7760 hn        1 1JR      0.317500
     33 H4          3.3270   -5.5320    0.7240 ha        1 1JR      0.146000
@<TRIPOS>BOND
     1    1    2 ar  
     2    1    3 ar  
     3    1   22 1   
     4    2    5 ar  
     5    2   23 1   
     6    3    6 ar  
     7    3   24 1   
     8    4    7 ar  
     9    4    8 ar  
    10    4   33 1   
    11    5   10 ar  
    12    5   25 1   
    13    6   10 ar  
    14    6   26 1   
    15    7   11 ar  
    16    7   27 1   
    17    8   17 ar  
    18    8   28 1   
    19    9   11 ar  
    20    9   17 ar  
    21    9   29 1   
    22   10   13 1   
    23   11   16 1   
    24   12   13 2   
    25   12   14 1   
    26   12   16 1   
    27   13   18 1   
    28   14   15 1   
    29   14   19 2   
    30   15   20 1   
    31   15   21 2   
    32   16   20 1   
    33   16   30 1   
    34   18   19 1   
    35   18   31 1   
    36   20   32 1   
@<TRIPOS>SUBSTRUCTURE
     1 1JR         1 TEMP              0 ****  ****    0 ROOT
