@<TRIPOS>MOLECULE
1JR
   33    36     1     0     0
SMALL
bcc


@<TRIPOS>ATOM
      1 C1          4.6120    0.1470    0.0550 ca        1 1JR     -0.115000
      2 C2          3.7270   -0.0780    1.1090 ca        1 1JR     -0.127500
      3 C3          4.1740    0.8100   -1.0920 ca        1 1JR     -0.127500
      4 C4         -0.3530   -3.8480    0.6620 ca        1 1JR     -0.249300
      5 C5          2.4070    0.3590    1.0210 ca        1 1JR     -0.108500
      6 C6          2.8560    1.2510   -1.1870 ca        1 1JR     -0.108500
      7 C7         -0.5560   -2.6010    1.2530 ca        1 1JR     -0.078000
      8 C8         -0.6150   -3.9900   -0.7130 ca        1 1JR      0.404200
      9 C9         -1.2410   -1.7850   -0.9100 ca        1 1JR      0.419200
     10 C10         1.9630    1.0290   -0.1290 ca        1 1JR     -0.032000
     11 C11        -1.0070   -1.5390    0.4600 ca        1 1JR     -0.234600
     12 C12        -0.5950    0.9270    0.2830 cc        1 1JR     -0.264600
     13 C13         0.5870    1.4740   -0.2050 cd        1 1JR      0.003700
     14 C14        -1.6450    1.8790   -0.1140 cc        1 1JR      0.224800
     15 C15        -2.9460    1.3660    0.3750 c         1 1JR      0.628000
     16 C16        -1.2310   -0.1830    1.0620 c3        1 1JR      0.231300
     17 N17        -1.0510   -2.9820   -1.4930 nb        1 1JR     -0.661000
     18 N18         0.1880    2.6750   -0.8510 na        1 1JR     -0.029600
     19 N19        -1.1220    2.9180   -0.7950 nd        1 1JR     -0.403800
     20 N20        -2.6560    0.2090    1.1410 n         1 1JR     -0.549900
     21 O21        -4.0770    1.8300    0.2110 o         1 1JR     -0.577500
     22 H1          5.6540   -0.1990    0.1270 ha        1 1JR      0.138000
     23 H2          4.0700   -0.6020    2.0140 ha        1 1JR      0.138000
     24 H3          4.8700    0.9840   -1.9270 ha        1 1JR      0.138000
     25 H5          1.7070    0.1830    1.8520 ha        1 1JR      0.136000
     26 H6          2.5180    1.7570   -2.1030 ha        1 1JR      0.136000
     27 H7         -0.3640   -2.4550    2.3260 ha        1 1JR      0.140000
     28 H8         -0.4680   -4.9610   -1.2200 h4        1 1JR      0.025100
     29 H9         -1.5930   -0.9740   -1.5740 h4        1 1JR      0.033100
     30 H10        -0.8340   -0.1800    2.1230 h1        1 1JR      0.078700
     31 H11         0.7990    3.3170   -1.3020 hn        1 1JR      0.327700
     32 H12        -3.3320   -0.5140    1.1920 hn        1 1JR      0.317500
     33 H4          0.0010   -4.7030    1.2530 ha        1 1JR      0.146000
@<TRIPOS>BOND
     1    1    2 ar  
     2    1    3 ar  
     3    1   22 1   
     4    2    5 ar  
     5    2   23 1   
     6    3    6 ar  
     7    3   24 1   
     8    4    7 ar  
     9    4    8 ar  
    10    4   33 1   
    11    5   10 ar  
    12    5   25 1   
    13    6   10 ar  
    14    6   26 1   
    15    7   11 ar  
    16    7   27 1   
    17    8   17 ar  
    18    8   28 1   
    19    9   11 ar  
    20    9   17 ar  
    21    9   29 1   
    22   10   13 1   
    23   11   16 1   
    24   12   13 2   
    25   12   14 1   
    26   12   16 1   
    27   13   18 1   
    28   14   15 1   
    29   14   19 2   
    30   15   20 1   
    31   15   21 2   
    32   16   20 1   
    33   16   30 1   
    34   18   19 1   
    35   18   31 1   
    36   20   32 1   
@<TRIPOS>SUBSTRUCTURE
     1 1JR         1 TEMP              0 ****  ****    0 ROOT
