@<TRIPOS>MOLECULE
1JR
   33    36     1     0     0
SMALL
bcc


@<TRIPOS>ATOM
      1 C1         -0.2650    0.1760    0.1220 ca        1 1JR     -0.115000
      2 C2          1.0990   -0.1030    0.0390 ca        1 1JR     -0.127500
      3 C3         -0.8560    0.3950    1.3660 ca        1 1JR     -0.127500
      4 C4          3.1170   -5.0250    1.7050 ca        1 1JR     -0.249300
      5 C5          1.8740   -0.1620    1.1960 ca        1 1JR     -0.108500
      6 C6         -0.0880    0.3390    2.5280 ca        1 1JR     -0.108500
      7 C7          3.7630   -3.8220    1.9910 ca        1 1JR     -0.078000
      8 C8          2.2000   -5.5340    2.6410 ca        1 1JR      0.404200
      9 C9          2.5390   -3.7600    4.0670 ca        1 1JR      0.419200
     10 C10         1.2840    0.0610    2.4490 ca        1 1JR     -0.032000
     11 C11         3.4750   -3.1660    3.1930 ca        1 1JR     -0.234600
     12 C12         3.1960   -0.8010    3.9750 cc        1 1JR     -0.264600
     13 C13         2.1040   -0.0070    3.6420 cd        1 1JR      0.003700
     14 C14         3.5850   -0.3620    5.3250 cc        1 1JR      0.224800
     15 C15         4.7530   -1.1650    5.7560 c         1 1JR      0.628000
     16 C16         4.1480   -1.8680    3.5310 c3        1 1JR      0.231300
     17 N17         1.9100   -4.9200    3.8050 nb        1 1JR     -0.661000
     18 N18         1.9040    0.8260    4.7760 na        1 1JR     -0.029600
     19 N19         2.7760    0.6220    5.7650 nd        1 1JR     -0.403800
     20 N20         5.1160   -1.9680    4.6460 n         1 1JR     -0.549900
     21 O21         5.3520   -1.1510    6.8350 o         1 1JR     -0.577500
     22 H1         -0.8740    0.2220   -0.7930 ha        1 1JR      0.138000
     23 H2          1.5670   -0.2780   -0.9410 ha        1 1JR      0.138000
     24 H3         -1.9330    0.6100    1.4340 ha        1 1JR      0.138000
     25 H5          2.9510   -0.3810    1.1330 ha        1 1JR      0.136000
     26 H6         -0.5690    0.4970    3.5040 ha        1 1JR      0.136000
     27 H7          4.4880   -3.3970    1.2810 ha        1 1JR      0.140000
     28 H8          1.6660   -6.4840    2.4550 h4        1 1JR      0.025100
     29 H9          2.2780   -3.2740    5.0260 h4        1 1JR      0.033100
     30 H10         4.7290   -1.5080    2.6270 h1        1 1JR      0.078700
     31 H11         1.2010    1.5240    4.8620 hn        1 1JR      0.327700
     32 H12         5.5430   -2.8470    4.8100 hn        1 1JR      0.317500
     33 H4          3.3180   -5.5670    0.7710 ha        1 1JR      0.146000
@<TRIPOS>BOND
     1    1    2 ar  
     2    1    3 ar  
     3    1   22 1   
     4    2    5 ar  
     5    2   23 1   
     6    3    6 ar  
     7    3   24 1   
     8    4    7 ar  
     9    4    8 ar  
    10    4   33 1   
    11    5   10 ar  
    12    5   25 1   
    13    6   10 ar  
    14    6   26 1   
    15    7   11 ar  
    16    7   27 1   
    17    8   17 ar  
    18    8   28 1   
    19    9   11 ar  
    20    9   17 ar  
    21    9   29 1   
    22   10   13 1   
    23   11   16 1   
    24   12   13 2   
    25   12   14 1   
    26   12   16 1   
    27   13   18 1   
    28   14   15 1   
    29   14   19 2   
    30   15   20 1   
    31   15   21 2   
    32   16   20 1   
    33   16   30 1   
    34   18   19 1   
    35   18   31 1   
    36   20   32 1   
@<TRIPOS>SUBSTRUCTURE
     1 1JR         1 TEMP              0 ****  ****    0 ROOT
