@<TRIPOS>MOLECULE
1JS
   59    60     1     0     0
SMALL
bcc


@<TRIPOS>ATOM
      1 C1          0.9340    1.4760   -0.7930 ca        1 1JS     -0.039000
      2 C2          0.5640    0.2410   -0.2510 ca        1 1JS     -0.138500
      3 C3          0.8190   -0.0410    1.0860 ca        1 1JS     -0.052000
      4 C7          1.7100    0.6480    3.2400 cg        1 1JS      0.159000
      5 C8          1.9350    0.4060    4.4090 ch        1 1JS     -0.277000
      6 C9          2.1850    0.1230    5.7320 ca        1 1JS      0.253000
      7 C10         2.8220    1.0840    6.5760 ca        1 1JS     -0.148500
      8 C11         3.0680    0.8130    7.8980 ca        1 1JS     -0.031000
      9 C12         2.6960   -0.4370    8.4660 ca        1 1JS     -0.283600
     10 C13         2.0720   -1.4060    7.6200 ca        1 1JS     -0.031000
     11 C14         1.8220   -1.1300    6.2970 ca        1 1JS     -0.148500
     12 C15         2.8970   -0.8280    9.8100 c         1 1JS      0.596700
     13 C20         4.3860   -0.6020   12.9420 c3        1 1JS     -0.098400
     14 C21         4.6500   -2.0320   12.4950 c3        1 1JS     -0.164400
     15 C22         5.6080   -2.7000   13.4550 c         1 1JS      0.531100
     16 C27         6.7050   -7.0500   13.5030 c3        1 1JS      0.115400
     17 O28         5.6730   -6.7080   12.5830 oh        1 1JS     -0.690800
     18 C4          1.4530    0.9230    1.9010 ca        1 1JS     -0.089000
     19 C5          1.8230    2.1680    1.3450 ca        1 1JS     -0.052000
     20 C6          1.5620    2.4350    0.0070 ca        1 1JS     -0.138500
     21 O16         2.7580   -1.8890   10.4120 o         1 1JS     -0.531100
     22 N17         3.4080    0.3220   10.7820 ny        1 1JS     -0.715800
     23 C18         3.1760    0.0320   12.2300 c3        1 1JS      0.098500
     24 O23         5.9740   -2.2280   14.5220 o         1 1JS     -0.397100
     25 N24         6.1130   -4.0490   13.0620 ny        1 1JS     -0.667800
     26 C25         7.1660   -4.5950   13.9910 c3        1 1JS      0.123800
     27 C26         7.7230   -5.9220   13.5010 c3        1 1JS     -0.124400
     28 C29         2.8200    1.3320   12.9660 c         1 1JS      0.530100
     29 O30         3.1110    2.4660   12.6360 o         1 1JS     -0.344100
     30 N31         1.9980    1.2410   14.2570 ny        1 1JS     -0.443300
     31 O32         1.8110   -0.0600   14.5700 oh        1 1JS     -0.382300
     32 H1          0.7290    1.6940   -1.8550 ha        1 1JS      0.168000
     33 H2          0.0690   -0.5110   -0.8860 ha        1 1JS      0.166000
     34 H3          0.5270   -1.0130    1.5120 ha        1 1JS      0.147000
     35 H4          3.1190    2.0540    6.1380 ha        1 1JS      0.187500
     36 H5          3.5820    1.5830    8.4940 ha        1 1JS      0.142000
     37 H6          1.7860   -2.3840    8.0470 ha        1 1JS      0.142000
     38 H7          1.3340   -1.8840    5.6540 ha        1 1JS      0.187500
     39 H8          5.3090    0.0220   12.7910 hc        1 1JS      0.107700
     40 H9          4.1630   -0.6080   14.0480 hc        1 1JS      0.107700
     41 H10         5.0710   -2.0470   11.4520 hc        1 1JS      0.121700
     42 H11         3.6890   -2.6240   12.4700 hc        1 1JS      0.121700
     43 H12         6.2480   -7.1820   14.5210 h1        1 1JS      0.077200
     44 H13         7.2080   -8.0080   13.1970 h1        1 1JS      0.077200
     45 H14         5.2480   -7.5270   12.2970 ho        1 1JS      0.462000
     46 H15         2.3180    2.9250    1.9740 ha        1 1JS      0.147000
     47 H16         1.8510    3.4070   -0.4270 ha        1 1JS      0.166000
     48 H17         4.4090    0.4550   10.6080 hn        1 1JS      0.464300
     49 H18         2.2930   -0.6870   12.2940 hx        1 1JS      0.178700
     50 H19         6.5010   -4.0160   12.1100 hn        1 1JS      0.484800
     51 H20         7.9900   -3.8290   14.0660 hx        1 1JS      0.116700
     52 H21         6.6900   -4.7150   15.0070 hx        1 1JS      0.116700
     53 H22         8.5600   -6.2010   14.2040 hc        1 1JS      0.109700
     54 H23         8.1690   -5.8140   12.4760 hc        1 1JS      0.109700
     55 H24         1.0870    1.7300   14.1040 hn        1 1JS      0.504800
     56 H25         1.2090   -0.1270   15.3560 ho        1 1JS      0.516000
     57 H172        2.9250    1.1850   10.5040 hn        1 1JS      0.464300
     58 H242        5.3240   -4.7250   13.0420 hn        1 1JS      0.484800
     59 H312        2.5130    1.7370   15.0200 hn        1 1JS      0.504800
@<TRIPOS>BOND
     1    1    2 ar  
     2    1   20 ar  
     3    1   32 1   
     4    2    3 ar  
     5    2   33 1   
     6    3   18 ar  
     7    3   34 1   
     8    4    5 3   
     9    4   18 1   
    10    5    6 1   
    11    6    7 ar  
    12    6   11 ar  
    13    7    8 ar  
    14    7   35 1   
    15    8    9 ar  
    16    8   36 1   
    17    9   10 ar  
    18    9   12 1   
    19   10   11 ar  
    20   10   37 1   
    21   11   38 1   
    22   12   21 2   
    23   12   22 1   
    24   13   14 1   
    25   13   23 1   
    26   13   39 1   
    27   13   40 1   
    28   14   15 1   
    29   14   41 1   
    30   14   42 1   
    31   15   24 2   
    32   15   25 1   
    33   16   17 1   
    34   16   27 1   
    35   16   43 1   
    36   16   44 1   
    37   17   45 1   
    38   18   19 ar  
    39   19   20 ar  
    40   19   46 1   
    41   20   47 1   
    42   22   23 1   
    43   22   48 1   
    44   22   57 1   
    45   23   28 1   
    46   23   49 1   
    47   25   26 1   
    48   25   50 1   
    49   25   58 1   
    50   26   27 1   
    51   26   51 1   
    52   26   52 1   
    53   27   53 1   
    54   27   54 1   
    55   28   29 2   
    56   28   30 1   
    57   30   31 1   
    58   30   55 1   
    59   30   59 1   
    60   31   56 1   
@<TRIPOS>SUBSTRUCTURE
     1 1JS         1 TEMP              0 ****  ****    0 ROOT
