@<TRIPOS>MOLECULE
1JS
   56    46     1     0     0
SMALL
bcc


@<TRIPOS>ATOM
      1 C1         -7.0960   -0.2590   -9.2200 c1        1 1JS     -0.117500
      2 C2         -5.8280    0.2490   -9.2390 c1        1 1JS     -0.117500
      3 C3         -5.0800    0.2690   -8.0860 c1        1 1JS     -0.117500
      4 C7         -4.7980   -0.2230   -5.6580 c1        1 1JS     -0.103000
      5 C8         -4.1550   -0.2240   -4.6610 c1        1 1JS     -0.103000
      6 C9         -3.3150   -0.2280   -3.3460 c1        1 1JS     -0.013333
      7 C10        -1.9420   -0.0660   -3.4000 c1        1 1JS     -0.117500
      8 C11        -1.1900   -0.0930   -2.2240 c1        1 1JS     -0.117500
      9 C12        -1.8260   -0.2840   -0.9930 c1        1 1JS     -0.013333
     10 C13        -3.1880   -0.4450   -0.9400 c1        1 1JS     -0.098333
     11 C14        -3.9430   -0.4180   -2.1170 c1        1 1JS     -0.098333
     12 C15        -1.0050   -0.2890    0.3030 c1        1 1JS      0.354000
     13 C20         2.6610   -0.2010    1.2300 c3        1 1JS     -0.162000
     14 C21         3.0650   -1.1790    2.2940 c3        1 1JS     -0.183000
     15 C22         4.2450   -0.6000    3.0960 c2        1 1JS      0.299000
     16 C27         6.3890    0.3660    7.4640 c3        1 1JS     -0.016000
     17 O28         6.4660   -0.1020    8.8050 oh        1 1JS     -0.329000
     18 C4         -5.6110   -0.2240   -6.9080 c1        1 1JS     -0.013333
     19 C5         -6.8710   -0.7290   -6.8910 c1        1 1JS     -0.098333
     20 C6         -7.6230   -0.7500   -8.0480 c1        1 1JS     -0.117500
     21 O16        -1.5780   -0.4460    1.4080 o         1 1JS     -0.379000
     22 N17         0.4610   -0.0940    0.2500 n2        1 1JS     -0.380000
     23 C18         1.1760    0.1910    1.4220 c3        1 1JS      0.011000
     24 O23         5.1260    0.0210    2.5210 o         1 1JS     -0.373000
     25 N24         4.3710   -0.8960    4.5000 n         1 1JS     -0.373000
     26 C25         5.5670   -0.4860    5.2320 c3        1 1JS     -0.029000
     27 C26         5.2360   -0.3690    6.7300 c3        1 1JS     -0.190000
     28 C29         1.0790    1.6710    1.7250 c1        1 1JS      0.229000
     29 O30         1.5190    2.4980    0.9160 o         1 1JS     -0.351000
     30 N31         0.5430    2.1090    2.9710 n2        1 1JS     -0.204000
     31 O32         0.8320    3.3980    3.4400 oh        1 1JS     -0.231000
     32 H1         -7.6190   -0.2740  -10.0240 ha        1 1JS      0.139167
     33 H2         -5.4500    0.6010  -10.0800 ha        1 1JS      0.139167
     34 H3         -4.1800    0.6300   -8.0990 ha        1 1JS      0.139167
     35 H4         -1.5060    0.0660   -4.2500 ha        1 1JS      0.139167
     36 H5         -0.1840    0.0260   -2.2610 ha        1 1JS      0.139167
     37 H6         -3.6350   -0.5790   -0.0720 ha        1 1JS      0.149333
     38 H7         -4.8680   -0.5280   -2.0770 ha        1 1JS      0.149333
     39 H8          2.7810   -0.6090    0.3530 hc        1 1JS      0.107000
     40 H9          3.2460    0.6370    1.2980 hc        1 1JS      0.107000
     41 H10         2.3050   -1.3430    2.8990 hc        1 1JS      0.115500
     42 H11         3.3300   -2.0000    1.8860 hc        1 1JS      0.115500
     43 H12         6.2140    1.3400    7.4640 h1        1 1JS      0.062500
     44 H13         7.2520    0.1820    6.9970 h1        1 1JS      0.062500
     45 H14         7.0320    0.4140    9.2700 ho        1 1JS      0.199000
     46 H15        -7.2430   -1.0750   -6.0620 ha        1 1JS      0.149333
     47 H16        -8.5450   -1.1190   -8.0340 ha        1 1JS      0.139167
     48 H17         0.8900   -0.0940   -0.5510 hn        1 1JS      0.240000
     49 H18         0.7770   -0.3460    2.2080 h1        1 1JS      0.138000
     50 H19         3.6640   -1.2810    4.9530 hn        1 1JS      0.245000
     51 H20         6.2880   -1.1700    5.1040 h1        1 1JS      0.100000
     52 H21         5.8850    0.4100    4.8840 h1        1 1JS      0.100000
     53 H22         5.1220   -1.3000    7.1250 hc        1 1JS      0.099500
     54 H23         4.3820    0.1510    6.8460 hc        1 1JS      0.099500
     55 H24         0.0050    1.5370    3.4770 hn        1 1JS      0.255000
     56 H25         0.3680    3.5570    4.1700 ho        1 1JS      0.228000
@<TRIPOS>BOND
     1    1   20 1   
     2    1   32 1   
     3    2    3 1   
     4    2   33 1   
     5    3   34 1   
     6    4    5 1   
     7    6   11 1   
     8    7    8 1   
     9    7   35 1   
    10    8   36 1   
    11    9   10 1   
    12   10   37 1   
    13   11   38 1   
    14   12   21 1   
    15   13   14 1   
    16   13   23 1   
    17   13   39 1   
    18   13   40 1   
    19   14   15 1   
    20   14   41 1   
    21   14   42 1   
    22   15   24 1   
    23   15   25 1   
    24   16   17 1   
    25   16   27 1   
    26   16   43 1   
    27   16   44 1   
    28   17   45 1   
    29   18   19 1   
    30   19   46 1   
    31   20   47 1   
    32   22   23 1   
    33   22   48 1   
    34   23   28 1   
    35   23   49 1   
    36   25   26 1   
    37   25   50 1   
    38   26   27 1   
    39   26   51 1   
    40   26   52 1   
    41   27   53 1   
    42   27   54 1   
    43   28   29 1   
    44   30   31 1   
    45   30   55 1   
    46   31   56 1   
@<TRIPOS>SUBSTRUCTURE
     1 1JS         1 TEMP              0 ****  ****    0 ROOT
