@<TRIPOS>MOLECULE
1JS
   56    57     1     0     0
SMALL
bcc


@<TRIPOS>ATOM
      1 C1         10.3060   -1.3220    0.4090 ca        1 1JS     -0.116000
      2 C2          9.4950   -1.2460    1.5420 ca        1 1JS     -0.134000
      3 C3          8.1340   -0.9790    1.4140 ca        1 1JS     -0.102000
      4 C7          6.1990   -0.5130    0.0060 cg        1 1JS     -0.078000
      5 C8          5.0270   -0.2820   -0.1090 ch        1 1JS     -0.121000
      6 C9          3.6550   -0.0110   -0.2450 ca        1 1JS      0.057000
      7 C10         3.0980    0.2160   -1.5150 ca        1 1JS     -0.119000
      8 C11         1.7400    0.4850   -1.6450 ca        1 1JS     -0.090000
      9 C12         0.9200    0.5410   -0.5100 ca        1 1JS     -0.139600
     10 C13         1.4670    0.3080    0.7550 ca        1 1JS     -0.090000
     11 C14         2.8260    0.0330    0.8890 ca        1 1JS     -0.119000
     12 C15        -0.5270    0.8270   -0.7140 c         1 1JS      0.676700
     13 C20        -3.5900    1.1150    0.8200 c3        1 1JS     -0.086400
     14 C21        -3.5730   -0.3010    0.2880 c3        1 1JS     -0.156400
     15 C22        -4.9040   -0.9930    0.5220 c         1 1JS      0.655100
     16 C27        -7.8360   -4.5370   -0.6950 c3        1 1JS      0.135400
     17 O28        -8.1260   -5.1570   -1.9390 oh        1 1JS     -0.600800
     18 C4          7.5720   -0.7830    0.1410 ca        1 1JS      0.014000
     19 C5          8.3940   -0.8610   -0.9960 ca        1 1JS     -0.102000
     20 C6          9.7540   -1.1290   -0.8570 ca        1 1JS     -0.134000
     21 O16        -1.1370    0.4340   -1.7310 o         1 1JS     -0.614100
     22 N17        -1.1870    1.5340    0.2750 n         1 1JS     -0.562900
     23 C18        -2.5440    1.9890    0.1030 c3        1 1JS      0.034700
     24 O23        -5.9330   -0.3600    0.8370 o         1 1JS     -0.616100
     25 N24        -4.9180   -2.3700    0.3970 n         1 1JS     -0.563900
     26 C25        -6.1320   -3.1370    0.4520 c3        1 1JS      0.084000
     27 C26        -6.5510   -3.7510   -0.8830 c3        1 1JS     -0.112400
     28 C29        -2.7210    3.4260    0.6370 c         1 1JS      0.577100
     29 O30        -1.9690    3.9240    1.4890 o         1 1JS     -0.563100
     30 N31        -3.7230    4.2140   -0.0010 n         1 1JS     -0.345400
     31 O32        -4.1240    5.2800    0.6950 oh        1 1JS     -0.431100
     32 H1         11.3800   -1.5340    0.5150 ha        1 1JS      0.135000
     33 H2          9.9300   -1.3980    2.5410 ha        1 1JS      0.136000
     34 H3          7.4960   -0.9190    2.3080 ha        1 1JS      0.139500
     35 H4          3.7400    0.1760   -2.4090 ha        1 1JS      0.146500
     36 H5          1.2940    0.6470   -2.6410 ha        1 1JS      0.149500
     37 H6          0.8350    0.3230    1.6570 ha        1 1JS      0.149500
     38 H7          3.2540   -0.1510    1.8860 ha        1 1JS      0.146500
     39 H8         -4.6050    1.5670    0.6520 hc        1 1JS      0.070200
     40 H9         -3.4030    1.1110    1.9250 hc        1 1JS      0.070200
     41 H10        -3.3680   -0.2970   -0.8190 hc        1 1JS      0.080200
     42 H11        -2.7440   -0.8780    0.7760 hc        1 1JS      0.080200
     43 H12        -8.6770   -3.8540   -0.3980 h1        1 1JS      0.023700
     44 H13        -7.7100   -5.3220    0.0990 h1        1 1JS      0.023700
     45 H14        -8.9700   -5.6080   -1.8310 ho        1 1JS      0.401000
     46 H15         7.9590   -0.7090   -1.9950 ha        1 1JS      0.139500
     47 H16        10.3930   -1.1890   -1.7500 ha        1 1JS      0.136000
     48 H17        -0.6750    1.9240    1.0340 hn        1 1JS      0.333500
     49 H18        -2.7760    1.9720   -1.0090 h1        1 1JS      0.104700
     50 H19        -4.1240   -2.8160    0.0030 hn        1 1JS      0.307500
     51 H20        -5.9790   -3.9690    1.2000 h1        1 1JS      0.062200
     52 H21        -6.9630   -2.4740    0.8330 h1        1 1JS      0.062200
     53 H22        -5.7540   -4.4350   -1.2750 hc        1 1JS      0.060200
     54 H23        -6.7150   -2.9530   -1.6530 hc        1 1JS      0.060200
     55 H24        -4.5490    3.6790   -0.2500 hn        1 1JS      0.307500
     56 H25        -3.3930    5.9280    0.6360 ho        1 1JS      0.436000
@<TRIPOS>BOND
     1    1    2 ar  
     2    1   20 ar  
     3    1   32 1   
     4    2    3 ar  
     5    2   33 1   
     6    3   18 ar  
     7    3   34 1   
     8    4    5 3   
     9    4   18 1   
    10    5    6 1   
    11    6    7 ar  
    12    6   11 ar  
    13    7    8 ar  
    14    7   35 1   
    15    8    9 ar  
    16    8   36 1   
    17    9   10 ar  
    18    9   12 1   
    19   10   11 ar  
    20   10   37 1   
    21   11   38 1   
    22   12   21 2   
    23   12   22 1   
    24   13   14 1   
    25   13   23 1   
    26   13   39 1   
    27   13   40 1   
    28   14   15 1   
    29   14   41 1   
    30   14   42 1   
    31   15   24 2   
    32   15   25 1   
    33   16   17 1   
    34   16   27 1   
    35   16   43 1   
    36   16   44 1   
    37   17   45 1   
    38   18   19 ar  
    39   19   20 ar  
    40   19   46 1   
    41   20   47 1   
    42   22   23 1   
    43   22   48 1   
    44   23   28 1   
    45   23   49 1   
    46   25   26 1   
    47   25   50 1   
    48   26   27 1   
    49   26   51 1   
    50   26   52 1   
    51   27   53 1   
    52   27   54 1   
    53   28   29 2   
    54   28   30 1   
    55   30   31 1   
    56   30   55 1   
    57   31   56 1   
@<TRIPOS>SUBSTRUCTURE
     1 1JS         1 TEMP              0 ****  ****    0 ROOT
