@<TRIPOS>MOLECULE
1JS
   59    60     1     0     0
SMALL
bcc


@<TRIPOS>ATOM
      1 C1          0.1940   -0.4760    0.1760 ca        1 1JS     -0.032000
      2 C2          1.4730   -1.0230    0.3270 ca        1 1JS     -0.140000
      3 C3          2.1630   -0.8690    1.5220 ca        1 1JS     -0.047000
      4 C7          2.2560    0.0040    3.7900 cg        1 1JS      0.168000
      5 C8          2.8510    0.1500    4.8410 ch        1 1JS     -0.275000
      6 C9          3.5090    0.3320    6.0320 ca        1 1JS      0.261000
      7 C10         2.9110    1.0630    7.0970 ca        1 1JS     -0.150500
      8 C11         3.5770    1.2540    8.2810 ca        1 1JS     -0.024500
      9 C12         4.8920    0.7200    8.4820 ca        1 1JS     -0.272600
     10 C13         5.4860   -0.0200    7.4180 ca        1 1JS     -0.024500
     11 C14         4.8210   -0.2070    6.2360 ca        1 1JS     -0.150500
     12 C15         5.4930    0.9990    9.7220 c         1 1JS      0.599700
     13 C20         8.7870    0.0190   11.6690 c3        1 1JS     -0.121400
     14 C21         8.8740   -1.4980   11.7200 c3        1 1JS     -0.158400
     15 C22        10.1340   -1.9050   12.4500 c         1 1JS      0.533100
     16 C27        12.0800   -5.3680    9.5490 c3        1 1JS      0.132400
     17 O28        11.0310   -4.8840    8.7230 oh        1 1JS     -0.650800
     18 C4          1.5730   -0.1580    2.5910 ca        1 1JS     -0.092000
     19 C5          0.2800    0.3920    2.4300 ca        1 1JS     -0.047000
     20 C6         -0.3980    0.2290    1.2280 ca        1 1JS     -0.140000
     21 O16         5.1260    1.6640   10.7010 o         1 1JS     -0.615100
     22 N17         6.9240    0.3970    9.9730 n4        1 1JS     -0.704800
     23 C18         7.3710    0.5510   11.3930 c3        1 1JS      0.100500
     24 O23        10.8500   -1.1640   13.1070 o         1 1JS     -0.376100
     25 N24        10.5350   -3.3490   12.3890 n4        1 1JS     -0.671800
     26 C25        11.3820   -3.6330   11.1770 c3        1 1JS      0.110800
     27 C26        11.6560   -5.1210   10.9940 c3        1 1JS     -0.116400
     28 C29         7.3850    2.0470   11.7510 c         1 1JS      0.559100
     29 O30         7.9940    2.9190   11.1620 o         1 1JS     -0.342100
     30 N31         6.5570    2.5040   12.9500 n4        1 1JS     -0.437300
     31 O32         6.6960    1.5850   13.9310 oh        1 1JS     -0.384300
     32 H1         -0.3490   -0.6020   -0.7770 ha        1 1JS      0.170000
     33 H2          1.9340   -1.5770   -0.5070 ha        1 1JS      0.168000
     34 H3          3.1700   -1.2990    1.6390 ha        1 1JS      0.148500
     35 H4          1.8980    1.4800    6.9540 ha        1 1JS      0.187500
     36 H5          3.1060    1.8280    9.1000 ha        1 1JS      0.140500
     37 H6          6.4960   -0.4450    7.5200 ha        1 1JS      0.140500
     38 H7          5.2870   -0.7750    5.4110 ha        1 1JS      0.187500
     39 H8          9.1030    0.4350   12.6720 hc        1 1JS      0.121700
     40 H9          9.5160    0.4210   10.9120 hc        1 1JS      0.121700
     41 H10         7.9960   -1.9310   12.2780 hc        1 1JS      0.108700
     42 H11         8.8790   -1.9330   10.6830 hc        1 1JS      0.108700
     43 H12        12.2440   -6.4690    9.3960 h1        1 1JS      0.075200
     44 H13        13.0260   -4.8120    9.3090 h1        1 1JS      0.075200
     45 H14        11.1170   -5.3200    7.8650 ho        1 1JS      0.448000
     46 H15        -0.1870    0.9480    3.2580 ha        1 1JS      0.148500
     47 H16        -1.4060    0.6570    1.1030 ha        1 1JS      0.168000
     48 H17         7.5810    0.8690    9.3400 hn        1 1JS      0.466800
     49 H18         6.6160    0.0050   12.0420 hx        1 1JS      0.153700
     50 H19        11.0860   -3.5830   13.2320 hn        1 1JS      0.476300
     51 H20        10.8290   -3.2390   10.2740 hx        1 1JS      0.118700
     52 H21        12.3510   -3.0680   11.2980 hx        1 1JS      0.118700
     53 H22        10.7390   -5.7340   11.2040 hc        1 1JS      0.088700
     54 H23        12.4770   -5.4630   11.6780 hc        1 1JS      0.088700
     55 H24         5.5560    2.5670   12.6420 hn        1 1JS      0.510300
     56 H25         6.2550    1.9170   14.7540 ho        1 1JS      0.512000
     57 H172        6.9030   -0.6000    9.7390 hn        1 1JS      0.466800
     58 H242        9.7040   -3.9510   12.3690 hn        1 1JS      0.476300
     59 H312        6.8910    3.4460   13.2520 hn        1 1JS      0.510300
@<TRIPOS>BOND
     1    1    2 ar  
     2    1   20 ar  
     3    1   32 1   
     4    2    3 ar  
     5    2   33 1   
     6    3   18 ar  
     7    3   34 1   
     8    4    5 3   
     9    4   18 1   
    10    5    6 1   
    11    6    7 ar  
    12    6   11 ar  
    13    7    8 ar  
    14    7   35 1   
    15    8    9 ar  
    16    8   36 1   
    17    9   10 ar  
    18    9   12 1   
    19   10   11 ar  
    20   10   37 1   
    21   11   38 1   
    22   12   21 2   
    23   12   22 1   
    24   13   14 1   
    25   13   23 1   
    26   13   39 1   
    27   13   40 1   
    28   14   15 1   
    29   14   41 1   
    30   14   42 1   
    31   15   24 2   
    32   15   25 1   
    33   16   17 1   
    34   16   27 1   
    35   16   43 1   
    36   16   44 1   
    37   17   45 1   
    38   18   19 ar  
    39   19   20 ar  
    40   19   46 1   
    41   20   47 1   
    42   22   23 1   
    43   22   48 1   
    44   22   57 1   
    45   23   28 1   
    46   23   49 1   
    47   25   26 1   
    48   25   50 1   
    49   25   58 1   
    50   26   27 1   
    51   26   51 1   
    52   26   52 1   
    53   27   53 1   
    54   27   54 1   
    55   28   29 2   
    56   28   30 1   
    57   30   31 1   
    58   30   55 1   
    59   30   59 1   
    60   31   56 1   
@<TRIPOS>SUBSTRUCTURE
     1 1JS         1 TEMP              0 ****  ****    0 ROOT
