@<TRIPOS>MOLECULE
1JS
   59    60     1     0     0
SMALL
bcc


@<TRIPOS>ATOM
      1 C1          2.0410    0.6250   -1.7190 ca        1 1JS     -0.033000
      2 C2          3.1720   -0.0950   -1.3230 ca        1 1JS     -0.139500
      3 C3          3.4760   -0.2370    0.0250 ca        1 1JS     -0.047500
      4 C7          2.9380    0.2110    2.3520 cg        1 1JS      0.166000
      5 C8          3.2030    0.0880    3.5320 ch        1 1JS     -0.275000
      6 C9          3.5210   -0.0590    4.8600 ca        1 1JS      0.261000
      7 C10         2.6970    0.5140    5.8810 ca        1 1JS     -0.151500
      8 C11         3.0130    0.3760    7.2060 ca        1 1JS     -0.024000
      9 C12         4.1760   -0.3420    7.6090 ca        1 1JS     -0.269600
     10 C13         4.9960   -0.9270    6.5880 ca        1 1JS     -0.024000
     11 C14         4.6770   -0.7870    5.2620 ca        1 1JS     -0.151500
     12 C15         4.6010   -0.5380    8.9360 c         1 1JS      0.599700
     13 C20         3.7160    0.9320   12.4890 c3        1 1JS     -0.108400
     14 C21         2.4970    0.2260   13.0500 c3        1 1JS     -0.191400
     15 C22         1.2320    0.5980   12.3180 c         1 1JS      0.561100
     16 C27        -0.0250    0.0090   16.1800 c3        1 1JS      0.115400
     17 O28         0.8640    1.0470   15.7720 oh        1 1JS     -0.696800
     18 C4          2.6390    0.3490    1.0020 ca        1 1JS     -0.092000
     19 C5          1.4970    1.0760    0.5930 ca        1 1JS     -0.047500
     20 C6          1.2080    1.2080   -0.7590 ca        1 1JS     -0.139500
     21 O16         5.5660   -1.1540    9.4170 o         1 1JS     -0.624100
     22 N17         3.7440    0.1070   10.0730 n4        1 1JS     -0.693800
     23 C18         4.5020    0.2550   11.3520 c3        1 1JS      0.086500
     24 O23         1.1460    0.7080   11.0970 o         1 1JS     -0.481100
     25 N24         0.0020    0.8560   13.1170 n4        1 1JS     -0.672800
     26 C25        -0.5720   -0.3960   13.7400 c3        1 1JS      0.132800
     27 C26        -1.1200   -0.1440   15.1360 c3        1 1JS     -0.140400
     28 C29         5.0220   -1.1080   11.8190 c         1 1JS      0.575100
     29 O30         4.3530   -2.0950   12.0650 o         1 1JS     -0.379100
     30 N31         6.5310   -1.2660   12.0130 n4        1 1JS     -0.438300
     31 O32         6.9940   -0.1370   12.5960 oh        1 1JS     -0.380300
     32 H1          1.8060    0.7350   -2.7910 ha        1 1JS      0.169000
     33 H2          3.8260   -0.5520   -2.0840 ha        1 1JS      0.167500
     34 H3          4.3670   -0.8050    0.3360 ha        1 1JS      0.148000
     35 H4          1.7950    1.0730    5.5720 ha        1 1JS      0.187000
     36 H5          2.3390    0.8270    7.9510 ha        1 1JS      0.143000
     37 H6          5.8940   -1.4950    6.8900 ha        1 1JS      0.143000
     38 H7          5.3180   -1.2410    4.4840 ha        1 1JS      0.187000
     39 H8          4.4560    1.0660   13.3340 hc        1 1JS      0.124200
     40 H9          3.4390    1.9690   12.1460 hc        1 1JS      0.124200
     41 H10         2.4080    0.4880   14.1510 hc        1 1JS      0.142700
     42 H11         2.6000   -0.8960   12.9940 hc        1 1JS      0.142700
     43 H12        -0.4850    0.2310   17.1800 h1        1 1JS      0.085200
     44 H13         0.5870   -0.9310   16.2600 h1        1 1JS      0.085200
     45 H14         0.9750    1.6570   16.5130 ho        1 1JS      0.462000
     46 H15         0.8400    1.5350    1.3480 ha        1 1JS      0.148000
     47 H16         0.3170    1.7750   -1.0780 ha        1 1JS      0.167500
     48 H17         2.9060   -0.4700   10.2140 hn        1 1JS      0.470300
     49 H18         5.3890    0.9350   11.1180 hx        1 1JS      0.164700
     50 H19        -0.7150    1.2920   12.5170 hn        1 1JS      0.492800
     51 H20         0.2480   -1.1680   13.7910 hx        1 1JS      0.109700
     52 H21        -1.3910   -0.7690   13.0570 hx        1 1JS      0.109700
     53 H22        -1.8000    0.7500   15.1500 hc        1 1JS      0.116700
     54 H23        -1.7500   -1.0380   15.4130 hc        1 1JS      0.116700
     55 H24         6.9610   -1.4030   11.0660 hn        1 1JS      0.509800
     56 H25         7.9650   -0.2330   12.7730 ho        1 1JS      0.514000
     57 H172        3.4330    1.0400    9.7710 hn        1 1JS      0.470300
     58 H242        0.2370    1.5180   13.8850 hn        1 1JS      0.492800
     59 H312        6.7140   -2.1060   12.6040 hn        1 1JS      0.509800
@<TRIPOS>BOND
     1    1    2 ar  
     2    1   20 ar  
     3    1   32 1   
     4    2    3 ar  
     5    2   33 1   
     6    3   18 ar  
     7    3   34 1   
     8    4    5 3   
     9    4   18 1   
    10    5    6 1   
    11    6    7 ar  
    12    6   11 ar  
    13    7    8 ar  
    14    7   35 1   
    15    8    9 ar  
    16    8   36 1   
    17    9   10 ar  
    18    9   12 1   
    19   10   11 ar  
    20   10   37 1   
    21   11   38 1   
    22   12   21 2   
    23   12   22 1   
    24   13   14 1   
    25   13   23 1   
    26   13   39 1   
    27   13   40 1   
    28   14   15 1   
    29   14   41 1   
    30   14   42 1   
    31   15   24 2   
    32   15   25 1   
    33   16   17 1   
    34   16   27 1   
    35   16   43 1   
    36   16   44 1   
    37   17   45 1   
    38   18   19 ar  
    39   19   20 ar  
    40   19   46 1   
    41   20   47 1   
    42   22   23 1   
    43   22   48 1   
    44   22   57 1   
    45   23   28 1   
    46   23   49 1   
    47   25   26 1   
    48   25   50 1   
    49   25   58 1   
    50   26   27 1   
    51   26   51 1   
    52   26   52 1   
    53   27   53 1   
    54   27   54 1   
    55   28   29 2   
    56   28   30 1   
    57   30   31 1   
    58   30   55 1   
    59   30   59 1   
    60   31   56 1   
@<TRIPOS>SUBSTRUCTURE
     1 1JS         1 TEMP              0 ****  ****    0 ROOT
