@<TRIPOS>MOLECULE
1JT
   45    48     1     0     0
SMALL
bcc


@<TRIPOS>ATOM
      1 C1          0.0440   -0.0450   -0.2050 ca        1 1JT     -0.092300
      2 C2          1.4420   -0.2250   -0.0900 ca        1 1JT     -0.051300
      3 C3         -0.7470    0.2000    0.9170 ca        1 1JT     -0.071000
      4 C4          2.0750   -0.1710    1.1520 ca        1 1JT     -0.143000
      5 C5          1.2940    0.0710    2.2830 ca        1 1JT     -0.070200
      6 C6         -0.1420    0.2650    2.1740 ca        1 1JT      0.066400
      7 N7         -0.6820    0.4920    3.4610 nc        1 1JT     -0.567100
      8 C8          0.3620    0.4400    4.2970 cd        1 1JT      0.427700
      9 N9          1.5900    0.1510    3.6550 na        1 1JT     -0.175300
     10 C10         2.8910    0.1970    4.2510 c3        1 1JT      0.101600
     11 C11         3.4950    1.5650    4.3960 ca        1 1JT     -0.156300
     12 C12         3.6850    2.3750    3.2700 ca        1 1JT     -0.083000
     13 C13         4.2790    3.6310    3.3790 ca        1 1JT     -0.095300
     14 C14         4.6910    4.0710    4.6590 ca        1 1JT      0.130100
     15 C15         4.5040    3.2680    5.7890 ca        1 1JT     -0.203000
     16 C16         3.9020    2.0180    5.6500 ca        1 1JT     -0.087000
     17 C17         2.2980   -0.4440   -1.2910 c3        1 1JT     -0.034100
     18 C18         1.5200   -0.8790   -2.5140 c3        1 1JT     -0.075400
     19 C19         0.2970   -0.0100   -2.7050 c3        1 1JT     -0.075400
     20 C20        -0.6420   -0.1440   -1.5250 c3        1 1JT     -0.031100
     21 O21         5.2760    5.3220    4.6850 os        1 1JT     -0.323900
     22 C22         5.6750    5.8050    5.9630 c3        1 1JT      0.112700
     23 C23         4.4790    4.4950    2.1950 c3        1 1JT     -0.043800
     24 H1         -1.8340    0.3380    0.8180 ha        1 1JT      0.147000
     25 H2          3.1610   -0.3170    1.2330 ha        1 1JT      0.133000
     26 H3          0.3090    0.5770    5.3840 h5        1 1JT      0.066800
     27 H4          2.8160   -0.2880    5.2680 h1        1 1JT      0.064200
     28 H5          3.5820   -0.4290    3.6120 h1        1 1JT      0.064200
     29 H6          3.3530    2.0140    2.2810 ha        1 1JT      0.146000
     30 H7          4.8220    3.6090    6.7840 ha        1 1JT      0.139000
     31 H8          3.7540    1.3910    6.5420 ha        1 1JT      0.131000
     32 H9          3.0830   -1.2130   -1.0590 hc        1 1JT      0.048200
     33 H10         2.8340    0.5190   -1.5170 hc        1 1JT      0.048200
     34 H11         1.2060   -1.9500   -2.4020 hc        1 1JT      0.043200
     35 H12         2.1800   -0.8140   -3.4170 hc        1 1JT      0.043200
     36 H13        -0.2400   -0.3070   -3.6430 hc        1 1JT      0.042200
     37 H14         0.6110    1.0600   -2.8200 hc        1 1JT      0.042200
     38 H15        -1.1600   -1.1420   -1.5760 hc        1 1JT      0.049200
     39 H16        -1.4390    0.6440   -1.5960 hc        1 1JT      0.049200
     40 H17         4.7950    5.8890    6.6460 h1        1 1JT      0.045367
     41 H18         6.4560    5.1430    6.4080 h1        1 1JT      0.045367
     42 H19         6.0970    6.8170    5.7370 h1        1 1JT      0.045367
     43 H20         5.5690    4.7110    2.0600 hc        1 1JT      0.048700
     44 H21         4.0880    4.0130    1.2670 hc        1 1JT      0.048700
     45 H22         3.9540    5.4730    2.3440 hc        1 1JT      0.048700
@<TRIPOS>BOND
     1    1    2 ar  
     2    1    3 ar  
     3    1   20 1   
     4    2    4 ar  
     5    2   17 1   
     6    3    6 ar  
     7    3   24 1   
     8    4    5 ar  
     9    4   25 1   
    10    5    6 ar  
    11    5    9 1   
    12    6    7 1   
    13    7    8 2   
    14    8    9 1   
    15    8   26 1   
    16    9   10 1   
    17   10   11 1   
    18   10   27 1   
    19   10   28 1   
    20   11   12 ar  
    21   11   16 ar  
    22   12   13 ar  
    23   12   29 1   
    24   13   14 ar  
    25   13   23 1   
    26   14   15 ar  
    27   14   21 1   
    28   15   16 ar  
    29   15   30 1   
    30   16   31 1   
    31   17   18 1   
    32   17   32 1   
    33   17   33 1   
    34   18   19 1   
    35   18   34 1   
    36   18   35 1   
    37   19   20 1   
    38   19   36 1   
    39   19   37 1   
    40   20   38 1   
    41   20   39 1   
    42   21   22 1   
    43   22   40 1   
    44   22   41 1   
    45   22   42 1   
    46   23   43 1   
    47   23   44 1   
    48   23   45 1   
@<TRIPOS>SUBSTRUCTURE
     1 1JT         1 TEMP              0 ****  ****    0 ROOT
