@<TRIPOS>MOLECULE
1JT
   45    48     1     0     0
SMALL
bcc


@<TRIPOS>ATOM
      1 C1          0.0270   -0.0370   -0.1920 ca        1 1JT     -0.092300
      2 C2          1.4250   -0.2200   -0.0870 ca        1 1JT     -0.051300
      3 C3         -0.7560    0.2070    0.9360 ca        1 1JT     -0.071000
      4 C4          2.0670   -0.1700    1.1510 ca        1 1JT     -0.143000
      5 C5          1.2950    0.0720    2.2870 ca        1 1JT     -0.070200
      6 C6         -0.1420    0.2690    2.1890 ca        1 1JT      0.066400
      7 N7         -0.6730    0.4940    3.4800 nc        1 1JT     -0.567100
      8 C8          0.3770    0.4390    4.3090 cd        1 1JT      0.427700
      9 N9          1.6000    0.1480    3.6580 na        1 1JT     -0.175300
     10 C10         2.9050    0.1920    4.2450 c3        1 1JT      0.101600
     11 C11         3.5120    1.5590    4.3880 ca        1 1JT     -0.156300
     12 C12         3.6940    2.3720    3.2630 ca        1 1JT     -0.083000
     13 C13         4.2900    3.6260    3.3700 ca        1 1JT     -0.095300
     14 C14         4.7120    4.0640    4.6480 ca        1 1JT      0.130100
     15 C15         4.5330    3.2580    5.7770 ca        1 1JT     -0.203000
     16 C16         3.9290    2.0090    5.6410 ca        1 1JT     -0.087000
     17 C17         2.2720   -0.4380   -1.2940 c3        1 1JT     -0.034100
     18 C18         1.4850   -0.8700   -2.5130 c3        1 1JT     -0.075400
     19 C19         0.2620    0.0020   -2.6930 c3        1 1JT     -0.075400
     20 C20        -0.6690   -0.1330   -1.5080 c3        1 1JT     -0.031100
     21 O21         5.2980    5.3140    4.6730 os        1 1JT     -0.323900
     22 C22         5.7070    5.7930    5.9490 c3        1 1JT      0.112700
     23 C23         4.4820    4.4940    2.1880 c3        1 1JT     -0.043800
     24 H1         -1.8430    0.3470    0.8450 ha        1 1JT      0.147000
     25 H2          3.1530   -0.3170    1.2240 ha        1 1JT      0.133000
     26 H3          0.3310    0.5730    5.3960 h5        1 1JT      0.066800
     27 H4          2.8360   -0.2950    5.2610 h1        1 1JT      0.064200
     28 H5          3.5910   -0.4340    3.6000 h1        1 1JT      0.064200
     29 H6          3.3540    2.0140    2.2760 ha        1 1JT      0.146000
     30 H7          4.8590    3.5960    6.7710 ha        1 1JT      0.139000
     31 H8          3.7870    1.3790    6.5320 ha        1 1JT      0.131000
     32 H9          2.8090    0.5240   -1.5220 hc        1 1JT      0.048200
     33 H10         3.0580   -1.2090   -1.0690 hc        1 1JT      0.048200
     34 H11         1.1700   -1.9400   -2.4010 hc        1 1JT      0.043200
     35 H12         2.1400   -0.8040   -3.4200 hc        1 1JT      0.043200
     36 H13         0.5780    1.0720   -2.8090 hc        1 1JT      0.042200
     37 H14        -0.2810   -0.2920   -3.6280 hc        1 1JT      0.042200
     38 H15        -1.4650    0.6570   -1.5710 hc        1 1JT      0.049200
     39 H16        -1.1890   -1.1300   -1.5570 hc        1 1JT      0.049200
     40 H17         4.8320    5.8760    6.6390 h1        1 1JT      0.045367
     41 H18         6.4910    5.1290    6.3870 h1        1 1JT      0.045367
     42 H19         6.1290    6.8050    5.7230 h1        1 1JT      0.045367
     43 H20         5.5710    4.7080    2.0440 hc        1 1JT      0.048700
     44 H21         4.0830    4.0140    1.2610 hc        1 1JT      0.048700
     45 H22         3.9600    5.4710    2.3430 hc        1 1JT      0.048700
@<TRIPOS>BOND
     1    1    2 ar  
     2    1    3 ar  
     3    1   20 1   
     4    2    4 ar  
     5    2   17 1   
     6    3    6 ar  
     7    3   24 1   
     8    4    5 ar  
     9    4   25 1   
    10    5    6 ar  
    11    5    9 1   
    12    6    7 1   
    13    7    8 2   
    14    8    9 1   
    15    8   26 1   
    16    9   10 1   
    17   10   11 1   
    18   10   27 1   
    19   10   28 1   
    20   11   12 ar  
    21   11   16 ar  
    22   12   13 ar  
    23   12   29 1   
    24   13   14 ar  
    25   13   23 1   
    26   14   15 ar  
    27   14   21 1   
    28   15   16 ar  
    29   15   30 1   
    30   16   31 1   
    31   17   18 1   
    32   17   32 1   
    33   17   33 1   
    34   18   19 1   
    35   18   34 1   
    36   18   35 1   
    37   19   20 1   
    38   19   36 1   
    39   19   37 1   
    40   20   38 1   
    41   20   39 1   
    42   21   22 1   
    43   22   40 1   
    44   22   41 1   
    45   22   42 1   
    46   23   43 1   
    47   23   44 1   
    48   23   45 1   
@<TRIPOS>SUBSTRUCTURE
     1 1JT         1 TEMP              0 ****  ****    0 ROOT
