@<TRIPOS>MOLECULE
1JU
   41    45     1     0     0
SMALL
bcc


@<TRIPOS>ATOM
      1 C1          0.0120    0.3120    0.2770 c3        1 1JU      0.099600
      2 C2          1.4970    0.0670    0.2700 ca        1 1JU     -0.125300
      3 C3         -1.4740    5.4430   -3.8990 c3        1 1JU     -0.031100
      4 C4         -1.1450    4.3850   -2.9010 ca        1 1JU     -0.091300
      5 C5         -1.1460    5.0510   -5.3240 c3        1 1JU     -0.076400
      6 C6         -1.6550    3.6590   -5.6250 c3        1 1JU     -0.075400
      7 C7         -0.9830    2.6400   -4.7300 c3        1 1JU     -0.035100
      8 C8         -0.9480    3.0410   -3.2950 ca        1 1JU     -0.048300
      9 C9         -0.6790    2.0460   -2.3540 ca        1 1JU     -0.145000
     10 C10        -1.0710    4.7620   -1.5600 ca        1 1JU     -0.070000
     11 C11        -0.6040    2.4110   -1.0100 ca        1 1JU     -0.070200
     12 N12        -0.3920    1.6810    0.1730 na        1 1JU     -0.178300
     13 C13        -0.4100    2.6330    1.2220 cc        1 1JU      0.427700
     14 C14        -0.7970    3.7900   -0.5950 ca        1 1JU      0.066400
     15 N15        -0.6680    3.8790    0.8100 nd        1 1JU     -0.564100
     16 C16         2.0850   -0.6180    1.3320 ca        1 1JU     -0.118000
     17 C17         2.2570    0.5070   -0.8360 ca        1 1JU     -0.095000
     18 O18         5.5590   -0.6350    0.0350 os        1 1JU     -0.331900
     19 C19         4.1990   -0.4860    0.2770 ca        1 1JU      0.065100
     20 C20         5.8300    0.0000   -1.2370 c3        1 1JU      0.320200
     21 O21         4.5810    0.5210   -1.7480 os        1 1JU     -0.330900
     22 C22         3.6030    0.2160   -0.8060 ca        1 1JU      0.057100
     23 C23         3.4600   -0.9160    1.3590 ca        1 1JU     -0.115000
     24 H1         -0.4400   -0.2470   -0.5950 h1        1 1JU      0.067700
     25 H2         -0.4300   -0.1020    1.2290 h1        1 1JU      0.067700
     26 H4         -0.9250    6.3880   -3.6400 hc        1 1JU      0.049700
     27 H5         -1.6100    5.7890   -6.0290 hc        1 1JU      0.043200
     28 H6         -0.0360    5.0870   -5.4810 hc        1 1JU      0.043200
     29 H7         -2.7660    3.6250   -5.4710 hc        1 1JU      0.043200
     30 H8         -1.4550    3.4020   -6.6970 hc        1 1JU      0.043200
     31 H9         -1.5090    1.6530   -4.8330 hc        1 1JU      0.049200
     32 H10         0.0770    2.4870   -5.0750 hc        1 1JU      0.049200
     33 H11        -0.5330    1.0040   -2.6690 ha        1 1JU      0.133000
     34 H12        -1.2260    5.8090   -1.2620 ha        1 1JU      0.148000
     35 H13        -0.2490    2.3320    2.2640 h5        1 1JU      0.066800
     36 H14         1.4660   -0.9450    2.1820 ha        1 1JU      0.137000
     37 H15         1.7920    1.0560   -1.6670 ha        1 1JU      0.167000
     38 H16         6.2110   -0.7740   -1.9470 h2        1 1JU      0.074700
     39 H17         3.9140   -1.4570    2.1980 ha        1 1JU      0.158000
     40 H18         6.5300    0.8540   -1.0670 h2        1 1JU      0.074700
     41 H3         -2.5740    5.6670   -3.8210 hc        1 1JU      0.049700
@<TRIPOS>BOND
     1    1    2 1   
     2    1   12 1   
     3    1   24 1   
     4    1   25 1   
     5    2   16 ar  
     6    2   17 ar  
     7    3    4 1   
     8    3    5 1   
     9    3   26 1   
    10    3   41 1   
    11    4    8 ar  
    12    4   10 ar  
    13    5    6 1   
    14    5   27 1   
    15    5   28 1   
    16    6    7 1   
    17    6   29 1   
    18    6   30 1   
    19    7    8 1   
    20    7   31 1   
    21    7   32 1   
    22    8    9 ar  
    23    9   11 ar  
    24    9   33 1   
    25   10   14 ar  
    26   10   34 1   
    27   11   12 1   
    28   11   14 ar  
    29   12   13 1   
    30   13   15 2   
    31   13   35 1   
    32   14   15 1   
    33   16   23 ar  
    34   16   36 1   
    35   17   22 ar  
    36   17   37 1   
    37   18   19 1   
    38   18   20 1   
    39   19   22 ar  
    40   19   23 ar  
    41   20   21 1   
    42   20   38 1   
    43   20   40 1   
    44   21   22 1   
    45   23   39 1   
@<TRIPOS>SUBSTRUCTURE
     1 1JU         1 TEMP              0 ****  ****    0 ROOT
