@<TRIPOS>MOLECULE
1JU
   41    45     1     0     0
SMALL
bcc


@<TRIPOS>ATOM
      1 C1          0.0120    0.3130    0.2790 c3        1 1JU      0.099600
      2 C2          1.4990    0.0770    0.2790 ca        1 1JU     -0.125300
      3 C3         -1.4830    5.4250   -3.9160 c3        1 1JU     -0.031100
      4 C4         -1.1530    4.3710   -2.9150 ca        1 1JU     -0.091300
      5 C5         -1.1440    5.0320   -5.3380 c3        1 1JU     -0.076400
      6 C6         -1.6440    3.6370   -5.6390 c3        1 1JU     -0.075400
      7 C7         -0.9700    2.6230   -4.7390 c3        1 1JU     -0.035100
      8 C8         -0.9460    3.0280   -3.3040 ca        1 1JU     -0.048300
      9 C9         -0.6760    2.0370   -2.3590 ca        1 1JU     -0.145000
     10 C10        -1.0880    4.7520   -1.5740 ca        1 1JU     -0.070000
     11 C11        -0.6100    2.4050   -1.0160 ca        1 1JU     -0.070200
     12 N12        -0.4000    1.6780    0.1700 na        1 1JU     -0.178300
     13 C13        -0.4290    2.6330    1.2160 cc        1 1JU      0.427700
     14 C14        -0.8140    3.7840   -0.6060 ca        1 1JU      0.066400
     15 N15        -0.6930    3.8770    0.8000 nd        1 1JU     -0.564100
     16 C16         2.0860   -0.6010    1.3460 ca        1 1JU     -0.118000
     17 C17         2.2600    0.5170   -0.8260 ca        1 1JU     -0.095000
     18 O18         5.5660   -0.6000    0.0630 os        1 1JU     -0.331900
     19 C19         4.2040   -0.4600    0.2980 ca        1 1JU      0.065100
     20 C20         5.8380    0.0320   -1.2110 c3        1 1JU      0.320200
     21 O21         4.5870    0.5430   -1.7280 os        1 1JU     -0.330900
     22 C22         3.6080    0.2360   -0.7890 ca        1 1JU      0.057100
     23 C23         3.4630   -0.8900    1.3800 ca        1 1JU     -0.115000
     24 H1         -0.4320   -0.1020    1.2310 h1        1 1JU      0.067700
     25 H2         -0.4330   -0.2520   -0.5940 h1        1 1JU      0.067700
     26 H4         -0.9410    6.3740   -3.6560 hc        1 1JU      0.049700
     27 H5         -0.0340    5.0740   -5.4900 hc        1 1JU      0.043200
     28 H6         -1.6090    5.7650   -6.0470 hc        1 1JU      0.043200
     29 H7         -2.7550    3.5960   -5.4920 hc        1 1JU      0.043200
     30 H8         -1.4360    3.3780   -6.7100 hc        1 1JU      0.043200
     31 H9          0.0930    2.4760   -5.0780 hc        1 1JU      0.049200
     32 H10        -1.4900    1.6330   -4.8430 hc        1 1JU      0.049200
     33 H11        -0.5220    0.9950   -2.6710 ha        1 1JU      0.133000
     34 H12        -1.2510    5.7990   -1.2790 ha        1 1JU      0.148000
     35 H13        -0.2720    2.3350    2.2600 h5        1 1JU      0.066800
     36 H14         1.4660   -0.9290    2.1950 ha        1 1JU      0.137000
     37 H15         1.7950    1.0620   -1.6600 ha        1 1JU      0.167000
     38 H16         6.5320    0.8910   -1.0410 h2        1 1JU      0.074700
     39 H17         3.9180   -1.4250    2.2220 ha        1 1JU      0.158000
     40 H18         6.2260   -0.7430   -1.9170 h2        1 1JU      0.074700
     41 H3         -2.5840    5.6430   -3.8450 hc        1 1JU      0.049700
@<TRIPOS>BOND
     1    1    2 1   
     2    1   12 1   
     3    1   24 1   
     4    1   25 1   
     5    2   16 ar  
     6    2   17 ar  
     7    3    4 1   
     8    3    5 1   
     9    3   26 1   
    10    3   41 1   
    11    4    8 ar  
    12    4   10 ar  
    13    5    6 1   
    14    5   27 1   
    15    5   28 1   
    16    6    7 1   
    17    6   29 1   
    18    6   30 1   
    19    7    8 1   
    20    7   31 1   
    21    7   32 1   
    22    8    9 ar  
    23    9   11 ar  
    24    9   33 1   
    25   10   14 ar  
    26   10   34 1   
    27   11   12 1   
    28   11   14 ar  
    29   12   13 1   
    30   13   15 2   
    31   13   35 1   
    32   14   15 1   
    33   16   23 ar  
    34   16   36 1   
    35   17   22 ar  
    36   17   37 1   
    37   18   19 1   
    38   18   20 1   
    39   19   22 ar  
    40   19   23 ar  
    41   20   21 1   
    42   20   38 1   
    43   20   40 1   
    44   21   22 1   
    45   23   39 1   
@<TRIPOS>SUBSTRUCTURE
     1 1JU         1 TEMP              0 ****  ****    0 ROOT
