@<TRIPOS>MOLECULE
1JV
   55    59     1     0     0
SMALL
bcc


@<TRIPOS>ATOM
      1 C1          0.0400    0.3390   -0.3100 c3        1 1JV     -0.125600
      2 C2          1.5360    0.2160   -0.5800 c3        1 1JV      0.130800
      3 C3          2.0730   -1.0860   -0.0080 c3        1 1JV     -0.125600
      4 O4          1.7800    0.2920   -1.9850 oh        1 1JV     -0.606800
      5 C5          2.2380    1.4560    0.0290 c3        1 1JV      0.062300
      6 N6          3.6830    1.4460   -0.0590 na        1 1JV      0.089400
      7 C7          4.3930    1.5100   -1.2610 cc        1 1JV     -0.095300
      8 C8          5.7620    1.4610   -0.9270 cd        1 1JV     -0.235300
      9 C9          5.7690    1.3550    0.5230 cd        1 1JV      0.317200
     10 N10         4.5040    1.3400    1.0040 nc        1 1JV     -0.517800
     11 C11         6.8950    1.5070   -1.8070 ca        1 1JV      0.046000
     12 C12         6.7200    1.4710   -3.2020 ca        1 1JV     -0.149000
     13 C13         7.8120    1.5100   -4.0610 ca        1 1JV     -0.080000
     14 C14         9.1140    1.5810   -3.5530 ca        1 1JV     -0.157500
     15 C15         9.2910    1.6340   -2.1560 ca        1 1JV      0.117100
     16 O16        10.5380    1.8940   -1.6020 os        1 1JV     -0.336900
     17 C17        11.4700    0.8150   -1.6000 c3        1 1JV      0.142400
     18 C18        11.5950    0.0420   -2.9040 c3        1 1JV     -0.034100
     19 C19        11.4590    0.8740   -4.1080 cc        1 1JV     -0.217700
     20 C20        10.2770    1.5730   -4.4290 cd        1 1JV      0.417800
     21 N21        10.3190    2.2450   -5.6370 nd        1 1JV     -0.619000
     22 C22        11.5270    2.0550   -6.2010 cc        1 1JV      0.296400
     23 S23        12.5980    1.0790   -5.2980 ss        1 1JV      0.085700
     24 C24        11.9350    2.5980   -7.4820 cc        1 1JV      0.407500
     25 N25        13.1080    2.3020   -8.1080 nd        1 1JV     -0.688000
     26 C26        13.0510    3.0450   -9.2950 cd        1 1JV      0.523900
     27 N27        11.9070    3.7710   -9.4150 nc        1 1JV     -0.507800
     28 N28        11.2050    3.5140   -8.2920 na        1 1JV     -0.034400
     29 C29         9.9100    4.0880   -8.0480 c3        1 1JV      0.021300
     30 C30         8.7320    3.2670   -8.6950 c3        1 1JV      0.611900
     31 F31         8.6040    1.9810   -8.2480 f         1 1JV     -0.230633
     32 F32         7.5180    3.8550   -8.4410 f         1 1JV     -0.230633
     33 F33         8.7990    3.1680  -10.0590 f         1 1JV     -0.230633
     34 C34         8.1960    1.5900   -1.2880 ca        1 1JV     -0.145000
     35 H1         -0.3490    1.3010   -0.7200 hc        1 1JV      0.050200
     36 H2         -0.5040   -0.5020   -0.8040 hc        1 1JV      0.050200
     37 H3         -0.1570    0.3000    0.7870 hc        1 1JV      0.050200
     38 H4          2.0880   -1.0360    1.1060 hc        1 1JV      0.050200
     39 H5          3.1090   -1.2760   -0.3770 hc        1 1JV      0.050200
     40 H6          1.4240   -1.9390   -0.3220 hc        1 1JV      0.050200
     41 H7          1.4020   -0.5030   -2.3780 ho        1 1JV      0.409000
     42 H8          1.9290    1.5300    1.1100 h1        1 1JV      0.079200
     43 H9          1.8730    2.3660   -0.5270 h1        1 1JV      0.079200
     44 H10         3.8790    1.5680   -2.2230 h4        1 1JV      0.195000
     45 H11         6.6370    1.2950    1.1810 h4        1 1JV      0.044100
     46 H12         5.7030    1.4110   -3.6200 ha        1 1JV      0.136000
     47 H13         7.6540    1.4820   -5.1510 ha        1 1JV      0.151000
     48 H14        12.4370    1.3330   -1.3470 h1        1 1JV      0.054200
     49 H15        11.1950    0.1040   -0.7750 h1        1 1JV      0.054200
     50 H16        12.5850   -0.4890   -2.9000 hc        1 1JV      0.065200
     51 H17        10.7920   -0.7490   -2.9320 hc        1 1JV      0.065200
     52 H18        13.8520    3.0310  -10.0430 h5        1 1JV      0.078100
     53 H19         9.7130    4.1530   -6.9430 h1        1 1JV      0.119200
     54 H20         9.8570    5.1200   -8.4990 h1        1 1JV      0.119200
     55 H21         8.3660    1.6450   -0.2030 ha        1 1JV      0.147000
@<TRIPOS>BOND
     1    1    2 1   
     2    1   35 1   
     3    1   36 1   
     4    1   37 1   
     5    2    3 1   
     6    2    4 1   
     7    2    5 1   
     8    3   38 1   
     9    3   39 1   
    10    3   40 1   
    11    4   41 1   
    12    5    6 1   
    13    5   42 1   
    14    5   43 1   
    15    6    7 1   
    16    6   10 1   
    17    7    8 2   
    18    7   44 1   
    19    8    9 1   
    20    8   11 1   
    21    9   10 2   
    22    9   45 1   
    23   11   12 ar  
    24   11   34 ar  
    25   12   13 ar  
    26   12   46 1   
    27   13   14 ar  
    28   13   47 1   
    29   14   15 ar  
    30   14   20 1   
    31   15   16 1   
    32   15   34 ar  
    33   16   17 1   
    34   17   18 1   
    35   17   48 1   
    36   17   49 1   
    37   18   19 1   
    38   18   50 1   
    39   18   51 1   
    40   19   20 2   
    41   19   23 1   
    42   20   21 1   
    43   21   22 2   
    44   22   23 1   
    45   22   24 1   
    46   24   25 2   
    47   24   28 1   
    48   25   26 1   
    49   26   27 2   
    50   26   52 1   
    51   27   28 1   
    52   28   29 1   
    53   29   30 1   
    54   29   53 1   
    55   29   54 1   
    56   30   31 1   
    57   30   32 1   
    58   30   33 1   
    59   34   55 1   
@<TRIPOS>SUBSTRUCTURE
     1 1JV         1 TEMP              0 ****  ****    0 ROOT
