@<TRIPOS>MOLECULE
1JV
   55    59     1     0     0
SMALL
bcc


@<TRIPOS>ATOM
      1 C1          0.0430    0.3230   -0.3090 c3        1 1JV     -0.125600
      2 C2          1.5400    0.2040   -0.5790 c3        1 1JV      0.130800
      3 C3          2.0800   -1.0950   -0.0040 c3        1 1JV     -0.125600
      4 O4          1.7840    0.2780   -1.9840 oh        1 1JV     -0.606800
      5 C5          2.2380    1.4470    0.0290 c3        1 1JV      0.062300
      6 N6          3.6830    1.4410   -0.0600 na        1 1JV      0.089400
      7 C7          4.3940    1.5050   -1.2610 cc        1 1JV     -0.095300
      8 C8          5.7620    1.4610   -0.9260 cd        1 1JV     -0.235300
      9 C9          5.7690    1.3590    0.5240 cd        1 1JV      0.317200
     10 N10         4.5040    1.3400    1.0040 nc        1 1JV     -0.517800
     11 C11         6.8950    1.5100   -1.8070 ca        1 1JV      0.046000
     12 C12         6.7200    1.4670   -3.2010 ca        1 1JV     -0.149000
     13 C13         7.8130    1.5070   -4.0610 ca        1 1JV     -0.080000
     14 C14         9.1140    1.5870   -3.5520 ca        1 1JV     -0.157500
     15 C15         9.2910    1.6480   -2.1550 ca        1 1JV      0.117100
     16 O16        10.5360    1.9170   -1.6030 os        1 1JV     -0.336900
     17 C17        11.4740    0.8430   -1.5950 c3        1 1JV      0.142400
     18 C18        11.6030    0.0650   -2.8960 c3        1 1JV     -0.034100
     19 C19        11.4630    0.8900   -4.1030 cc        1 1JV     -0.217700
     20 C20        10.2770    1.5810   -4.4280 cd        1 1JV      0.417800
     21 N21        10.3160    2.2480   -5.6390 nd        1 1JV     -0.619000
     22 C22        11.5250    2.0630   -6.2020 cc        1 1JV      0.296400
     23 S23        12.6010    1.0960   -5.2950 ss        1 1JV      0.085700
     24 C24        11.9300    2.6020   -7.4860 cc        1 1JV      0.407500
     25 N25        13.1050    2.3090   -8.1100 nd        1 1JV     -0.688000
     26 C26        13.0440    3.0460   -9.3000 cd        1 1JV      0.523900
     27 N27        11.8960    3.7660   -9.4240 nc        1 1JV     -0.507800
     28 N28        11.1960    3.5100   -8.2990 na        1 1JV     -0.034400
     29 C29         9.8980    4.0790   -8.0570 c3        1 1JV      0.021300
     30 C30         8.7240    3.2490   -8.7010 c3        1 1JV      0.611900
     31 F31         8.6030    1.9650   -8.2490 f         1 1JV     -0.230633
     32 F32         7.5070    3.8330   -8.4500 f         1 1JV     -0.230633
     33 F33         8.7920    3.1450  -10.0650 f         1 1JV     -0.230633
     34 C34         8.1950    1.6020   -1.2880 ca        1 1JV     -0.145000
     35 H1         -0.1540    0.2850    0.7880 hc        1 1JV      0.050200
     36 H2         -0.4980   -0.5200   -0.8010 hc        1 1JV      0.050200
     37 H3         -0.3480    1.2830   -0.7210 hc        1 1JV      0.050200
     38 H4          2.0960   -1.0440    1.1100 hc        1 1JV      0.050200
     39 H5          1.4340   -1.9510   -0.3170 hc        1 1JV      0.050200
     40 H6          3.1170   -1.2830   -0.3730 hc        1 1JV      0.050200
     41 H7          1.4080   -0.5190   -2.3760 ho        1 1JV      0.409000
     42 H8          1.9290    1.5220    1.1090 h1        1 1JV      0.079200
     43 H9          1.8710    2.3550   -0.5290 h1        1 1JV      0.079200
     44 H10         3.8790    1.5600   -2.2230 h4        1 1JV      0.195000
     45 H11         6.6370    1.3020    1.1820 h4        1 1JV      0.044100
     46 H12         5.7050    1.3990   -3.6190 ha        1 1JV      0.136000
     47 H13         7.6550    1.4740   -5.1510 ha        1 1JV      0.151000
     48 H14        11.2020    0.1350   -0.7670 h1        1 1JV      0.054200
     49 H15        12.4380    1.3670   -1.3440 h1        1 1JV      0.054200
     50 H16        12.5960   -0.4610   -2.8880 hc        1 1JV      0.065200
     51 H17        10.8040   -0.7310   -2.9200 hc        1 1JV      0.065200
     52 H18        13.8450    3.0330  -10.0480 h5        1 1JV      0.078100
     53 H19         9.7010    4.1480   -6.9530 h1        1 1JV      0.119200
     54 H20         9.8400    5.1090   -8.5140 h1        1 1JV      0.119200
     55 H21         8.3640    1.6630   -0.2030 ha        1 1JV      0.147000
@<TRIPOS>BOND
     1    1    2 1   
     2    1   35 1   
     3    1   36 1   
     4    1   37 1   
     5    2    3 1   
     6    2    4 1   
     7    2    5 1   
     8    3   38 1   
     9    3   39 1   
    10    3   40 1   
    11    4   41 1   
    12    5    6 1   
    13    5   42 1   
    14    5   43 1   
    15    6    7 1   
    16    6   10 1   
    17    7    8 2   
    18    7   44 1   
    19    8    9 1   
    20    8   11 1   
    21    9   10 2   
    22    9   45 1   
    23   11   12 ar  
    24   11   34 ar  
    25   12   13 ar  
    26   12   46 1   
    27   13   14 ar  
    28   13   47 1   
    29   14   15 ar  
    30   14   20 1   
    31   15   16 1   
    32   15   34 ar  
    33   16   17 1   
    34   17   18 1   
    35   17   48 1   
    36   17   49 1   
    37   18   19 1   
    38   18   50 1   
    39   18   51 1   
    40   19   20 2   
    41   19   23 1   
    42   20   21 1   
    43   21   22 2   
    44   22   23 1   
    45   22   24 1   
    46   24   25 2   
    47   24   28 1   
    48   25   26 1   
    49   26   27 2   
    50   26   52 1   
    51   27   28 1   
    52   28   29 1   
    53   29   30 1   
    54   29   53 1   
    55   29   54 1   
    56   30   31 1   
    57   30   32 1   
    58   30   33 1   
    59   34   55 1   
@<TRIPOS>SUBSTRUCTURE
     1 1JV         1 TEMP              0 ****  ****    0 ROOT
