@<TRIPOS>MOLECULE
1JV
   55    59     1     0     0
SMALL
bcc


@<TRIPOS>ATOM
      1 C1          8.7870    2.4090    0.5850 c3        1 1JV     -0.108600
      2 C2          7.4500    1.6750    0.5740 c3        1 1JV      0.135800
      3 C3          7.3750    0.6850    1.7270 c3        1 1JV     -0.108600
      4 O4          6.3750    2.5920    0.7670 oh        1 1JV     -0.598800
      5 C5          7.3070    0.9800   -0.8040 c3        1 1JV      0.026300
      6 N6          6.1650    0.1000   -0.9330 na        1 1JV      0.089400
      7 C7          4.8600    0.4190   -0.5460 cc        1 1JV     -0.104300
      8 C8          4.0530   -0.6860   -0.8850 cd        1 1JV     -0.232300
      9 C9          4.9810   -1.6340   -1.4790 cd        1 1JV      0.317200
     10 N10         6.2350   -1.1270   -1.4880 nc        1 1JV     -0.516800
     11 C11         2.6400   -0.8470   -0.6920 ca        1 1JV      0.044000
     12 C12         1.9030    0.1080    0.0310 ca        1 1JV     -0.148000
     13 C13         0.5340   -0.0430    0.2260 ca        1 1JV     -0.080000
     14 C14        -0.1390   -1.1560   -0.2920 ca        1 1JV     -0.156500
     15 C15         0.5950   -2.1050   -1.0300 ca        1 1JV      0.117100
     16 O16        -0.0460   -3.1240   -1.7220 os        1 1JV     -0.336900
     17 C17        -0.5270   -4.2180   -0.9430 c3        1 1JV      0.142400
     18 C18        -1.2840   -3.8480    0.3240 c3        1 1JV     -0.034100
     19 C19        -2.1060   -2.6370    0.1970 cc        1 1JV     -0.217700
     20 C20        -1.5620   -1.3620   -0.0610 cd        1 1JV      0.417800
     21 N21        -2.4890   -0.3360   -0.0780 nd        1 1JV     -0.618000
     22 C22        -3.7120   -0.8480    0.1550 cc        1 1JV      0.295400
     23 S23        -3.7510   -2.5370    0.3980 ss        1 1JV      0.086700
     24 C24        -4.9330   -0.0690    0.2260 cc        1 1JV      0.407500
     25 N25        -6.1470   -0.5680    0.5930 nd        1 1JV     -0.688000
     26 C26        -7.0000    0.5410    0.5180 cd        1 1JV      0.523900
     27 N27        -6.3650    1.6780    0.1250 nc        1 1JV     -0.507800
     28 N28        -5.0800    1.3150   -0.0720 na        1 1JV     -0.034400
     29 C29        -4.0720    2.2540   -0.4820 c3        1 1JV      0.022300
     30 C30        -3.4250    3.0400    0.7210 c3        1 1JV      0.611900
     31 F31        -2.7880    2.2630    1.6480 f         1 1JV     -0.230633
     32 F32        -2.4730    3.9250    0.2810 f         1 1JV     -0.230633
     33 F33        -4.3120    3.8000    1.4360 f         1 1JV     -0.230633
     34 C34         1.9720   -1.9600   -1.2240 ca        1 1JV     -0.144000
     35 H1          8.8830    3.0670   -0.3120 hc        1 1JV      0.052533
     36 H2          8.8570    3.0420    1.5020 hc        1 1JV      0.052533
     37 H3          9.6280    1.6760    0.5870 hc        1 1JV      0.052533
     38 H4          7.6820    1.1860    2.6760 hc        1 1JV      0.052533
     39 H5          6.3300    0.3130    1.8490 hc        1 1JV      0.052533
     40 H6          8.0550   -0.1760    1.5270 hc        1 1JV      0.052533
     41 H7          6.5270    3.3390    0.1760 ho        1 1JV      0.403000
     42 H8          7.2130    1.7820   -1.5930 h1        1 1JV      0.070200
     43 H9          8.2490    0.3930   -1.0000 h1        1 1JV      0.070200
     44 H10         4.6230    1.3690   -0.0610 h4        1 1JV      0.197000
     45 H11         4.7570   -2.6240   -1.8770 h4        1 1JV      0.044100
     46 H12         2.4160    0.9860    0.4510 ha        1 1JV      0.137000
     47 H13        -0.0270    0.7170    0.7940 ha        1 1JV      0.151000
     48 H14        -1.1980   -4.7540   -1.6690 h1        1 1JV      0.054200
     49 H15         0.3420   -4.8770   -0.6740 h1        1 1JV      0.054200
     50 H16        -1.9170   -4.7280    0.6190 hc        1 1JV      0.065700
     51 H17        -0.5380   -3.6810    1.1530 hc        1 1JV      0.065700
     52 H18        -8.0680    0.4850    0.7570 h5        1 1JV      0.078100
     53 H19        -3.2430    1.7240   -1.0270 h1        1 1JV      0.119200
     54 H20        -4.5270    3.0340   -1.1570 h1        1 1JV      0.119200
     55 H21         2.5150   -2.7120   -1.8140 ha        1 1JV      0.147000
@<TRIPOS>BOND
     1    1    2 1   
     2    1   35 1   
     3    1   36 1   
     4    1   37 1   
     5    2    3 1   
     6    2    4 1   
     7    2    5 1   
     8    3   38 1   
     9    3   39 1   
    10    3   40 1   
    11    4   41 1   
    12    5    6 1   
    13    5   42 1   
    14    5   43 1   
    15    6    7 1   
    16    6   10 1   
    17    7    8 2   
    18    7   44 1   
    19    8    9 1   
    20    8   11 1   
    21    9   10 2   
    22    9   45 1   
    23   11   12 ar  
    24   11   34 ar  
    25   12   13 ar  
    26   12   46 1   
    27   13   14 ar  
    28   13   47 1   
    29   14   15 ar  
    30   14   20 1   
    31   15   16 1   
    32   15   34 ar  
    33   16   17 1   
    34   17   18 1   
    35   17   48 1   
    36   17   49 1   
    37   18   19 1   
    38   18   50 1   
    39   18   51 1   
    40   19   20 2   
    41   19   23 1   
    42   20   21 1   
    43   21   22 2   
    44   22   23 1   
    45   22   24 1   
    46   24   25 2   
    47   24   28 1   
    48   25   26 1   
    49   26   27 2   
    50   26   52 1   
    51   27   28 1   
    52   28   29 1   
    53   29   30 1   
    54   29   53 1   
    55   29   54 1   
    56   30   31 1   
    57   30   32 1   
    58   30   33 1   
    59   34   55 1   
@<TRIPOS>SUBSTRUCTURE
     1 1JV         1 TEMP              0 ****  ****    0 ROOT
