@<TRIPOS>MOLECULE
1JV
   55    50     1     0     0
SMALL
bcc


@<TRIPOS>ATOM
      1 C1         -0.0210    5.5560    5.6860 c3        1 1JV     -0.225500
      2 C2          0.1380    5.5480    4.1490 c3        1 1JV      0.063000
      3 C3         -0.1610    6.9560    3.5950 c3        1 1JV     -0.225500
      4 O4         -0.7870    4.6010    3.5720 oh        1 1JV     -0.326000
      5 C5          1.5970    5.1400    3.7780 c3        1 1JV     -0.037000
      6 N6          1.5930    3.8200    3.1600 n3        1 1JV     -0.126000
      7 C7          1.4930    3.5630    1.8280 c1        1 1JV     -0.101000
      8 C8          1.4190    2.2090    1.6640 c1        1 1JV     -0.157000
      9 C9          1.4730    1.6280    2.9110 c1        1 1JV     -0.152000
     10 N10         1.5800    2.6160    3.8280 n2        1 1JV     -0.077000
     11 C11         1.2390    1.4720    0.3350 c1        1 1JV      0.039000
     12 C12         2.1870    0.4110   -0.0080 c1        1 1JV     -0.111500
     13 C13         1.7170   -0.8260   -0.5450 c1        1 1JV     -0.111500
     14 C14         0.3940   -1.0220   -0.7390 c1        1 1JV     -0.044000
     15 C15        -0.6110    0.0970   -0.3780 c1        1 1JV      0.074000
     16 O16        -1.8460   -0.2130   -0.7570 os        1 1JV     -0.219000
     17 C17        -2.4270   -0.9730    0.1230 c3        1 1JV     -0.008000
     18 C18        -2.3560   -2.0980   -0.2050 c3        1 1JV     -0.120000
     19 C19        -1.7680   -2.1960   -1.4980 c2        1 1JV     -0.415000
     20 C20        -0.3650   -2.3730   -1.4080 c2        1 1JV     -0.021000
     21 N21         0.1120   -3.2270   -2.6500 n2        1 1JV     -0.095000
     22 C22        -1.0140   -3.5330   -3.4400 c1        1 1JV     -0.278000
     23 S23        -2.2480   -2.9070   -2.7640 ss        1 1JV      0.673000
     24 C24        -0.5730   -4.9740   -3.4690 c1        1 1JV     -0.044000
     25 N25        -0.3210   -5.7430   -2.3870 n2        1 1JV     -0.158000
     26 C26         0.1720   -6.9090   -2.8120 c1        1 1JV     -0.044000
     27 N27         0.2280   -6.8700   -4.1640 n2        1 1JV     -0.103500
     28 N28        -0.2330   -5.6750   -4.5650 n2        1 1JV     -0.103500
     29 C29        -0.4480   -5.2760   -5.9090 c2        1 1JV     -0.043000
     30 C30         0.3520   -6.2200   -6.8630 c3        1 1JV      0.395000
     31 F31         1.6200   -6.2790   -6.4690 f         1 1JV     -0.158333
     32 F32         0.2980   -5.7570   -8.0820 f         1 1JV     -0.158333
     33 F33        -0.2000   -7.4850   -6.8250 f         1 1JV     -0.158333
     34 C34        -0.1570    1.2760    0.1340 c1        1 1JV     -0.146000
     35 H1          0.8200    5.9080    6.1060 hc        1 1JV      0.090500
     36 H2         -0.7960    6.1470    5.9390 hc        1 1JV      0.090500
     37 H3         -0.1920    4.6250    6.0100 hc        1 1JV      0.090500
     38 H4         -0.0200    6.9590    2.5910 hc        1 1JV      0.090500
     39 H5         -1.1070    7.2000    3.7990 hc        1 1JV      0.090500
     40 H6          0.4530    7.6180    4.0200 hc        1 1JV      0.090500
     41 H7         -1.3970    4.3760    4.1740 ho        1 1JV      0.206000
     42 H8          1.9570    5.7730    3.1690 h1        1 1JV      0.118500
     43 H9          2.1380    5.1180    4.5750 h1        1 1JV      0.118500
     44 H10         1.4770    4.2640    1.0780 DU        1 1JV      0.195667
     45 H11         1.4390    0.6370    3.1070 DU        1 1JV      0.195667
     46 H12         3.1680    0.5620    0.1120 ha        1 1JV      0.142500
     47 H13         2.3380   -1.5150   -0.7650 ha        1 1JV      0.142500
     48 H14        -1.9990   -0.8610    0.9740 h1        1 1JV      0.094500
     49 H15        -3.3840   -0.7140    0.2010 h1        1 1JV      0.094500
     50 H16        -3.2810   -2.4970   -0.2260 hc        1 1JV      0.105000
     51 H17        -1.8100   -2.5860    0.4360 hc        1 1JV      0.105000
     52 H18         0.4510   -7.6780   -2.2310 DU        1 1JV      0.195667
     53 H19        -0.1380   -4.3380   -6.0310 ha        1 1JV      0.161000
     54 H20        -1.4300   -5.3360   -6.1240 ha        1 1JV      0.161000
     55 H21        -0.7610    2.0020    0.2590 ha        1 1JV      0.145000
@<TRIPOS>BOND
     1    1    2 1   
     2    1   35 1   
     3    1   36 1   
     4    1   37 1   
     5    2    3 1   
     6    2    4 1   
     7    2    5 1   
     8    3   38 1   
     9    3   39 1   
    10    3   40 1   
    11    4   41 1   
    12    5    6 1   
    13    5   42 1   
    14    5   43 1   
    15    6    7 1   
    16    6   10 1   
    17    7    8 1   
    18    8    9 1   
    19    9   10 1   
    20   11   34 1   
    21   12   13 1   
    22   12   46 1   
    23   13   47 1   
    24   14   15 1   
    25   14   20 1   
    26   15   16 1   
    27   16   17 1   
    28   17   18 1   
    29   17   48 1   
    30   17   49 1   
    31   18   19 1   
    32   18   50 1   
    33   18   51 1   
    34   19   20 1   
    35   19   23 1   
    36   20   21 1   
    37   21   22 1   
    38   22   23 1   
    39   24   25 1   
    40   24   28 1   
    41   25   26 1   
    42   26   27 1   
    43   27   28 1   
    44   29   30 1   
    45   29   53 1   
    46   29   54 1   
    47   30   31 1   
    48   30   32 1   
    49   30   33 1   
    50   34   55 1   
@<TRIPOS>SUBSTRUCTURE
     1 1JV         1 TEMP              0 ****  ****    0 ROOT
