@<TRIPOS>MOLECULE
1JX
   21    22     1     0     0
SMALL
bcc


@<TRIPOS>ATOM
      1 O          -0.0430    0.0650   -0.0170 o         1 1JX     -0.612500
      2 C           1.1980    0.0300   -0.0090 c         1 1JX      0.670500
      3 NAG         1.8810    0.0420    1.2000 ns        1 1JX     -0.545400
      4 CAK         3.2860   -0.0290    1.2430 ca        1 1JX      0.502200
      5 NAF         3.9230    0.2400    2.4220 nb        1 1JX     -0.693000
      6 CAD         5.2590    0.1290    2.4430 ca        1 1JX      0.416200
      7 CAC         6.0390   -0.2320    1.3320 ca        1 1JX     -0.265300
      8 CAE         5.4010   -0.4930    0.1230 ca        1 1JX     -0.070000
      9 CAJ         4.0010   -0.3960    0.0430 ca        1 1JX     -0.054700
     10 N           3.3350   -0.6200   -1.1870 nu        1 1JX     -0.696600
     11 CA          2.0190   -0.0180   -1.3110 c3        1 1JX      0.125500
     12 CB          2.0790    1.4150   -1.8480 c3        1 1JX     -0.092100
     13 H1          1.3750    0.2010    2.0450 hn        1 1JX      0.344500
     14 H2          5.7280    0.3470    3.4200 h4        1 1JX      0.027100
     15 H3          7.1310   -0.3030    1.4190 ha        1 1JX      0.149000
     16 H4          5.9870   -0.7730   -0.7670 ha        1 1JX      0.151000
     17 H5          3.3200   -1.5990   -1.4090 hn        1 1JX      0.390800
     18 H6          1.4180   -0.6380   -2.0430 h1        1 1JX      0.088700
     19 H7          1.0370    1.8080   -1.9370 hc        1 1JX      0.054700
     20 H8          2.6630    2.0780   -1.1660 hc        1 1JX      0.054700
     21 H9          2.5610    1.4260   -2.8540 hc        1 1JX      0.054700
@<TRIPOS>BOND
     1    1    2 2   
     2    2    3 1   
     3    2   11 1   
     4    3    4 1   
     5    3   13 1   
     6    4    5 ar  
     7    4    9 ar  
     8    5    6 ar  
     9    6    7 ar  
    10    6   14 1   
    11    7    8 ar  
    12    7   15 1   
    13    8    9 ar  
    14    8   16 1   
    15    9   10 1   
    16   10   11 1   
    17   10   17 1   
    18   11   12 1   
    19   11   18 1   
    20   12   19 1   
    21   12   20 1   
    22   12   21 1   
@<TRIPOS>SUBSTRUCTURE
     1 1JX         1 TEMP              0 ****  ****    0 ROOT
