@<TRIPOS>MOLECULE
1JX
   21    22     1     0     0
SMALL
bcc


@<TRIPOS>ATOM
      1 O          -0.0420    0.0430   -0.0410 o         1 1JX     -0.612500
      2 C           1.1990    0.0170   -0.0240 c         1 1JX      0.670500
      3 NAG         1.8740    0.0270    1.1900 n         1 1JX     -0.545400
      4 CAK         3.2790   -0.0350    1.2420 ca        1 1JX      0.502200
      5 NAF         3.9050    0.2330    2.4260 nb        1 1JX     -0.693000
      6 CAD         5.2420    0.1310    2.4570 ca        1 1JX      0.416200
      7 CAC         6.0320   -0.2200    1.3500 ca        1 1JX     -0.265300
      8 CAE         5.4050   -0.4790    0.1350 ca        1 1JX     -0.070000
      9 CAJ         4.0050   -0.3910    0.0450 ca        1 1JX     -0.054700
     10 N           3.3490   -0.6140   -1.1900 nh        1 1JX     -0.696600
     11 CA          2.0300   -0.0200   -1.3210 c3        1 1JX      0.125500
     12 CB          2.0830    1.4150   -1.8510 c3        1 1JX     -0.092100
     13 H1          1.3610    0.1790    2.0320 hn        1 1JX      0.344500
     14 H2          5.7030    0.3480    3.4390 h4        1 1JX      0.027100
     15 H3          7.1240   -0.2840    1.4440 ha        1 1JX      0.149000
     16 H4          5.9990   -0.7510   -0.7520 ha        1 1JX      0.151000
     17 H5          3.3420   -1.5920   -1.4170 hn        1 1JX      0.391800
     18 H6          1.4380   -0.6420   -2.0600 h1        1 1JX      0.088700
     19 H7          1.0400    1.8010   -1.9450 hc        1 1JX      0.054700
     20 H8          2.5730    1.4340   -2.8540 hc        1 1JX      0.054700
     21 H9          2.6580    2.0790   -1.1630 hc        1 1JX      0.054700
@<TRIPOS>BOND
     1    1    2 2   
     2    2    3 1   
     3    2   11 1   
     4    3    4 1   
     5    3   13 1   
     6    4    5 ar  
     7    4    9 ar  
     8    5    6 ar  
     9    6    7 ar  
    10    6   14 1   
    11    7    8 ar  
    12    7   15 1   
    13    8    9 ar  
    14    8   16 1   
    15    9   10 1   
    16   10   11 1   
    17   10   17 1   
    18   11   12 1   
    19   11   18 1   
    20   12   19 1   
    21   12   20 1   
    22   12   21 1   
@<TRIPOS>SUBSTRUCTURE
     1 1JX         1 TEMP              0 ****  ****    0 ROOT
