@<TRIPOS>MOLECULE
1JX
   21    22     1     0     0
SMALL
bcc


@<TRIPOS>ATOM
      1 O          -2.9110   -1.2160   -0.0370 o         1 1JX     -0.617500
      2 C          -1.8120   -0.6360   -0.0600 c         1 1JX      0.705500
      3 NAG        -0.6430   -1.3700    0.0430 n         1 1JX     -0.540400
      4 CAK         0.6220   -0.7530   -0.0100 ca        1 1JX      0.499200
      5 NAF         1.7310   -1.5110    0.2180 nb        1 1JX     -0.682000
      6 CAD         2.9260   -0.9000    0.1730 ca        1 1JX      0.396200
      7 CAC         3.0990    0.4680   -0.0860 ca        1 1JX     -0.244300
      8 CAE         1.9740    1.2530   -0.3210 ca        1 1JX     -0.120000
      9 CAJ         0.6970    0.6620   -0.3020 ca        1 1JX     -0.021700
     10 N          -0.4570    1.3790   -0.6670 nh        1 1JX     -0.697600
     11 CA         -1.7310    0.8940   -0.1640 c3        1 1JX      0.123500
     12 CB         -2.1680    1.4690    1.1840 c3        1 1JX     -0.131100
     13 H1         -0.6970   -2.3610    0.1420 hn        1 1JX      0.348500
     14 H2          3.7920   -1.5600    0.3600 h4        1 1JX      0.027100
     15 H3          4.1040    0.9080   -0.1030 ha        1 1JX      0.147000
     16 H4          2.0860    2.3280   -0.5320 ha        1 1JX      0.141000
     17 H5         -0.3570    2.3670   -0.5310 hn        1 1JX      0.399800
     18 H6         -2.4980    1.1960   -0.9450 h1        1 1JX      0.099700
     19 H7         -1.4360    1.2170    1.9880 hc        1 1JX      0.055700
     20 H8         -2.2610    2.5800    1.1190 hc        1 1JX      0.055700
     21 H9         -3.1630    1.0410    1.4570 hc        1 1JX      0.055700
@<TRIPOS>BOND
     1    1    2 2   
     2    2    3 1   
     3    2   11 1   
     4    3    4 1   
     5    3   13 1   
     6    4    5 ar  
     7    4    9 ar  
     8    5    6 ar  
     9    6    7 ar  
    10    6   14 1   
    11    7    8 ar  
    12    7   15 1   
    13    8    9 ar  
    14    8   16 1   
    15    9   10 1   
    16   10   11 1   
    17   10   17 1   
    18   11   12 1   
    19   11   18 1   
    20   12   19 1   
    21   12   20 1   
    22   12   21 1   
@<TRIPOS>SUBSTRUCTURE
     1 1JX         1 TEMP              0 ****  ****    0 ROOT
