@<TRIPOS>MOLECULE
1JX
   21    22     1     0     0
SMALL
bcc


@<TRIPOS>ATOM
      1 O          -0.0430    0.0620   -0.0410 o         1 1JX     -0.612500
      2 C           1.1990    0.0300   -0.0260 c         1 1JX      0.670500
      3 NAG         1.8750    0.0310    1.1870 n         1 1JX     -0.545400
      4 CAK         3.2790   -0.0360    1.2380 ca        1 1JX      0.502200
      5 NAF         3.9080    0.2220    2.4230 nb        1 1JX     -0.693000
      6 CAD         5.2450    0.1150    2.4510 ca        1 1JX      0.416200
      7 CAC         6.0320   -0.2320    1.3420 ca        1 1JX     -0.265300
      8 CAE         5.4030   -0.4820    0.1260 ca        1 1JX     -0.070000
      9 CAJ         4.0030   -0.3880    0.0380 ca        1 1JX     -0.054700
     10 N           3.3450   -0.6020   -1.1980 nh        1 1JX     -0.696600
     11 CA          2.0280   -0.0020   -1.3230 c3        1 1JX      0.125500
     12 CB          2.0870    1.4370   -1.8450 c3        1 1JX     -0.092100
     13 H1          1.3630    0.1790    2.0310 hn        1 1JX      0.344500
     14 H2          5.7070    0.3240    3.4340 h4        1 1JX      0.027100
     15 H3          7.1240   -0.3000    1.4350 ha        1 1JX      0.149000
     16 H4          5.9950   -0.7500   -0.7630 ha        1 1JX      0.151000
     17 H5          3.3340   -1.5780   -1.4300 hn        1 1JX      0.390800
     18 H6          1.4330   -0.6160   -2.0660 h1        1 1JX      0.088700
     19 H7          1.0440    1.8270   -1.9360 hc        1 1JX      0.054700
     20 H8          2.6640    2.0940   -1.1530 hc        1 1JX      0.054700
     21 H9          2.5750    1.4600   -2.8480 hc        1 1JX      0.054700
@<TRIPOS>BOND
     1    1    2 2   
     2    2    3 1   
     3    2   11 1   
     4    3    4 1   
     5    3   13 1   
     6    4    5 ar  
     7    4    9 ar  
     8    5    6 ar  
     9    6    7 ar  
    10    6   14 1   
    11    7    8 ar  
    12    7   15 1   
    13    8    9 ar  
    14    8   16 1   
    15    9   10 1   
    16   10   11 1   
    17   10   17 1   
    18   11   12 1   
    19   11   18 1   
    20   12   19 1   
    21   12   20 1   
    22   12   21 1   
@<TRIPOS>SUBSTRUCTURE
     1 1JX         1 TEMP              0 ****  ****    0 ROOT
