@<TRIPOS>MOLECULE
1JX
   21    18     1     0     0
SMALL
bcc


@<TRIPOS>ATOM
      1 O          -2.9990    0.9120   -0.2370 o         1 1JX     -0.337000
      2 C          -1.7840    0.9120   -0.2370 c1        1 1JX      0.278000
      3 NAG        -1.1060    0.9120    0.9380 n2        1 1JX     -0.312000
      4 CAK        -0.0950    0.0110    1.1210 c1        1 1JX      0.094000
      5 NAF         0.4840   -0.1610    2.3710 n1        1 1JX     -0.167000
      6 CAD         1.4310   -1.1230    2.5590 c1        1 1JX     -0.049000
      7 CAC         1.8170   -1.9330    1.5010 c1        1 1JX     -0.135000
      8 CAE         1.2480   -1.7660    0.2690 c1        1 1JX     -0.135000
      9 CAJ         0.2840   -0.7850    0.0780 c1        1 1JX     -0.071000
     10 N          -0.2980   -0.5400   -1.2830 n3        1 1JX     -0.252000
     11 CA         -1.0190    0.7190   -1.5480 c3        1 1JX     -0.022000
     12 CB         -0.1360    1.8710   -1.9220 c3        1 1JX     -0.210000
     13 H1         -1.4150    1.4000    1.6430 hn        1 1JX      0.258000
     14 H2          1.8370   -1.2430    3.4390 ha        1 1JX      0.164000
     15 H3          2.4950   -2.6220    1.6360 ha        1 1JX      0.150000
     16 H4          1.5200   -2.3350   -0.4760 ha        1 1JX      0.150000
     17 H5         -0.8220   -1.2470   -1.5220 hn        1 1JX      0.187000
     18 H6         -1.6120    0.6560   -2.3210 h1        1 1JX      0.128000
     19 H7          0.0920    1.8120   -2.8690 hc        1 1JX      0.094000
     20 H8          0.6810    1.8410   -1.3890 hc        1 1JX      0.094000
     21 H9         -0.6050    2.7100   -1.7520 hc        1 1JX      0.094000
@<TRIPOS>BOND
     1    1    2 1   
     2    2   11 1   
     3    3    4 1   
     4    3   13 1   
     5    4    9 1   
     6    5    6 1   
     7    6   14 1   
     8    7    8 1   
     9    7   15 1   
    10    8   16 1   
    11    9   10 1   
    12   10   11 1   
    13   10   17 1   
    14   11   12 1   
    15   11   18 1   
    16   12   19 1   
    17   12   20 1   
    18   12   21 1   
@<TRIPOS>SUBSTRUCTURE
     1 1JX         1 TEMP              0 ****  ****    0 ROOT
