@<TRIPOS>MOLECULE
1JY
   79    82     1     0     0
SMALL
bcc


@<TRIPOS>ATOM
      1 OAF         1.4810    2.3550    0.1070 o         1 1JY     -0.532100
      2 CBI         2.3490    1.4700    0.0520 c         1 1JY      0.706100
      3 NBA         3.2400    1.2860    1.1440 nc        1 1JY     -0.698100
      4 CBL         4.1740    0.3640    1.0720 cd        1 1JY      0.626200
      5 CAT         5.1220    0.1930    2.2690 c3        1 1JY      0.100100
      6 OAH         5.9600    1.3130    2.4070 oh        1 1JY     -0.586800
      7 NBB         4.3760   -0.4880   -0.0140 na        1 1JY     -0.719600
      8 CBM         3.5440   -0.3840   -1.1320 ca        1 1JY      0.179600
      9 CBR         2.5040    0.5820   -1.1260 ca        1 1JY     -0.223600
     10 CAO         1.6360    0.6950   -2.2260 ca        1 1JY     -0.012000
     11 CAN         3.7250   -1.2280   -2.2580 ca        1 1JY     -0.187000
     12 CBK         2.8640   -1.0890   -3.3280 ca        1 1JY     -0.017300
     13 CBN         1.8190   -0.1350   -3.3140 ca        1 1JY     -0.135300
     14 CAV         2.8710   -1.8630   -4.6020 c3        1 1JY     -0.043100
     15 CAM         1.7330   -1.2820   -5.4450 c3        1 1JY     -0.114400
     16 CBO         0.9840   -0.2280   -4.5740 c3        1 1JY      0.255800
     17 NBU         0.7120    1.0690   -5.1730 nh        1 1JY     -0.643000
     18 CAU         1.8610    1.8820   -5.5300 c3        1 1JY      0.272900
     19 CAL         2.4950    1.6190   -6.8040 c1        1 1JY     -0.179100
     20 CAA         3.0330    1.4340   -7.8570 c1        1 1JY     -0.135500
     21 CBQ        -0.4160    1.1650   -6.0280 ca        1 1JY      0.178600
     22 CAS        -0.9580    2.4430   -6.3170 ca        1 1JY     -0.183500
     23 CAQ        -2.0950    2.5660   -7.1010 ca        1 1JY     -0.045000
     24 CAR        -1.0700    0.0330   -6.5610 ca        1 1JY     -0.183500
     25 CAP        -2.2150    0.1600   -7.3390 ca        1 1JY     -0.045000
     26 CBP        -2.7360    1.4280   -7.6140 ca        1 1JY     -0.202600
     27 CBJ        -3.9240    1.6260   -8.4660 c         1 1JY      0.593700
     28 OAG        -4.1090    2.6080   -9.1850 o         1 1JY     -0.497100
     29 NBD        -4.9350    0.5420   -8.4290 ny        1 1JY     -0.662800
     30 CBT        -6.2840    0.8970   -8.9710 c3        1 1JY     -0.043500
     31 CBG        -7.3210    1.1280   -7.7800 c         1 1JY      0.931600
     32 OAD        -8.4640    1.4780   -8.1360 o         1 1JY     -0.782800
     33 OAK        -6.8780    0.9540   -6.6150 o         1 1JY     -0.782800
     34 CAZ        -6.8320   -0.1790   -9.9010 c3        1 1JY     -0.079400
     35 CAX        -6.2420   -0.0620  -11.2960 c3        1 1JY     -0.164400
     36 CBH        -6.2550   -1.3950  -12.0030 c         1 1JY      0.555100
     37 OAE        -7.2010   -2.1760  -12.0290 o         1 1JY     -0.465100
     38 N          -5.0090   -1.7430  -12.7350 ny        1 1JY     -0.673800
     39 CA         -4.6720   -3.2020  -12.8280 c3        1 1JY     -0.031500
     40 C          -4.4430   -3.5940  -14.3520 c         1 1JY      0.925600
     41 O          -4.6080   -2.6680  -15.1950 o         1 1JY     -0.788300
     42 OXT        -4.1350   -4.7830  -14.5720 o         1 1JY     -0.788300
     43 CB         -3.4240   -3.5550  -12.0260 c3        1 1JY     -0.078400
     44 CG         -3.6260   -3.5930  -10.5310 c3        1 1JY     -0.177400
     45 CD         -3.7110   -2.2520   -9.8420 c         1 1JY      0.892600
     46 OE1        -3.9860   -2.1920   -8.6030 o         1 1JY     -0.876800
     47 OE2        -3.5530   -1.1390  -10.4610 o         1 1JY     -0.876800
     48 H1          4.5030    0.0300    3.1930 h1        1 1JY      0.068200
     49 H2          5.8220   -0.6740    2.1270 h1        1 1JY      0.068200
     50 H3          5.4030    2.0820    2.5950 ho        1 1JY      0.429000
     51 H4          5.1400   -1.1210   -0.0300 hn        1 1JY      0.452800
     52 H5          0.8290    1.4470   -2.1970 ha        1 1JY      0.178000
     53 H6          4.5300   -1.9760   -2.2780 ha        1 1JY      0.139000
     54 H7          2.7050   -2.9520   -4.4000 hc        1 1JY      0.061700
     55 H8          3.8550   -1.7600   -5.1250 hc        1 1JY      0.061700
     56 H9          2.1400   -0.8160   -6.3770 hc        1 1JY      0.064700
     57 H10         1.0240   -2.0910   -5.7470 hc        1 1JY      0.064700
     58 H11        -0.0230   -0.6580   -4.2790 h1        1 1JY      0.086700
     59 H12         1.5270    2.9630   -5.5220 h1        1 1JY      0.076200
     60 H13         2.6320    1.7560   -4.7110 h1        1 1JY      0.076200
     61 H14         3.5020    1.2730   -8.7940 ha        1 1JY      0.165500
     62 H15        -0.4900    3.3540   -5.9150 ha        1 1JY      0.142500
     63 H16        -2.5060    3.5640   -7.3240 ha        1 1JY      0.178500
     64 H17        -0.6800   -0.9810   -6.3810 ha        1 1JY      0.142500
     65 H18        -2.6790   -0.7580   -7.7610 ha        1 1JY      0.178500
     66 H19        -4.5330   -0.2850   -8.9330 hn        1 1JY      0.501800
     67 H20        -6.2120    1.8760   -9.5220 hx        1 1JY      0.098700
     68 H22        -6.6410   -1.2030   -9.4810 hc        1 1JY      0.094700
     69 H23        -7.9480   -0.0380   -9.9420 hc        1 1JY      0.094700
     70 H24        -5.1970    0.3490  -11.2310 hc        1 1JY      0.090700
     71 H25        -6.8560    0.6490  -11.9140 hc        1 1JY      0.090700
     72 H26        -5.0960   -1.4130  -13.7230 hn        1 1JY      0.484300
     73 H27        -5.5540   -3.7980  -12.4640 hx        1 1JY      0.098700
     74 H29        -3.1200   -4.5790  -12.3840 hc        1 1JY      0.074200
     75 H30        -2.5870   -2.8500  -12.2740 hc        1 1JY      0.074200
     76 H31        -4.5580   -4.1660  -10.2800 hc        1 1JY      0.058700
     77 H32        -2.7660   -4.1450  -10.0650 hc        1 1JY      0.058700
     78 HBD2       -5.0850    0.2720   -7.4330 hn        1 1JY      0.501800
     79 H21        -4.2100   -1.2580  -12.2770 hn        1 1JY      0.484300
@<TRIPOS>BOND
     1    1    2 2   
     2    2    3 1   
     3    2    9 1   
     4    3    4 2   
     5    4    5 1   
     6    4    7 1   
     7    5    6 1   
     8    5   48 1   
     9    5   49 1   
    10    6   50 1   
    11    7    8 1   
    12    7   51 1   
    13    8    9 ar  
    14    8   11 ar  
    15    9   10 ar  
    16   10   13 ar  
    17   10   52 1   
    18   11   12 ar  
    19   11   53 1   
    20   12   13 ar  
    21   12   14 1   
    22   13   16 1   
    23   14   15 1   
    24   14   54 1   
    25   14   55 1   
    26   15   16 1   
    27   15   56 1   
    28   15   57 1   
    29   16   17 1   
    30   16   58 1   
    31   17   18 1   
    32   17   21 1   
    33   18   19 1   
    34   18   59 1   
    35   18   60 1   
    36   19   20 3   
    37   20   61 1   
    38   21   22 ar  
    39   21   24 ar  
    40   22   23 ar  
    41   22   62 1   
    42   23   26 ar  
    43   23   63 1   
    44   24   25 ar  
    45   24   64 1   
    46   25   26 ar  
    47   25   65 1   
    48   26   27 1   
    49   27   28 2   
    50   27   29 1   
    51   29   30 1   
    52   29   66 1   
    53   29   78 1   
    54   30   31 1   
    55   30   34 1   
    56   30   67 1   
    57   31   32 1   
    58   31   33 1   
    59   34   35 1   
    60   34   68 1   
    61   34   69 1   
    62   35   36 1   
    63   35   70 1   
    64   35   71 1   
    65   36   37 2   
    66   36   38 1   
    67   38   39 1   
    68   38   72 1   
    69   38   79 1   
    70   39   40 1   
    71   39   43 1   
    72   39   73 1   
    73   40   41 1   
    74   40   42 1   
    75   43   44 1   
    76   43   74 1   
    77   43   75 1   
    78   44   45 1   
    79   44   76 1   
    80   44   77 1   
    81   45   46 1   
    82   45   47 1   
@<TRIPOS>SUBSTRUCTURE
     1 1JY         1 TEMP              0 ****  ****    0 ROOT
