@<TRIPOS>MOLECULE
1JY
   79    82     1     0     0
SMALL
bcc


@<TRIPOS>ATOM
      1 OAF         1.6150    1.6210   -0.0210 o         1 1JY     -0.542100
      2 CBI         2.4030    0.7290   -0.3780 c         1 1JY      0.706100
      3 NBA         3.3940    0.2580    0.5260 nc        1 1JY     -0.690100
      4 CBL         4.2390   -0.6660    0.1310 cd        1 1JY      0.618200
      5 CAT         5.3290   -1.1380    1.1040 c3        1 1JY      0.085100
      6 OAH         5.5880   -2.5180    0.9700 oh        1 1JY     -0.597800
      7 NBB         4.2600   -1.2470   -1.1370 na        1 1JY     -0.717600
      8 CBM         3.3010   -0.8720   -2.0800 ca        1 1JY      0.182600
      9 CBR         2.3520    0.1230   -1.7300 ca        1 1JY     -0.229600
     10 CAO         1.3730    0.5220   -2.6570 ca        1 1JY     -0.023000
     11 CAN         3.2730   -1.4630   -3.3700 ca        1 1JY     -0.188000
     12 CBK         2.3070   -1.0470   -4.2630 ca        1 1JY     -0.005300
     13 CBN         1.3550   -0.0570   -3.9090 ca        1 1JY     -0.139300
     14 CAV         2.0890   -1.5280   -5.6580 c3        1 1JY     -0.044100
     15 CAM         0.9850   -0.6370   -6.2310 c3        1 1JY     -0.119400
     16 CBO         0.3720    0.1540   -5.0380 c3        1 1JY      0.256800
     17 NBU         0.0220    1.5490   -5.2910 nh        1 1JY     -0.637000
     18 CAU         1.1120    2.4990   -5.3970 c3        1 1JY      0.263900
     19 CAL         1.9600    2.4590   -6.5690 c1        1 1JY     -0.177100
     20 CAA         2.6890    2.4590   -7.5170 c1        1 1JY     -0.136500
     21 CBQ        -1.1070    1.7520   -6.1140 ca        1 1JY      0.208600
     22 CAS        -1.1000    2.6470   -7.2110 ca        1 1JY     -0.180000
     23 CAQ        -2.2300    2.8170   -7.9970 ca        1 1JY     -0.040500
     24 CAR        -2.3310    1.1010   -5.8050 ca        1 1JY     -0.180000
     25 CAP        -3.4530    1.2730   -6.6000 ca        1 1JY     -0.040500
     26 CBP        -3.4100    2.1080   -7.7250 ca        1 1JY     -0.221600
     27 CBJ        -4.5280    2.2680   -8.6660 c         1 1JY      0.575700
     28 OAG        -4.6160    3.1700   -9.4990 o         1 1JY     -0.483100
     29 NBD        -5.5840    1.2250   -8.6120 n4        1 1JY     -0.668800
     30 CBT        -6.6930    1.3440   -9.6110 c3        1 1JY     -0.048500
     31 CBG        -8.0740    1.5830   -8.8480 c         1 1JY      0.930600
     32 OAD        -9.0680    1.7560   -9.5780 o         1 1JY     -0.777800
     33 OAK        -8.0110    1.5840   -7.5870 o         1 1JY     -0.777800
     34 CAZ        -6.8250    0.1030  -10.4820 c3        1 1JY     -0.080400
     35 CAX        -5.6200   -0.1640  -11.3610 c3        1 1JY     -0.168400
     36 CBH        -4.7570   -1.2950  -10.8040 c         1 1JY      0.650100
     37 OAE        -4.2990   -1.1840   -9.6240 o         1 1JY     -0.767100
     38 N          -4.5260   -2.3650  -11.5920 n         1 1JY     -0.483900
     39 CA         -3.7620   -3.5580  -11.2910 c3        1 1JY     -0.060300
     40 C          -3.4890   -4.3890  -12.6200 c         1 1JY      0.921600
     41 O          -4.0110   -3.9790  -13.6900 o         1 1JY     -0.809800
     42 OXT        -2.7820   -5.4170  -12.4790 o         1 1JY     -0.809800
     43 CB         -2.4340   -3.3310  -10.5650 c3        1 1JY     -0.070400
     44 CG         -2.5740   -3.5710   -9.0720 c3        1 1JY     -0.173400
     45 CD         -1.5580   -2.8070   -8.2850 c         1 1JY      0.642100
     46 OE1        -0.6860   -3.2440   -7.5270 o         1 1JY     -0.550000
     47 OE2        -1.5680   -1.4410   -8.3460 oh        1 1JY     -0.622100
     48 H1          5.0420   -0.8790    2.1580 h1        1 1JY      0.085200
     49 H2          6.2950   -0.6290    0.8340 h1        1 1JY      0.085200
     50 H3          4.8390   -2.9940    1.3510 ho        1 1JY      0.414000
     51 H4          4.9060   -1.9750   -1.3400 hn        1 1JY      0.463800
     52 H5          0.6410    1.2920   -2.3590 ha        1 1JY      0.170000
     53 H6          4.0030   -2.2350   -3.6520 ha        1 1JY      0.143000
     54 H7          3.0270   -1.4540   -6.2630 hc        1 1JY      0.071200
     55 H8          1.7650   -2.6020   -5.6580 hc        1 1JY      0.071200
     56 H9          1.4120    0.0580   -6.9960 hc        1 1JY      0.084700
     57 H10         0.1930   -1.2550   -6.7320 hc        1 1JY      0.084700
     58 H11        -0.5850   -0.3690   -4.7350 h1        1 1JY      0.080700
     59 H12         0.6620    3.5360   -5.3200 h1        1 1JY      0.079700
     60 H13         1.7670    2.3400   -4.4850 h1        1 1JY      0.079700
     61 H14         3.3330    2.4550   -8.3610 ha        1 1JY      0.166500
     62 H15        -0.1860    3.2010   -7.4770 ha        1 1JY      0.152000
     63 H16        -2.2000    3.5010   -8.8630 ha        1 1JY      0.148000
     64 H17        -2.4080    0.4420   -4.9260 ha        1 1JY      0.152000
     65 H18        -4.3750    0.7400   -6.3140 ha        1 1JY      0.148000
     66 H19        -6.0520    1.2850   -7.6740 hn        1 1JY      0.486300
     67 H20        -6.5120    2.2500  -10.2540 hx        1 1JY      0.106700
     68 H22        -7.0490   -0.7930   -9.8450 hc        1 1JY      0.086700
     69 H23        -7.7340    0.2850  -11.1220 hc        1 1JY      0.086700
     70 H24        -4.9660    0.7460  -11.4310 hc        1 1JY      0.066700
     71 H25        -5.9700   -0.3960  -12.4020 hc        1 1JY      0.066700
     72 H26        -2.2910   -1.1480   -8.9260 ho        1 1JY      0.457000
     73 H27        -4.4150   -4.2220  -10.6510 h1        1 1JY      0.050700
     74 H29        -1.6860   -4.0600  -10.9840 hc        1 1JY      0.064700
     75 H30        -2.0470   -2.2970  -10.7580 hc        1 1JY      0.064700
     76 H31        -3.5900   -3.2320   -8.7240 hc        1 1JY      0.084700
     77 H32        -2.4690   -4.6650   -8.8490 hc        1 1JY      0.084700
     78 HBD2       -5.1290    0.2970   -8.7010 hn        1 1JY      0.486300
     79 H21        -4.8520   -2.3500  -12.5450 hn        1 1JY      0.352500
@<TRIPOS>BOND
     1    1    2 2   
     2    2    3 1   
     3    2    9 1   
     4    3    4 2   
     5    4    5 1   
     6    4    7 1   
     7    5    6 1   
     8    5   48 1   
     9    5   49 1   
    10    6   50 1   
    11    7    8 1   
    12    7   51 1   
    13    8    9 ar  
    14    8   11 ar  
    15    9   10 ar  
    16   10   13 ar  
    17   10   52 1   
    18   11   12 ar  
    19   11   53 1   
    20   12   13 ar  
    21   12   14 1   
    22   13   16 1   
    23   14   15 1   
    24   14   54 1   
    25   14   55 1   
    26   15   16 1   
    27   15   56 1   
    28   15   57 1   
    29   16   17 1   
    30   16   58 1   
    31   17   18 1   
    32   17   21 1   
    33   18   19 1   
    34   18   59 1   
    35   18   60 1   
    36   19   20 3   
    37   20   61 1   
    38   21   22 ar  
    39   21   24 ar  
    40   22   23 ar  
    41   22   62 1   
    42   23   26 ar  
    43   23   63 1   
    44   24   25 ar  
    45   24   64 1   
    46   25   26 ar  
    47   25   65 1   
    48   26   27 1   
    49   27   28 2   
    50   27   29 1   
    51   29   30 1   
    52   29   66 1   
    53   29   78 1   
    54   30   31 1   
    55   30   34 1   
    56   30   67 1   
    57   31   32 1   
    58   31   33 1   
    59   34   35 1   
    60   34   68 1   
    61   34   69 1   
    62   35   36 1   
    63   35   70 1   
    64   35   71 1   
    65   36   37 2   
    66   36   38 1   
    67   38   39 1   
    68   38   79 1   
    69   39   40 1   
    70   39   43 1   
    71   39   73 1   
    72   40   41 1   
    73   40   42 1   
    74   43   44 1   
    75   43   74 1   
    76   43   75 1   
    77   44   45 1   
    78   44   76 1   
    79   44   77 1   
    80   45   46 2   
    81   45   47 1   
    82   47   72 1   
@<TRIPOS>SUBSTRUCTURE
     1 1JY         1 TEMP              0 ****  ****    0 ROOT
