@<TRIPOS>MOLECULE
1JY
   77    80     1     0     0
SMALL
bcc


@<TRIPOS>ATOM
      1 OAF         7.3800    0.7630    1.2990 o         1 1JY     -0.571100
      2 CBI         7.1910   -0.4670    1.3060 c         1 1JY      0.712100
      3 NBA         8.2370   -1.3130    1.7730 nc        1 1JY     -0.732100
      4 CBL         8.0770   -2.6190    1.7320 cd        1 1JY      0.617200
      5 CAT         9.1990   -3.5080    2.2830 c3        1 1JY      0.101100
      6 OAH        10.4480   -3.2270    1.6970 oh        1 1JY     -0.602800
      7 NBB         6.9550   -3.2700    1.2370 na        1 1JY     -0.712600
      8 CBM         5.8510   -2.5120    0.8150 ca        1 1JY      0.152600
      9 CBR         5.9360   -1.0980    0.8530 ca        1 1JY     -0.228600
     10 CAO         4.8250   -0.3190    0.4690 ca        1 1JY     -0.047000
     11 CAN         4.6750   -3.1510    0.3540 ca        1 1JY     -0.204000
     12 CBK         3.6080   -2.3670   -0.0400 ca        1 1JY      0.032700
     13 CBN         3.6800   -0.9440    0.0270 ca        1 1JY     -0.093300
     14 CAV         2.2820   -2.8100   -0.5480 c3        1 1JY     -0.086100
     15 CAM         1.6250   -1.5380   -1.0890 c3        1 1JY     -0.089400
     16 CBO         2.3310   -0.3650   -0.3480 c3        1 1JY      0.206800
     17 NBU         2.3370    0.9330   -1.0120 nh        1 1JY     -0.610000
     18 CAU         3.2530    1.0560   -2.1310 c3        1 1JY      0.254900
     19 CAL         2.8430    0.5480   -3.4240 c1        1 1JY     -0.140100
     20 CAA         2.5280    0.1320   -4.5010 c1        1 1JY     -0.180500
     21 CBQ         1.0530    1.5340   -1.1800 ca        1 1JY      0.132600
     22 CAS         0.8620    2.5940   -2.0970 ca        1 1JY     -0.184500
     23 CAQ        -0.3800    3.2060   -2.2390 ca        1 1JY     -0.080000
     24 CAR        -0.0560    1.1430   -0.3900 ca        1 1JY     -0.184500
     25 CAP        -1.2870    1.7730   -0.5340 ca        1 1JY     -0.080000
     26 CBP        -1.4670    2.7960   -1.4700 ca        1 1JY     -0.161600
     27 CBJ        -2.8360    3.3510   -1.7130 c         1 1JY      0.663700
     28 OAG        -3.2920    3.4020   -2.8820 o         1 1JY     -0.662100
     29 NBD        -3.5340    3.7920   -0.6220 n         1 1JY     -0.515900
     30 CBT        -4.9750    3.9190   -0.5880 c3        1 1JY     -0.030300
     31 CBG        -5.4340    5.2120    0.1710 c         1 1JY      0.916600
     32 OAD        -6.4760    5.7790   -0.2670 o         1 1JY     -0.849300
     33 OAK        -4.7720    5.6190    1.1650 o         1 1JY     -0.849300
     34 CAZ        -5.6520    2.7160    0.0970 c3        1 1JY     -0.084400
     35 CAX        -5.4990    1.4170   -0.6690 c3        1 1JY     -0.157400
     36 CBH        -5.2000    0.2190    0.2310 c         1 1JY      0.639100
     37 OAE        -5.4790    0.2460    1.4530 o         1 1JY     -0.659100
     38 N          -4.5670   -0.8510   -0.3610 n         1 1JY     -0.515900
     39 CA         -4.4470   -2.1610    0.2570 c3        1 1JY     -0.038300
     40 C          -5.2990   -3.2360   -0.4990 c         1 1JY      0.901600
     41 O          -5.5210   -3.0910   -1.7380 o         1 1JY     -0.859800
     42 OXT        -5.7360   -4.2120    0.1750 o         1 1JY     -0.859800
     43 CB         -2.9920   -2.6600    0.3010 c3        1 1JY     -0.052400
     44 CG         -2.1510   -1.9510    1.3350 c3        1 1JY     -0.168400
     45 CD         -0.6790   -2.3390    1.3070 c         1 1JY      0.899600
     46 OE1         0.1890   -1.4360    1.5580 o         1 1JY     -0.888800
     47 OE2        -0.3010   -3.5250    1.0560 o         1 1JY     -0.888800
     48 H1          9.2450   -3.3570    3.3970 h1        1 1JY      0.055700
     49 H2          9.0220   -4.5950    2.0580 h1        1 1JY      0.055700
     50 H3         10.6120   -2.2780    1.7780 ho        1 1JY      0.429000
     51 H4          6.8810   -4.2580    1.2620 hn        1 1JY      0.443800
     52 H5          4.8980    0.7780    0.5360 ha        1 1JY      0.163000
     53 H6          4.5990   -4.2470    0.3230 ha        1 1JY      0.133000
     54 H7          2.3680   -3.6090   -1.3200 hc        1 1JY      0.111700
     55 H8          1.6300   -3.1950    0.3070 hc        1 1JY      0.111700
     56 H9          1.7550   -1.4540   -2.1950 hc        1 1JY      0.072200
     57 H10         0.5330   -1.5380   -0.8350 hc        1 1JY      0.072200
     58 H11         1.7870   -0.2330    0.6500 h1        1 1JY      0.161700
     59 H12         3.4970    2.1550   -2.2460 h1        1 1JY      0.059700
     60 H13         4.2160    0.5320   -1.8460 h1        1 1JY      0.059700
     61 H14         2.2210   -0.2390   -5.4430 ha        1 1JY      0.152500
     62 H15         1.6830    2.9440   -2.7380 ha        1 1JY      0.162000
     63 H16        -0.5150    4.0050   -2.9830 ha        1 1JY      0.145500
     64 H17        -0.0030    0.3110    0.3470 ha        1 1JY      0.162000
     65 H18        -2.1350    1.4220    0.0800 ha        1 1JY      0.145500
     66 H19        -3.0880    3.8150    0.2660 hn        1 1JY      0.318500
     67 H20        -5.3460    3.9940   -1.6500 h1        1 1JY      0.068700
     68 H22        -5.2480    2.6000    1.1380 hc        1 1JY      0.059700
     69 H23        -6.7390    2.9710    0.1960 hc        1 1JY      0.059700
     70 H24        -6.4530    1.1830   -1.2120 hc        1 1JY      0.052700
     71 H25        -4.6980    1.5200   -1.4500 hc        1 1JY      0.052700
     72 H26        -4.5930   -0.8960   -1.3590 hn        1 1JY      0.306500
     73 H27        -4.8350   -2.0940    1.3140 h1        1 1JY      0.068700
     74 H29        -3.0220   -3.7570    0.5380 hc        1 1JY      0.044700
     75 H30        -2.5180   -2.5540   -0.7090 hc        1 1JY      0.044700
     76 H31        -2.2220   -0.8400    1.1940 hc        1 1JY      0.032700
     77 H32        -2.5430   -2.1820    2.3600 hc        1 1JY      0.032700
@<TRIPOS>BOND
     1    1    2 2   
     2    2    3 1   
     3    2    9 1   
     4    3    4 2   
     5    4    5 1   
     6    4    7 1   
     7    5    6 1   
     8    5   48 1   
     9    5   49 1   
    10    6   50 1   
    11    7    8 1   
    12    7   51 1   
    13    8    9 ar  
    14    8   11 ar  
    15    9   10 ar  
    16   10   13 ar  
    17   10   52 1   
    18   11   12 ar  
    19   11   53 1   
    20   12   13 ar  
    21   12   14 1   
    22   13   16 1   
    23   14   15 1   
    24   14   54 1   
    25   14   55 1   
    26   15   16 1   
    27   15   56 1   
    28   15   57 1   
    29   16   17 1   
    30   16   58 1   
    31   17   18 1   
    32   17   21 1   
    33   18   19 1   
    34   18   59 1   
    35   18   60 1   
    36   19   20 3   
    37   20   61 1   
    38   21   22 ar  
    39   21   24 ar  
    40   22   23 ar  
    41   22   62 1   
    42   23   26 ar  
    43   23   63 1   
    44   24   25 ar  
    45   24   64 1   
    46   25   26 ar  
    47   25   65 1   
    48   26   27 1   
    49   27   28 2   
    50   27   29 1   
    51   29   30 1   
    52   29   66 1   
    53   30   31 1   
    54   30   34 1   
    55   30   67 1   
    56   31   32 1   
    57   31   33 1   
    58   34   35 1   
    59   34   68 1   
    60   34   69 1   
    61   35   36 1   
    62   35   70 1   
    63   35   71 1   
    64   36   37 2   
    65   36   38 1   
    66   38   39 1   
    67   38   72 1   
    68   39   40 1   
    69   39   43 1   
    70   39   73 1   
    71   40   41 1   
    72   40   42 1   
    73   43   44 1   
    74   43   74 1   
    75   43   75 1   
    76   44   45 1   
    77   44   76 1   
    78   44   77 1   
    79   45   46 1   
    80   45   47 1   
@<TRIPOS>SUBSTRUCTURE
     1 1JY         1 TEMP              0 ****  ****    0 ROOT
