@<TRIPOS>MOLECULE
1JY
   80    83     1     0     0
SMALL
bcc


@<TRIPOS>ATOM
      1 OAF         0.5540    1.9550    0.1460 o         1 1JY     -0.519100
      2 CBI         1.4560    1.1040    0.1550 c         1 1JY      0.706100
      3 NBA         2.1430    0.7830    1.3550 nc        1 1JY     -0.663100
      4 CBL         3.1180   -0.0940    1.3280 cd        1 1JY      0.627200
      5 CAT         3.8180   -0.4810    2.6410 c3        1 1JY      0.086100
      6 OAH         5.1940   -0.6980    2.4410 oh        1 1JY     -0.592800
      7 NBB         3.5720   -0.7570    0.1770 na        1 1JY     -0.714600
      8 CBM         2.9510   -0.5200   -1.0400 ca        1 1JY      0.221600
      9 CBR         1.8660    0.3970   -1.0880 ca        1 1JY     -0.233600
     10 CAO         1.1880    0.6350   -2.2910 ca        1 1JY     -0.010000
     11 CAN         3.3730   -1.1800   -2.2300 ca        1 1JY     -0.179000
     12 CBK         2.7040   -0.9090   -3.4040 ca        1 1JY      0.001700
     13 CBN         1.6160   -0.0020   -3.4390 ca        1 1JY     -0.227300
     14 CAV         2.9560   -1.4950   -4.7510 c3        1 1JY     -0.051100
     15 CAM         1.9060   -0.8740   -5.6790 c3        1 1JY     -0.095400
     16 CBO         1.0250    0.0690   -4.8200 c3        1 1JY      0.197800
     17 NBU         0.9190    1.5080   -5.2910 n4        1 1JY     -0.556800
     18 CAU         2.2300    2.1220   -5.7130 c3        1 1JY      0.225900
     19 CAL         2.5750    1.9750   -7.0960 c1        1 1JY     -0.233100
     20 CAA         2.9190    1.9140   -8.2410 c1        1 1JY     -0.012500
     21 CBQ        -0.1510    1.6850   -6.2860 ca        1 1JY     -0.031400
     22 CAS        -1.1080    2.6960   -6.0710 ca        1 1JY     -0.127500
     23 CAQ        -2.1620    2.8430   -6.9690 ca        1 1JY     -0.046500
     24 CAR        -0.2390    0.8480   -7.4080 ca        1 1JY     -0.127500
     25 CAP        -1.2980    1.0050   -8.3020 ca        1 1JY     -0.046500
     26 CBP        -2.2630    1.9880   -8.0750 ca        1 1JY     -0.085600
     27 CBJ        -3.4180    2.1530   -8.9970 c         1 1JY      0.620700
     28 OAG        -3.7060    3.1930   -9.5860 o         1 1JY     -0.494100
     29 NBD        -4.1550    0.9000   -9.3510 n4        1 1JY     -0.660800
     30 CBT        -5.6100    1.0210   -9.0160 c3        1 1JY     -0.017500
     31 CBG        -5.7840    1.7010   -7.6040 c         1 1JY      0.927600
     32 OAD        -6.8550    1.5320   -6.9970 o         1 1JY     -0.770800
     33 OAK        -4.7900    2.3980   -7.2250 o         1 1JY     -0.770800
     34 CAZ        -6.3340   -0.3160   -9.0690 c3        1 1JY     -0.086400
     35 CAX        -6.6170   -0.7650  -10.4920 c3        1 1JY     -0.163400
     36 CBH        -6.3030   -2.2300  -10.6880 c         1 1JY      0.552100
     37 OAE        -6.4640   -3.1060   -9.8440 o         1 1JY     -0.457100
     38 N          -5.7850   -2.5900  -12.0320 n4        1 1JY     -0.666800
     39 CA         -4.9790   -3.8500  -12.1290 c3        1 1JY     -0.042500
     40 C          -5.5850   -4.7670  -13.2880 c         1 1JY      0.929600
     41 O          -6.6240   -4.3200  -13.8490 o         1 1JY     -0.776300
     42 OXT        -4.9770   -5.8310  -13.5090 o         1 1JY     -0.776300
     43 CB         -3.5100   -3.5740  -12.4200 c3        1 1JY     -0.079400
     44 CG         -2.7140   -3.1060  -11.2270 c3        1 1JY     -0.173400
     45 CD         -2.9930   -1.6980  -10.7590 c         1 1JY      0.909600
     46 OE1        -3.6910   -0.8690  -11.4420 o         1 1JY     -0.893300
     47 OE2        -2.5380   -1.3160   -9.6340 o         1 1JY     -0.893300
     48 H1          3.4030   -1.4700    2.9810 h1        1 1JY      0.096200
     49 H2          3.6270    0.3030    3.4220 h1        1 1JY      0.096200
     50 H3          5.6350    0.1610    2.4550 ho        1 1JY      0.418000
     51 H4          4.3450   -1.3820    0.2420 hn        1 1JY      0.475800
     52 H5          0.3220    1.3200   -2.2740 ha        1 1JY      0.166000
     53 H6          4.2080   -1.8960   -2.2080 ha        1 1JY      0.159000
     54 H7          2.8480   -2.6110   -4.7240 hc        1 1JY      0.082200
     55 H8          3.9940   -1.2630   -5.1020 hc        1 1JY      0.082200
     56 H9          1.2520   -1.6700   -6.1180 hc        1 1JY      0.084200
     57 H10         2.4070   -0.3430   -6.5260 hc        1 1JY      0.084200
     58 H11        -0.0410   -0.3170   -4.8140 hx        1 1JY      0.127700
     59 H12         3.0320    1.6560   -5.0620 hx        1 1JY      0.108200
     60 H13         2.1580    3.2290   -5.4760 hx        1 1JY      0.108200
     61 H14         3.2210    1.8590   -9.2610 ha        1 1JY      0.191500
     62 H15        -1.0580    3.3650   -5.1980 ha        1 1JY      0.151500
     63 H16        -2.9520    3.6020   -6.7950 ha        1 1JY      0.218000
     64 H17         0.5010    0.0550   -7.5960 ha        1 1JY      0.151500
     65 H18        -1.3720    0.3160   -9.1710 ha        1 1JY      0.218000
     66 H19        -3.7440    0.0920   -8.8460 hn        1 1JY      0.486800
     67 H20        -6.0590    1.7410   -9.7610 hx        1 1JY      0.094700
     68 H22        -5.7610   -1.1030   -8.5090 hc        1 1JY      0.100700
     69 H23        -7.3030   -0.1710   -8.5100 hc        1 1JY      0.100700
     70 H24        -6.0320   -0.1390  -11.2200 hc        1 1JY      0.090200
     71 H25        -7.7090   -0.6300  -10.7260 hc        1 1JY      0.090200
     72 H26        -6.5980   -2.7320  -12.6830 hn        1 1JY      0.483800
     73 H27        -5.0900   -4.4260  -11.1690 hx        1 1JY      0.102700
     74 H29        -3.4050   -2.8340  -13.2570 hc        1 1JY      0.078700
     75 H30        -3.0860   -4.5540  -12.7840 hc        1 1JY      0.078700
     76 H31        -1.6210   -3.1540  -11.4810 hc        1 1JY      0.059700
     77 H32        -2.8820   -3.7970  -10.3580 hc        1 1JY      0.059700
     78 HBU1        0.6290    2.0390   -4.4510 hn        1 1JY      0.449800
     79 HBD2       -4.0310    0.6880  -10.3670 hn        1 1JY      0.486800
     80 H21        -5.2010   -1.8060  -12.3750 hn        1 1JY      0.483800
@<TRIPOS>BOND
     1    1    2 2   
     2    2    3 1   
     3    2    9 1   
     4    3    4 2   
     5    4    5 1   
     6    4    7 1   
     7    5    6 1   
     8    5   48 1   
     9    5   49 1   
    10    6   50 1   
    11    7    8 1   
    12    7   51 1   
    13    8    9 ar  
    14    8   11 ar  
    15    9   10 ar  
    16   10   13 ar  
    17   10   52 1   
    18   11   12 ar  
    19   11   53 1   
    20   12   13 ar  
    21   12   14 1   
    22   13   16 1   
    23   14   15 1   
    24   14   54 1   
    25   14   55 1   
    26   15   16 1   
    27   15   56 1   
    28   15   57 1   
    29   16   17 1   
    30   16   58 1   
    31   17   18 1   
    32   17   21 1   
    33   17   78 1   
    34   18   19 1   
    35   18   59 1   
    36   18   60 1   
    37   19   20 3   
    38   20   61 1   
    39   21   22 ar  
    40   21   24 ar  
    41   22   23 ar  
    42   22   62 1   
    43   23   26 ar  
    44   23   63 1   
    45   24   25 ar  
    46   24   64 1   
    47   25   26 ar  
    48   25   65 1   
    49   26   27 1   
    50   27   28 2   
    51   27   29 1   
    52   29   30 1   
    53   29   66 1   
    54   29   79 1   
    55   30   31 1   
    56   30   34 1   
    57   30   67 1   
    58   31   32 1   
    59   31   33 1   
    60   34   35 1   
    61   34   68 1   
    62   34   69 1   
    63   35   36 1   
    64   35   70 1   
    65   35   71 1   
    66   36   37 2   
    67   36   38 1   
    68   38   39 1   
    69   38   72 1   
    70   38   80 1   
    71   39   40 1   
    72   39   43 1   
    73   39   73 1   
    74   40   41 1   
    75   40   42 1   
    76   43   44 1   
    77   43   74 1   
    78   43   75 1   
    79   44   45 1   
    80   44   76 1   
    81   44   77 1   
    82   45   46 1   
    83   45   47 1   
@<TRIPOS>SUBSTRUCTURE
     1 1JY         1 TEMP              0 ****  ****    0 ROOT
