@<TRIPOS>MOLECULE
1JY
   77    65     1     0     0
SMALL
bcc


@<TRIPOS>ATOM
      1 OAF         3.9940    5.5290    2.2320 o         1 1JY     -0.323000
      2 CBI         5.0160    4.9450    2.5230 c1        1 1JY      0.312000
      3 NBA         6.1040    5.6590    3.0910 n2        1 1JY     -0.300000
      4 CBL         7.3490    4.9710    3.3820 c1        1 1JY      0.106000
      5 CAT         8.4950    5.7260    4.0220 c3        1 1JY      0.026000
      6 OAH         7.9930    6.8470    4.6960 oh        1 1JY     -0.325000
      7 NBB         7.5280    3.5860    2.9720 n2        1 1JY     -0.277000
      8 CBM         6.3840    2.8240    2.4350 c1        1 1JY      0.074000
      9 CBR         5.1570    3.4650    2.2190 c1        1 1JY     -0.165000
     10 CAO         4.0610    2.7430    1.6130 c1        1 1JY     -0.065500
     11 CAN         6.5540    1.4550    2.0560 c1        1 1JY     -0.195000
     12 CBK         5.4760    0.7430    1.4590 c1        1 1JY     -0.039500
     13 CBN         4.2270    1.3920    1.2380 c1        1 1JY     -0.039500
     14 CAV         5.3660   -0.7030    0.9120 c2        1 1JY     -0.131000
     15 CAM         4.0410   -0.8520    0.2840 c3        1 1JY     -0.205000
     16 CBO         3.3070    0.4140    0.4670 c2        1 1JY      0.036000
     17 NBU         2.9680    0.9690   -0.8020 n3        1 1JY     -0.227000
     18 CAU         3.9900    1.4670   -1.6560 c3        1 1JY      0.071000
     19 CAL         4.1570    0.5400   -2.8360 c1        1 1JY     -0.349000
     20 CAA         4.2900   -0.1970   -3.7760 c1        1 1JY     -0.095000
     21 CBQ         1.5900    0.9880   -1.2340 c1        1 1JY     -0.006000
     22 CAS         1.0640    2.1260   -1.8270 c1        1 1JY     -0.129500
     23 CAQ        -0.2250    2.0860   -2.4100 c1        1 1JY     -0.129500
     24 CAR         0.8420   -0.1980   -1.2130 c1        1 1JY     -0.130000
     25 CAP        -0.4310   -0.2370   -1.7880 c1        1 1JY     -0.065500
     26 CBP        -0.9630    0.9020   -2.3850 c1        1 1JY     -0.165000
     27 CBJ        -2.4330    0.8810   -2.9190 c1        1 1JY      0.331000
     28 OAG        -2.9620    1.9230   -3.3160 o         1 1JY     -0.394000
     29 NBD        -3.1960   -0.3560   -2.8900 n2        1 1JY     -0.317000
     30 CBT        -4.5810   -0.3210   -2.6530 c3        1 1JY     -0.070000
     31 CBG        -4.8410   -0.3800   -1.1540 c2        1 1JY      0.342000
     32 OAD        -4.1480   -1.1510   -0.4200 o         1 1JY     -0.578000
     33 OAK        -5.7060    0.3790   -0.6320 o         1 1JY     -0.578000
     34 CAZ        -5.2530   -1.5230   -3.3380 c3        1 1JY     -0.143500
     35 CAX        -6.7240   -1.6190   -2.8730 c3        1 1JY     -0.179000
     36 CBH        -6.9490   -2.9490   -2.1700 c1        1 1JY      0.284000
     37 OAE        -6.8130   -3.9620   -2.7660 o         1 1JY     -0.424000
     38 N          -7.1600   -2.9780   -0.7430 n2        1 1JY     -0.338000
     39 CA         -6.8170   -4.1570    0.0160 c3        1 1JY     -0.043000
     40 C          -5.3520   -4.5360   -0.2510 c1        1 1JY      0.326000
     41 O          -4.3930   -3.6910    0.0430 o         1 1JY     -0.631000
     42 OXT        -5.0640   -5.7070   -0.6750 os        1 1JY     -0.584000
     43 CB         -7.0030   -3.8820    1.4580 c3        1 1JY     -0.143500
     44 CG         -6.7230   -5.1810    2.2730 c3        1 1JY     -0.208000
     45 CD         -6.4550   -4.8240    3.7080 c2        1 1JY      0.323000
     46 OE1        -7.4210   -4.5230    4.4790 o         1 1JY     -0.617500
     47 OE2        -5.2880   -4.7640    4.1230 o         1 1JY     -0.617500
     48 H1          8.9690    5.1260    4.6750 h1        1 1JY      0.097500
     49 H2          9.1560    6.0310    3.2930 h1        1 1JY      0.097500
     50 H3          8.6600    7.4390    4.8350 ho        1 1JY      0.228000
     51 H4          8.3800    3.1950    3.0010 hn        1 1JY      0.242000
     52 H5          3.1850    3.1600    1.5430 ha        1 1JY      0.167000
     53 H6          7.3680    0.9890    2.2900 ha        1 1JY      0.136000
     54 H7          6.0830   -0.8630    0.2340 ha        1 1JY      0.109000
     55 H8          5.4580   -1.3500    1.6580 ha        1 1JY      0.109000
     56 H9          4.1480   -1.0430   -0.6840 hc        1 1JY      0.145000
     57 H10         3.5410   -1.5990    0.7230 hc        1 1JY      0.145000
     58 H11         2.4910    0.2500    0.9850 h4        1 1JY      0.100000
     59 H12         3.7320    2.4110   -1.9910 h1        1 1JY      0.082500
     60 H13         4.8390    1.5160   -1.1550 h1        1 1JY      0.082500
     61 H14         4.3960   -0.7830   -4.5260 DU        1 1JY      0.300000
     62 H15         1.6400    2.9640   -1.9210 ha        1 1JY      0.119500
     63 H16        -0.5740    2.8660   -2.8720 ha        1 1JY      0.119500
     64 H17         1.2040   -1.0100   -0.7460 ha        1 1JY      0.222000
     65 H18        -0.9620   -1.0640   -1.7470 ha        1 1JY      0.167000
     66 H19        -2.7920   -1.1440   -3.1070 hn        1 1JY      0.219000
     67 H20        -4.9720    0.5520   -3.0350 h1        1 1JY      0.103000
     68 H22        -5.2240   -1.4010   -4.3450 hc        1 1JY      0.080750
     69 H23        -4.7810   -2.3380   -3.0970 hc        1 1JY      0.080750
     70 H24        -6.9120   -0.9060   -2.2700 hc        1 1JY      0.103500
     71 H25        -7.3090   -1.5550   -3.6400 hc        1 1JY      0.103500
     72 H26        -7.5460   -2.2280   -0.3060 hn        1 1JY      0.219000
     73 H27        -7.4290   -4.9350   -0.2660 h1        1 1JY      0.114000
     74 H29        -6.3730   -3.1680    1.7430 hc        1 1JY      0.080750
     75 H30        -7.9710   -3.5720    1.6250 hc        1 1JY      0.080750
     76 H31        -7.5040   -5.7730    2.2230 hc        1 1JY      0.074500
     77 H32        -5.9520   -5.6330    1.9040 hc        1 1JY      0.074500
@<TRIPOS>BOND
     1    1    2 1   
     2    2    3 1   
     3    3    4 1   
     4    4    5 1   
     5    5    6 1   
     6    5   48 1   
     7    5   49 1   
     8    6   50 1   
     9    7    8 1   
    10    7   51 1   
    11    8   11 1   
    12    9   10 1   
    13   10   52 1   
    14   11   53 1   
    15   12   13 1   
    16   14   15 1   
    17   14   54 1   
    18   14   55 1   
    19   15   16 1   
    20   15   56 1   
    21   15   57 1   
    22   16   17 1   
    23   16   58 1   
    24   17   18 1   
    25   17   21 1   
    26   18   19 1   
    27   18   59 1   
    28   18   60 1   
    29   19   20 1   
    30   21   24 1   
    31   22   23 1   
    32   22   62 1   
    33   23   63 1   
    34   24   64 1   
    35   25   26 1   
    36   25   65 1   
    37   27   28 1   
    38   29   30 1   
    39   29   66 1   
    40   30   31 1   
    41   30   34 1   
    42   30   67 1   
    43   31   32 1   
    44   31   33 1   
    45   34   35 1   
    46   34   68 1   
    47   34   69 1   
    48   35   36 1   
    49   35   70 1   
    50   35   71 1   
    51   36   37 1   
    52   38   39 1   
    53   38   72 1   
    54   39   40 1   
    55   39   43 1   
    56   39   73 1   
    57   40   41 1   
    58   43   44 1   
    59   43   74 1   
    60   43   75 1   
    61   44   45 1   
    62   44   76 1   
    63   44   77 1   
    64   45   46 1   
    65   45   47 1   
@<TRIPOS>SUBSTRUCTURE
     1 1JY         1 TEMP              0 ****  ****    0 ROOT
