@<TRIPOS>MOLECULE
1JZ
   23    18     1     0     0
SMALL
bcc


@<TRIPOS>ATOM
      1 C10        -1.6520   -0.5680   -2.5830 c1        1 1JZ      0.170000
      2 C12         1.8070    0.0900    0.7360 c1        1 1JZ     -0.081000
      3 C8         -0.9170   -0.3340    0.3960 c1        1 1JZ     -0.145000
      4 C7         -0.4630    0.1250    1.5810 c1        1 1JZ     -0.113000
      5 C5          1.4040    0.8210    3.0910 c3        1 1JZ      0.021000
      6 O2          1.6840    2.2360    3.0200 oh        1 1JZ     -0.327000
      7 C6          0.9130    0.3460    1.7710 c1        1 1JZ     -0.094000
      8 C9         -0.0220   -0.5920   -0.6470 c1        1 1JZ      0.043000
      9 C11         1.3440   -0.3750   -0.4650 c2        1 1JZ     -0.171000
     10 N3         -0.4920   -1.1880   -1.8520 n2        1 1JZ     -0.302000
     11 N4         -1.6380   -0.4900   -4.0570 n2        1 1JZ     -0.316000
     12 N5         -2.6720   -0.0920   -1.9080 n1        1 1JZ     -0.345000
     13 H12         2.8000    0.2480    0.8700 ha        1 1JZ      0.157000
     14 H8         -1.8830   -0.4870    0.2670 ha        1 1JZ      0.147000
     15 H7         -1.0610    0.2950    2.2740 ha        1 1JZ      0.133000
     16 H5          0.7160    0.6560    3.7740 h1        1 1JZ      0.072000
     17 H5A         2.1750    0.3670    3.3160 h1        1 1JZ      0.072000
     18 HO2         1.9540    2.5250    3.8140 ho        1 1JZ      0.203000
     19 H11         1.9730   -0.5580   -1.1990 ha        1 1JZ      0.132000
     20 HN3        -0.0330   -1.8420   -2.2290 hn        1 1JZ      0.217000
     21 HN4        -1.0180   -0.0460   -4.4590 hn        1 1JZ      0.183500
     22 HN4A       -2.2440   -0.9950   -4.5540 hn        1 1JZ      0.183500
     23 HN5        -2.6760   -0.1410   -0.9560 DU        1 1JZ      0.160000
@<TRIPOS>BOND
     1    1   10 1   
     2    1   12 1   
     3    2    9 1   
     4    2   13 1   
     5    3    8 1   
     6    3   14 1   
     7    4    7 1   
     8    4   15 1   
     9    5    6 1   
    10    5    7 1   
    11    5   16 1   
    12    5   17 1   
    13    6   18 1   
    14    8    9 1   
    15    9   19 1   
    16   10   20 1   
    17   11   21 1   
    18   11   22 1   
@<TRIPOS>SUBSTRUCTURE
     1 1JZ         1 TEMP              0 ****  ****    0 ROOT
