@<TRIPOS>MOLECULE
1JZ
   23    23     1     0     0
SMALL
bcc


@<TRIPOS>ATOM
      1 C10        -3.1200    0.0770    0.2330 c2        1 1JZ      0.761100
      2 C12         1.0400    0.9120   -0.2300 ca        1 1JZ     -0.086000
      3 C8          0.2060   -1.5360    0.8190 ca        1 1JZ     -0.175500
      4 C7          1.5540   -1.2900    0.6050 ca        1 1JZ     -0.086000
      5 O2          3.6500    1.3690   -0.8320 oh        1 1JZ     -0.600800
      6 C6          1.9860   -0.0690    0.0730 ca        1 1JZ     -0.117300
      7 C9         -0.7620   -0.5520    0.4970 ca        1 1JZ      0.133600
      8 C11        -0.3160    0.6830   -0.0160 ca        1 1JZ     -0.175500
      9 N3         -2.1240   -0.8800    0.6600 nh        1 1JZ     -0.694600
     10 N4         -3.2250    0.2520   -1.1800 nh        1 1JZ     -0.927800
     11 N5         -3.9240    0.5940    1.1270 n2        1 1JZ     -0.862100
     12 H12         1.3750    1.8800   -0.6390 ha        1 1JZ      0.143500
     13 H8         -0.1080   -2.5050    1.2360 ha        1 1JZ      0.135000
     14 H7          2.2930   -2.0670    0.8550 ha        1 1JZ      0.143500
     15 H5          3.8800   -0.7020   -0.7310 h1        1 1JZ      0.031200
     16 H5A         3.9690    0.1920    0.8620 h1        1 1JZ      0.031200
     17 HO2         4.6040    1.4660   -0.9310 ho        1 1JZ      0.404000
     18 H11        -1.0280    1.4930   -0.2340 ha        1 1JZ      0.135000
     19 HN3        -2.3290   -1.2970    1.5490 hn        1 1JZ      0.431800
     20 HN4        -2.4890   -0.1500   -1.7190 hn        1 1JZ      0.398300
     21 HN4A       -3.4420    1.1850   -1.4550 hn        1 1JZ      0.398300
     22 HN5        -4.6620    1.1630    0.7750 hn        1 1JZ      0.399400
     23 C5          3.4470    0.1480   -0.1350 c3        1 1JZ      0.181700
@<TRIPOS>BOND
     1    1    9 1   
     2    1   10 1   
     3    1   11 2   
     4    2    6 ar  
     5    2    8 ar  
     6    2   12 1   
     7    3    4 ar  
     8    3    7 ar  
     9    3   13 1   
    10    4    6 ar  
    11    4   14 1   
    12    5   17 1   
    13    5   23 1   
    14    6   23 1   
    15    7    8 ar  
    16    7    9 1   
    17    8   18 1   
    18    9   19 1   
    19   10   20 1   
    20   10   21 1   
    21   11   22 1   
    22   15   23 1   
    23   16   23 1   
@<TRIPOS>SUBSTRUCTURE
     1 1JZ         1 TEMP              0 ****  ****    0 ROOT
