@<TRIPOS>MOLECULE
1JZ
   24    23     1     0     0
SMALL
bcc


@<TRIPOS>ATOM
      1 C10         0.4990    0.4590   -0.2210 c1        1 1JZ      0.223000
      2 C12         2.8260   -1.0180   -3.7160 c3        1 1JZ     -0.024000
      3 C8          3.5250    1.4420   -2.0370 c3        1 1JZ     -0.115000
      4 C7          4.0820    0.8060   -3.1690 c1        1 1JZ      0.216000
      5 O2          4.5460   -1.7390   -5.7500 oh        1 1JZ     -0.288000
      6 C6          4.0610   -0.1270   -4.0530 c2        1 1JZ     -0.121000
      7 C9          2.2780    0.5230   -1.7630 c2        1 1JZ      0.106000
      8 C11         2.0410   -0.5600   -2.5510 c2        1 1JZ     -0.340000
      9 N3          1.5670    1.0110   -0.6890 n2        1 1JZ     -0.263000
     10 N4         -1.7490   -1.0730    2.4640 n9        1 1JZ     -0.421000
     11 N5         -0.5990    0.1890    0.1910 n2        1 1JZ     -0.238000
     12 H12         2.2030   -1.0180   -4.6550 hc        1 1JZ      0.161500
     13 H8          4.1970    1.4460   -1.1320 hc        1 1JZ      0.190000
     14 H7          3.1760    2.4980   -2.2280 hc        1 1JZ      0.190000
     15 H5          5.9680   -0.3700   -5.0190 h1        1 1JZ      0.142500
     16 H5A         4.5960    0.2520   -6.0870 h1        1 1JZ      0.142500
     17 HO2         5.1190   -2.3900   -5.3220 ho        1 1JZ      0.226000
     18 H11         3.2370   -2.0530   -3.5500 hc        1 1JZ      0.161500
     19 HN3         1.1660   -1.2050   -2.3450 ha        1 1JZ      0.187000
     20 HN4        -1.2510   -0.8320    3.2960 hn        1 1JZ      0.159333
     21 HN4A       -2.6830   -0.7230    2.5280 hn        1 1JZ      0.159333
     22 HN5        -1.0190   -0.2880    0.9880 hn        1 1JZ      0.352000
     23 H43        -1.7790   -2.0690    2.3770 hn        1 1JZ      0.159333
     24 C5          4.8740   -0.4670   -5.2590 c3        1 1JZ      0.033000
@<TRIPOS>BOND
     1    1    9 1   
     2    1   11 1   
     3    2    6 1   
     4    2    8 1   
     5    2   12 1   
     6    2   18 1   
     7    3    4 1   
     8    3    7 1   
     9    3   13 1   
    10    3   14 1   
    11    4    6 1   
    12    5   17 1   
    13    5   24 1   
    14    6   24 1   
    15    7    8 1   
    16    7    9 1   
    17    8   19 1   
    18   10   20 1   
    19   10   21 1   
    20   10   23 1   
    21   11   22 1   
    22   15   24 1   
    23   16   24 1   
@<TRIPOS>SUBSTRUCTURE
     1 1JZ         1 TEMP              0 ****  ****    0 ROOT
