@<TRIPOS>MOLECULE
1JZ
   25    25     1     0     0
SMALL
bcc


@<TRIPOS>ATOM
      1 C10         0.0710    0.3370    0.0980 c2        1 1JZ      0.116000
      2 C12         2.9790   -1.4910   -3.1270 c3        1 1JZ     -0.082000
      3 C8          2.7400    1.1690   -1.6620 c3        1 1JZ     -0.134000
      4 C7          3.3680    0.7400   -2.8590 c1        1 1JZ      0.214000
      5 O2          4.2980   -1.6440   -5.4060 oh        1 1JZ     -0.333000
      6 C6          3.6470   -0.2040   -3.6920 c2        1 1JZ     -0.036000
      7 C9          2.1010   -0.1580   -1.1570 c2        1 1JZ     -0.037000
      8 C11         2.2440   -1.3140   -1.8520 c2        1 1JZ     -0.098000
      9 N3          1.4400   -0.1060    0.0960 n3        1 1JZ     -0.230000
     10 N4         -0.7010   -0.3300    1.2520 n4        1 1JZ     -0.104000
     11 N5         -0.4510    1.1360   -0.7480 n2        1 1JZ     -0.172000
     12 H12         2.2930   -1.8610   -3.9480 hc        1 1JZ      0.207000
     13 H8          3.4700    1.5690   -0.8990 hc        1 1JZ      0.187500
     14 H7          1.9410    1.9490   -1.8360 hc        1 1JZ      0.187500
     15 H5          5.4860   -0.0300   -4.7810 h1        1 1JZ      0.141500
     16 H5A         3.9580    0.4000   -5.7270 h1        1 1JZ      0.141500
     17 HO2         4.8210   -1.7260   -6.2190 ho        1 1JZ      0.268000
     18 H11         3.8140   -2.2470   -3.0120 hc        1 1JZ      0.207000
     19 HN3         1.8040   -2.2620   -1.4760 ha        1 1JZ      0.205000
     20 HN4        -0.5540   -1.3480    1.2320 hn        1 1JZ      0.274000
     21 HN4A       -0.3630    0.0310    2.1530 hn        1 1JZ      0.274000
     22 HN5        -1.4230    1.3640   -0.7710 hn        1 1JZ      0.248000
     23 H32         1.9910    0.3480    0.8080 hn        1 1JZ      0.251000
     24 H43        -1.7060   -0.1390    1.1770 hn        1 1JZ      0.274000
     25 C5          4.4070   -0.3030   -4.9680 c3        1 1JZ      0.029000
@<TRIPOS>BOND
     1    1    9 1   
     2    1   10 1   
     3    1   11 1   
     4    2    6 1   
     5    2    8 1   
     6    2   12 1   
     7    2   18 1   
     8    3    4 1   
     9    3    7 1   
    10    3   13 1   
    11    3   14 1   
    12    4    6 1   
    13    5   17 1   
    14    5   25 1   
    15    6   25 1   
    16    7    8 1   
    17    7    9 1   
    18    8   19 1   
    19    9   23 1   
    20   10   20 1   
    21   10   21 1   
    22   10   24 1   
    23   11   22 1   
    24   15   25 1   
    25   16   25 1   
@<TRIPOS>SUBSTRUCTURE
     1 1JZ         1 TEMP              0 ****  ****    0 ROOT
