@<TRIPOS>MOLECULE
1JZ
   24    24     1     0     0
SMALL
bcc


@<TRIPOS>ATOM
      1 C10         0.0120   -0.1780   -0.0700 c2        1 1JZ      0.164000
      2 C12         2.5710   -1.0330   -3.5590 c3        1 1JZ     -0.037000
      3 C8          3.4740    0.5970   -1.1450 c3        1 1JZ     -0.106000
      4 C7          4.0110    0.3650   -2.4180 c1        1 1JZ      0.093000
      5 O2          4.1690   -0.9680   -5.8140 oh        1 1JZ     -0.294000
      6 C6          3.9400   -0.2780   -3.5290 c2        1 1JZ     -0.121000
      7 C9          2.1040   -0.2330   -1.1940 c2        1 1JZ      0.122000
      8 C11         1.8930   -1.0700   -2.2640 c2        1 1JZ     -0.304000
      9 N3          1.3820   -0.0030   -0.0800 n2        1 1JZ     -0.357000
     10 N4         -0.4920    0.1950    1.3750 n4        1 1JZ     -0.117000
     11 N5         -0.8150   -0.5710   -0.9750 n2        1 1JZ     -0.298000
     12 H12         1.9760   -0.4420   -4.3120 hc        1 1JZ      0.147500
     13 H8          4.0990    0.1850   -0.3050 hc        1 1JZ      0.165500
     14 H7          3.2390    1.6760   -0.9330 hc        1 1JZ      0.165500
     15 H5          5.6340   -1.2020   -4.4480 h1        1 1JZ      0.132000
     16 H5A         5.3310    0.5480   -4.9430 h1        1 1JZ      0.132000
     17 HO2         3.7110   -0.2460   -6.2640 ho        1 1JZ      0.217000
     18 H11         2.7610   -2.0620   -3.9700 hc        1 1JZ      0.147500
     19 HN3         1.1630   -1.8930   -2.1560 ha        1 1JZ      0.191000
     20 HN4        -0.2250    1.1580    1.5860 hn        1 1JZ      0.243667
     21 HN4A       -1.5030    0.1000    1.4450 hn        1 1JZ      0.243667
     22 HN5        -1.7910   -0.6380   -0.8060 hn        1 1JZ      0.192000
     23 H43        -0.0450   -0.4240    2.0530 hn        1 1JZ      0.243667
     24 C5          4.8440   -0.4350   -4.7020 c3        1 1JZ      0.033000
@<TRIPOS>BOND
     1    1    9 1   
     2    1   10 1   
     3    1   11 1   
     4    2    6 1   
     5    2    8 1   
     6    2   12 1   
     7    2   18 1   
     8    3    4 1   
     9    3    7 1   
    10    3   13 1   
    11    3   14 1   
    12    4    6 1   
    13    5   17 1   
    14    5   24 1   
    15    6   24 1   
    16    7    8 1   
    17    7    9 1   
    18    8   19 1   
    19   10   20 1   
    20   10   21 1   
    21   10   23 1   
    22   11   22 1   
    23   15   24 1   
    24   16   24 1   
@<TRIPOS>SUBSTRUCTURE
     1 1JZ         1 TEMP              0 ****  ****    0 ROOT
