@<TRIPOS>MOLECULE
1K0
   49    51     1     0     0
SMALL
bcc


@<TRIPOS>ATOM
      1 O1         -0.0270    1.0060    0.1070 os        1 1K0     -0.320900
      2 C1          1.3930    0.9990    0.0010 c3        1 1K0      0.112700
      3 C2         -0.5610    0.5730    1.3020 ca        1 1K0      0.196100
      4 C3          0.2140    0.1300    2.3850 ca        1 1K0     -0.314000
      5 C4         -0.4360   -0.2880    3.5490 ca        1 1K0      0.231100
      6 N1         -3.9500   -0.6380    4.8200 n         1 1K0     -0.501400
      7 C5          1.6470   -0.7690    4.6030 c3        1 1K0      0.108700
      8 O2          0.2240   -0.7390    4.6660 os        1 1K0     -0.287900
      9 C6         -1.8460   -0.2690    3.6420 ca        1 1K0     -0.254600
     10 O3        -10.2660    0.0300    3.9320 os        1 1K0     -0.357900
     11 N2         -4.0140    0.2230    2.5750 nc        1 1K0     -0.626100
     12 C7         -2.5410   -0.7080    4.8600 c         1 1K0      0.722100
     13 C8         -4.6170   -0.1750    3.6840 cd        1 1K0      0.556500
     14 O4        -12.5760   -0.7010    2.5120 oh        1 1K0     -0.598800
     15 O5         -2.0140   -1.1270    5.9030 o         1 1K0     -0.604500
     16 C9         -6.1050   -0.1440    3.7560 ca        1 1K0     -0.147900
     17 C18        -6.8580   -0.6490    2.6940 ca        1 1K0     -0.094500
     18 C16        -8.2560   -0.6350    2.7470 ca        1 1K0     -0.085300
     19 C17        -9.0350   -1.1740    1.6090 c3        1 1K0     -0.055300
     20 C13        -8.8820   -0.0970    3.8850 ca        1 1K0      0.107100
     21 C14       -10.9460   -1.1990    4.2400 c3        1 1K0      0.086400
     22 C15       -12.4100   -0.9540    3.8920 c3        1 1K0      0.129400
     23 C11        -8.1330    0.4280    4.9560 ca        1 1K0     -0.085300
     24 C12        -8.8030    1.0260    6.1330 c3        1 1K0     -0.055300
     25 C10        -6.7390    0.3990    4.8780 ca        1 1K0     -0.094500
     26 C19        -2.6140    0.1840    2.5300 ca        1 1K0      0.244400
     27 C20        -1.9600    0.6070    1.3560 ca        1 1K0     -0.193000
     28 H1          1.8490    1.6770    0.7620 h1        1 1K0      0.047367
     29 H2          1.7900   -0.0390    0.1070 h1        1 1K0      0.047367
     30 H3          1.5750    1.3870   -1.0340 h1        1 1K0      0.047367
     31 H4          1.3080    0.1130    2.3180 ha        1 1K0      0.148000
     32 H5         -4.4700   -0.9330    5.6160 hn        1 1K0      0.337500
     33 H6          1.9920   -1.4590    3.7950 h1        1 1K0      0.048367
     34 H7          1.9350   -1.1640    5.6110 h1        1 1K0      0.048367
     35 H8          2.0580    0.2570    4.4490 h1        1 1K0      0.048367
     36 H9        -12.0690    0.0970    2.3100 ho        1 1K0      0.414000
     37 H10        -6.3550   -1.0550    1.8010 ha        1 1K0      0.150000
     38 H11       -10.0990   -0.8260    1.6470 hc        1 1K0      0.052533
     39 H12        -9.0290   -2.2930    1.6340 hc        1 1K0      0.052533
     40 H13        -8.5890   -0.8430    0.6380 hc        1 1K0      0.052533
     41 H14       -10.8230   -1.4180    5.3310 h1        1 1K0      0.049700
     42 H15       -10.5230   -2.0370    3.6270 h1        1 1K0      0.049700
     43 H16       -12.8120   -0.0980    4.4960 h1        1 1K0      0.056200
     44 H17       -13.0070   -1.8820    4.0940 h1        1 1K0      0.056200
     45 H18        -9.7960    0.5440    6.3090 hc        1 1K0      0.052533
     46 H19        -8.1770    0.9120    7.0520 hc        1 1K0      0.052533
     47 H20        -8.9750    2.1180    5.9550 hc        1 1K0      0.052533
     48 H21        -6.1480    0.8260    5.7040 ha        1 1K0      0.150000
     49 H22        -2.5300    0.9630    0.4850 ha        1 1K0      0.171000
@<TRIPOS>BOND
     1    1    2 1   
     2    1    3 1   
     3    2   28 1   
     4    2   29 1   
     5    2   30 1   
     6    3    4 ar  
     7    3   27 ar  
     8    4    5 ar  
     9    4   31 1   
    10    5    8 1   
    11    5    9 ar  
    12    6   12 1   
    13    6   13 1   
    14    6   32 1   
    15    7    8 1   
    16    7   33 1   
    17    7   34 1   
    18    7   35 1   
    19    9   12 1   
    20    9   26 ar  
    21   10   20 1   
    22   10   21 1   
    23   11   13 2   
    24   11   26 1   
    25   12   15 2   
    26   13   16 1   
    27   14   22 1   
    28   14   36 1   
    29   16   17 ar  
    30   16   25 ar  
    31   17   18 ar  
    32   17   37 1   
    33   18   19 1   
    34   18   20 ar  
    35   19   38 1   
    36   19   39 1   
    37   19   40 1   
    38   20   23 ar  
    39   21   22 1   
    40   21   41 1   
    41   21   42 1   
    42   22   43 1   
    43   22   44 1   
    44   23   24 1   
    45   23   25 ar  
    46   24   45 1   
    47   24   46 1   
    48   24   47 1   
    49   25   48 1   
    50   26   27 ar  
    51   27   49 1   
@<TRIPOS>SUBSTRUCTURE
     1 1K0         1 TEMP              0 ****  ****    0 ROOT
