@<TRIPOS>MOLECULE
1K0
   49    51     1     0     0
SMALL
bcc


@<TRIPOS>ATOM
      1 O1          5.2070    2.7400    0.9840 os        1 1K0     -0.320900
      2 C1          6.6280    2.6860    0.9110 c3        1 1K0      0.112700
      3 C2          4.5220    1.6260    0.5470 ca        1 1K0      0.196100
      4 C3          5.1470    0.4760    0.0420 ca        1 1K0     -0.314000
      5 C4          4.3510   -0.5950   -0.3730 ca        1 1K0      0.231100
      6 N1          0.7030   -1.4490   -0.5880 n         1 1K0     -0.501400
      7 C5          6.2770   -1.8620   -0.9790 c3        1 1K0      0.108700
      8 O2          4.8590   -1.7650   -0.8820 os        1 1K0     -0.287900
      9 C6          2.9420   -0.5280   -0.2900 ca        1 1K0     -0.254600
     10 O3         -5.4310    0.1660    0.3950 os        1 1K0     -0.358900
     11 N2          0.9340    0.7620    0.3300 nc        1 1K0     -0.625100
     12 C7          2.0940   -1.6460   -0.7250 c         1 1K0      0.722100
     13 C8          0.1910   -0.2590   -0.0660 cd        1 1K0      0.556500
     14 O4         -7.6680    1.5240   -0.6450 oh        1 1K0     -0.598800
     15 O5          2.4790   -2.7290   -1.1940 o         1 1K0     -0.604500
     16 C9         -1.2930   -0.1630    0.0330 ca        1 1K0     -0.146900
     17 C18        -1.9400    0.9920   -0.4100 ca        1 1K0     -0.094500
     18 C16        -3.3330    1.0960   -0.3280 ca        1 1K0     -0.083300
     19 C17        -4.0120    2.3300   -0.7850 c3        1 1K0     -0.056800
     20 C13        -4.0600    0.0220    0.2150 ca        1 1K0      0.105100
     21 C14        -6.2060   -0.4120   -0.6710 c3        1 1K0      0.086400
     22 C15        -7.6220    0.1220   -0.4790 c3        1 1K0      0.129400
     23 C11        -3.4170   -1.1430    0.6720 ca        1 1K0     -0.083300
     24 C12        -4.1890   -2.2690    1.2480 c3        1 1K0     -0.056800
     25 C10        -2.0250   -1.2230    0.5790 ca        1 1K0     -0.094500
     26 C19         2.3270    0.6500    0.2260 ca        1 1K0      0.243400
     27 C20         3.1290    1.7300    0.6450 ca        1 1K0     -0.193000
     28 H1          7.0250    1.8580    1.5470 h1        1 1K0      0.047367
     29 H2          6.9640    2.5660   -0.1480 h1        1 1K0      0.047367
     30 H3          6.9440    3.6810    1.3150 h1        1 1K0      0.047367
     31 H4          6.2410    0.4190   -0.0250 ha        1 1K0      0.148000
     32 H5          0.0830   -2.1720   -0.8780 hn        1 1K0      0.336500
     33 H6          6.4300   -2.8840   -1.4110 h1        1 1K0      0.048367
     34 H7          6.6810   -1.0780   -1.6640 h1        1 1K0      0.048367
     35 H8          6.7480   -1.7860    0.0310 h1        1 1K0      0.048367
     36 H9         -7.0870    1.9060    0.0260 ho        1 1K0      0.413000
     37 H10        -1.3570    1.8310   -0.8230 ha        1 1K0      0.150000
     38 H11        -3.5060    2.7510   -1.6890 hc        1 1K0      0.052533
     39 H12        -5.0850    2.1260   -1.0350 hc        1 1K0      0.052533
     40 H13        -3.9830    3.1000    0.0260 hc        1 1K0      0.052533
     41 H14        -5.7900   -0.0940   -1.6610 h1        1 1K0      0.049200
     42 H15        -6.1760   -1.5280   -0.5770 h1        1 1K0      0.049200
     43 H16        -8.0080   -0.1630    0.5350 h1        1 1K0      0.056200
     44 H17        -8.2930   -0.2910   -1.2780 h1        1 1K0      0.056200
     45 H18        -4.4360   -3.0120    0.4480 hc        1 1K0      0.052533
     46 H19        -3.6000   -2.7910    2.0420 hc        1 1K0      0.052533
     47 H20        -5.1460   -1.9020    1.6960 hc        1 1K0      0.052533
     48 H21        -1.5140   -2.1210    0.9570 ha        1 1K0      0.150000
     49 H22         2.6780    2.6480    1.0490 ha        1 1K0      0.171000
@<TRIPOS>BOND
     1    1    2 1   
     2    1    3 1   
     3    2   28 1   
     4    2   29 1   
     5    2   30 1   
     6    3    4 ar  
     7    3   27 ar  
     8    4    5 ar  
     9    4   31 1   
    10    5    8 1   
    11    5    9 ar  
    12    6   12 1   
    13    6   13 1   
    14    6   32 1   
    15    7    8 1   
    16    7   33 1   
    17    7   34 1   
    18    7   35 1   
    19    9   12 1   
    20    9   26 ar  
    21   10   20 1   
    22   10   21 1   
    23   11   13 2   
    24   11   26 1   
    25   12   15 2   
    26   13   16 1   
    27   14   22 1   
    28   14   36 1   
    29   16   17 ar  
    30   16   25 ar  
    31   17   18 ar  
    32   17   37 1   
    33   18   19 1   
    34   18   20 ar  
    35   19   38 1   
    36   19   39 1   
    37   19   40 1   
    38   20   23 ar  
    39   21   22 1   
    40   21   41 1   
    41   21   42 1   
    42   22   43 1   
    43   22   44 1   
    44   23   24 1   
    45   23   25 ar  
    46   24   45 1   
    47   24   46 1   
    48   24   47 1   
    49   25   48 1   
    50   26   27 ar  
    51   27   49 1   
@<TRIPOS>SUBSTRUCTURE
     1 1K0         1 TEMP              0 ****  ****    0 ROOT
