@<TRIPOS>MOLECULE
1K0
   49    45     1     0     0
SMALL
bcc


@<TRIPOS>ATOM
      1 O1          5.5310    3.5320   -0.0360 os        1 1K0     -0.204000
      2 C1          5.9930    3.9360    1.2250 c3        1 1K0     -0.077000
      3 C2          4.9060    2.2900   -0.0390 c1        1 1K0      0.151000
      4 C3          5.6060    1.1070    0.0820 c1        1 1K0     -0.314000
      5 C4          4.9150   -0.1270    0.0590 c1        1 1K0      0.186000
      6 N1          1.3840   -1.4870   -0.1280 n         1 1K0     -0.341000
      7 C5          6.5790   -1.5310    1.0900 c3        1 1K0     -0.081000
      8 O2          5.6470   -1.3650    0.0100 o         1 1K0     -0.171000
      9 C6          3.5300   -0.1510   -0.0850 c2        1 1K0     -0.234000
     10 O3         -5.1050   -0.1070   -0.5260 os        1 1K0     -0.233000
     11 N2          1.3550    1.0080   -0.2430 n1        1 1K0     -0.199000
     12 C7          2.8010   -1.4620   -0.0610 c2        1 1K0      0.359000
     13 C8          0.6490   -0.2570   -0.2190 c2        1 1K0      0.179000
     14 O4         -7.9320   -2.3090   -0.3500 oh        1 1K0     -0.329000
     15 O5          3.4210   -2.4960    0.0650 o         1 1K0     -0.329000
     16 C9         -0.8960   -0.2820   -0.2970 c2        1 1K0     -0.065000
     17 C18        -1.5280   -0.2740   -1.5280 c2        1 1K0     -0.078000
     18 C16        -2.9360   -0.2470   -1.5940 c1        1 1K0     -0.074000
     19 C17        -3.6370   -0.2340   -2.9450 c2        1 1K0     -0.176000
     20 C13        -3.6800   -0.2290   -0.4330 c2        1 1K0      0.064000
     21 C14        -5.7990   -1.3630   -0.5000 c3        1 1K0     -0.024000
     22 C15        -7.2660   -1.1230   -0.2760 c3        1 1K0     -0.024000
     23 C11        -3.0370   -0.2380    0.8110 c1        1 1K0     -0.080000
     24 C12        -3.8540   -0.1420    2.0910 c3        1 1K0     -0.183000
     25 C10        -1.6510   -0.2640    0.8770 c1        1 1K0     -0.111000
     26 C19         2.8290    1.0280   -0.2070 c1        1 1K0      0.105000
     27 C20         3.5210    2.2690   -0.1840 c1        1 1K0     -0.194000
     28 H1          6.6380    3.2730    1.5660 h1        1 1K0      0.086667
     29 H2          5.2310    4.0050    1.8480 h1        1 1K0      0.086667
     30 H3          6.4320    4.8080    1.1470 h1        1 1K0      0.086667
     31 H4          6.6010    1.1190    0.0930 ha        1 1K0      0.148000
     32 H5          0.9290   -2.3060   -0.1120 hn        1 1K0      0.251000
     33 H6          6.1200   -1.3690    1.9480 h1        1 1K0      0.087667
     34 H7          7.3190   -0.8860    0.9860 h1        1 1K0      0.087667
     35 H8          6.9420   -2.4550    1.0770 h1        1 1K0      0.087667
     36 H9         -8.7940   -2.1690   -0.2530 ho        1 1K0      0.206000
     37 H10        -0.9900   -0.2970   -2.3620 ha        1 1K0      0.157000
     38 H11        -4.4160    0.3700   -2.9040 ha        1 1K0      0.090667
     39 H12        -3.9390   -1.1420   -3.1660 ha        1 1K0      0.090667
     40 H13        -3.0220    0.0770   -3.6260 ha        1 1K0      0.090667
     41 H14        -5.4400   -1.9270    0.2340 h1        1 1K0      0.090500
     42 H15        -5.6710   -1.8320   -1.3710 h1        1 1K0      0.090500
     43 H16        -7.6090   -0.5080   -0.9640 h1        1 1K0      0.076500
     44 H17        -7.4020   -0.7250    0.6160 h1        1 1K0      0.076500
     45 H18        -3.2930    0.1920    2.8050 hc        1 1K0      0.091667
     46 H19        -4.6190    0.4800    1.9520 hc        1 1K0      0.091667
     47 H20        -4.1920   -1.0280    2.3300 hc        1 1K0      0.091667
     48 H21        -1.1970   -0.2700    1.7610 ha        1 1K0      0.142000
     49 H22         3.0240    3.1100   -0.2670 ha        1 1K0      0.170000
@<TRIPOS>BOND
     1    1    2 1   
     2    1    3 1   
     3    2   28 1   
     4    2   29 1   
     5    2   30 1   
     6    3   27 1   
     7    4    5 1   
     8    4   31 1   
     9    5    9 1   
    10    6   12 1   
    11    6   13 1   
    12    6   32 1   
    13    7    8 1   
    14    7   33 1   
    15    7   34 1   
    16    7   35 1   
    17    9   12 1   
    18    9   26 1   
    19   10   20 1   
    20   10   21 1   
    21   11   13 1   
    22   12   15 1   
    23   13   16 1   
    24   14   22 1   
    25   14   36 1   
    26   16   17 1   
    27   16   25 1   
    28   17   18 1   
    29   17   37 1   
    30   18   20 1   
    31   19   38 1   
    32   19   39 1   
    33   19   40 1   
    34   20   23 1   
    35   21   22 1   
    36   21   41 1   
    37   21   42 1   
    38   22   43 1   
    39   22   44 1   
    40   23   24 1   
    41   24   45 1   
    42   24   46 1   
    43   24   47 1   
    44   25   48 1   
    45   27   49 1   
@<TRIPOS>SUBSTRUCTURE
     1 1K0         1 TEMP              0 ****  ****    0 ROOT
