@<TRIPOS>MOLECULE
1K0
   49    51     1     0     0
SMALL
bcc


@<TRIPOS>ATOM
      1 O1         -0.0280    1.0040    0.1050 os        1 1K0     -0.320900
      2 C1          1.3910    0.9980   -0.0010 c3        1 1K0      0.112700
      3 C2         -0.5620    0.5720    1.3010 ca        1 1K0      0.196100
      4 C3          0.2130    0.1310    2.3840 ca        1 1K0     -0.314000
      5 C4         -0.4360   -0.2860    3.5500 ca        1 1K0      0.231100
      6 N1         -3.9500   -0.6370    4.8210 ns        1 1K0     -0.501400
      7 C5          1.6470   -0.7630    4.6040 c3        1 1K0      0.108700
      8 O2          0.2250   -0.7350    4.6670 os        1 1K0     -0.287900
      9 C6         -1.8460   -0.2680    3.6420 ca        1 1K0     -0.254600
     10 O3        -10.2660    0.0230    3.9320 os        1 1K0     -0.357900
     11 N2         -4.0140    0.2200    2.5740 nc        1 1K0     -0.626100
     12 C7         -2.5410   -0.7060    4.8600 c         1 1K0      0.722100
     13 C8         -4.6170   -0.1770    3.6840 cd        1 1K0      0.556500
     14 O4        -12.5760   -0.7120    2.5130 oh        1 1K0     -0.598800
     15 O5         -2.0130   -1.1230    5.9040 o         1 1K0     -0.604500
     16 C9         -6.1050   -0.1470    3.7560 ca        1 1K0     -0.147900
     17 C18        -6.8570   -0.6550    2.6940 ca        1 1K0     -0.094500
     18 C16        -8.2560   -0.6410    2.7480 ca        1 1K0     -0.085300
     19 C17        -9.0340   -1.1830    1.6100 c3        1 1K0     -0.055300
     20 C13        -8.8830   -0.1030    3.8850 ca        1 1K0      0.107100
     21 C14       -10.9450   -1.2070    4.2410 c3        1 1K0      0.086400
     22 C15       -12.4090   -0.9630    3.8930 c3        1 1K0      0.129400
     23 C11        -8.1340    0.4240    4.9550 ca        1 1K0     -0.085300
     24 C12        -8.8040    1.0240    6.1310 c3        1 1K0     -0.055300
     25 C10        -6.7390    0.3970    4.8770 ca        1 1K0     -0.094500
     26 C19        -2.6140    0.1830    2.5290 ca        1 1K0      0.244400
     27 C20        -1.9600    0.6040    1.3550 ca        1 1K0     -0.193000
     28 H1          1.8470    1.6770    0.7590 h1        1 1K0      0.047367
     29 H2          1.5730    1.3850   -1.0360 h1        1 1K0      0.047367
     30 H3          1.7900   -0.0400    0.1070 h1        1 1K0      0.047367
     31 H4          1.3080    0.1160    2.3180 ha        1 1K0      0.148000
     32 H5         -4.4700   -0.9320    5.6170 hn        1 1K0      0.337500
     33 H6          1.9940   -1.4540    3.7970 h1        1 1K0      0.048367
     34 H7          2.0570    0.2640    4.4480 h1        1 1K0      0.048367
     35 H8          1.9360   -1.1560    5.6130 h1        1 1K0      0.048367
     36 H9        -12.0690    0.0860    2.3090 ho        1 1K0      0.414000
     37 H10        -6.3540   -1.0610    1.8020 ha        1 1K0      0.150000
     38 H11       -10.0980   -0.8360    1.6480 hc        1 1K0      0.052533
     39 H12        -8.5880   -0.8540    0.6390 hc        1 1K0      0.052533
     40 H13        -9.0270   -2.3020    1.6370 hc        1 1K0      0.052533
     41 H14       -10.5210   -2.0450    3.6300 h1        1 1K0      0.049700
     42 H15       -10.8210   -1.4240    5.3330 h1        1 1K0      0.049700
     43 H16       -12.8120   -0.1070    4.4960 h1        1 1K0      0.056200
     44 H17       -13.0060   -1.8920    4.0970 h1        1 1K0      0.056200
     45 H18        -9.7970    0.5410    6.3080 hc        1 1K0      0.052533
     46 H19        -8.9770    2.1160    5.9510 hc        1 1K0      0.052533
     47 H20        -8.1790    0.9120    7.0510 hc        1 1K0      0.052533
     48 H21        -6.1490    0.8260    5.7020 ha        1 1K0      0.150000
     49 H22        -2.5320    0.9580    0.4840 ha        1 1K0      0.171000
@<TRIPOS>BOND
     1    1    2 1   
     2    1    3 1   
     3    2   28 1   
     4    2   29 1   
     5    2   30 1   
     6    3    4 ar  
     7    3   27 ar  
     8    4    5 ar  
     9    4   31 1   
    10    5    8 1   
    11    5    9 ar  
    12    6   12 1   
    13    6   13 1   
    14    6   32 1   
    15    7    8 1   
    16    7   33 1   
    17    7   34 1   
    18    7   35 1   
    19    9   12 1   
    20    9   26 ar  
    21   10   20 1   
    22   10   21 1   
    23   11   13 2   
    24   11   26 1   
    25   12   15 2   
    26   13   16 1   
    27   14   22 1   
    28   14   36 1   
    29   16   17 ar  
    30   16   25 ar  
    31   17   18 ar  
    32   17   37 1   
    33   18   19 1   
    34   18   20 ar  
    35   19   38 1   
    36   19   39 1   
    37   19   40 1   
    38   20   23 ar  
    39   21   22 1   
    40   21   41 1   
    41   21   42 1   
    42   22   43 1   
    43   22   44 1   
    44   23   24 1   
    45   23   25 ar  
    46   24   45 1   
    47   24   46 1   
    48   24   47 1   
    49   25   48 1   
    50   26   27 ar  
    51   27   49 1   
@<TRIPOS>SUBSTRUCTURE
     1 1K0         1 TEMP              0 ****  ****    0 ROOT
