@<TRIPOS>MOLECULE
1K0
   49    51     1     0     0
SMALL
bcc


@<TRIPOS>ATOM
      1 O1         -0.0450    1.0130    0.0820 os        1 1K0     -0.320900
      2 C1          1.3740    1.0150   -0.0280 c3        1 1K0      0.112700
      3 C2         -0.5730    0.5860    1.2820 ca        1 1K0      0.196100
      4 C3          0.2080    0.1590    2.3670 ca        1 1K0     -0.314000
      5 C4         -0.4350   -0.2540    3.5370 ca        1 1K0      0.231100
      6 N1         -3.9430   -0.6190    4.8210 n         1 1K0     -0.501400
      7 C5          1.6540   -0.7100    4.5890 c3        1 1K0      0.108700
      8 O2          0.2320   -0.6900    4.6560 os        1 1K0     -0.287900
      9 C6         -1.8450   -0.2440    3.6330 ca        1 1K0     -0.254600
     10 O3        -10.2660   -0.0070    3.9440 os        1 1K0     -0.357900
     11 N2         -4.0190    0.2220    2.5680 nc        1 1K0     -0.626100
     12 C7         -2.5330   -0.6770    4.8570 c         1 1K0      0.722100
     13 C8         -4.6160   -0.1710    3.6820 cd        1 1K0      0.556500
     14 O4        -12.5750   -0.7670    2.5380 oh        1 1K0     -0.598800
     15 O5         -2.0000   -1.0830    5.9020 o         1 1K0     -0.604500
     16 C9         -6.1040   -0.1510    3.7580 ca        1 1K0     -0.147900
     17 C18        -6.8560   -0.6710    2.7030 ca        1 1K0     -0.094500
     18 C16        -8.2540   -0.6660    2.7600 ca        1 1K0     -0.085300
     19 C17        -9.0330   -1.2210    1.6280 c3        1 1K0     -0.055300
     20 C13        -8.8820   -0.1240    3.8950 ca        1 1K0      0.107100
     21 C14       -10.9350   -1.2380    4.2650 c3        1 1K0      0.086400
     22 C15       -12.4030   -1.0070    3.9190 c3        1 1K0      0.129400
     23 C11        -8.1330    0.4170    4.9590 ca        1 1K0     -0.085300
     24 C12        -8.8040    1.0210    6.1320 c3        1 1K0     -0.055300
     25 C10        -6.7390    0.3980    4.8770 ca        1 1K0     -0.094500
     26 C19        -2.6190    0.1930    2.5190 ca        1 1K0      0.244400
     27 C20        -1.9710    0.6100    1.3400 ca        1 1K0     -0.193000
     28 H1          1.8280    1.7020    0.7260 h1        1 1K0      0.047367
     29 H2          1.5500    1.3950   -1.0670 h1        1 1K0      0.047367
     30 H3          1.7800   -0.0190    0.0860 h1        1 1K0      0.047367
     31 H4          1.3030    0.1500    2.2980 ha        1 1K0      0.148000
     32 H5         -4.4580   -0.9100    5.6200 hn        1 1K0      0.337500
     33 H6          2.0030   -1.4040    3.7870 h1        1 1K0      0.048367
     34 H7          2.0570    0.3190    4.4250 h1        1 1K0      0.048367
     35 H8          1.9480   -1.0930    5.6000 h1        1 1K0      0.048367
     36 H9        -12.0740    0.0330    2.3270 ho        1 1K0      0.414000
     37 H10        -6.3530   -1.0810    1.8120 ha        1 1K0      0.150000
     38 H11       -10.0990   -0.8810    1.6670 hc        1 1K0      0.052533
     39 H12        -8.5910   -0.8960    0.6540 hc        1 1K0      0.052533
     40 H13        -9.0180   -2.3400    1.6640 hc        1 1K0      0.052533
     41 H14       -10.5080   -2.0780    3.6590 h1        1 1K0      0.049700
     42 H15       -10.8070   -1.4460    5.3580 h1        1 1K0      0.049700
     43 H16       -12.8090   -0.1490    4.5170 h1        1 1K0      0.056200
     44 H17       -12.9920   -1.9380    4.1310 h1        1 1K0      0.056200
     45 H18        -8.9850    2.1100    5.9450 hc        1 1K0      0.052533
     46 H19        -8.1760    0.9190    7.0510 hc        1 1K0      0.052533
     47 H20        -9.7940    0.5330    6.3150 hc        1 1K0      0.052533
     48 H21        -6.1490    0.8370    5.6970 ha        1 1K0      0.150000
     49 H22        -2.5470    0.9530    0.4680 ha        1 1K0      0.171000
@<TRIPOS>BOND
     1    1    2 1   
     2    1    3 1   
     3    2   28 1   
     4    2   29 1   
     5    2   30 1   
     6    3    4 ar  
     7    3   27 ar  
     8    4    5 ar  
     9    4   31 1   
    10    5    8 1   
    11    5    9 ar  
    12    6   12 1   
    13    6   13 1   
    14    6   32 1   
    15    7    8 1   
    16    7   33 1   
    17    7   34 1   
    18    7   35 1   
    19    9   12 1   
    20    9   26 ar  
    21   10   20 1   
    22   10   21 1   
    23   11   13 2   
    24   11   26 1   
    25   12   15 2   
    26   13   16 1   
    27   14   22 1   
    28   14   36 1   
    29   16   17 ar  
    30   16   25 ar  
    31   17   18 ar  
    32   17   37 1   
    33   18   19 1   
    34   18   20 ar  
    35   19   38 1   
    36   19   39 1   
    37   19   40 1   
    38   20   23 ar  
    39   21   22 1   
    40   21   41 1   
    41   21   42 1   
    42   22   43 1   
    43   22   44 1   
    44   23   24 1   
    45   23   25 ar  
    46   24   45 1   
    47   24   46 1   
    48   24   47 1   
    49   25   48 1   
    50   26   27 ar  
    51   27   49 1   
@<TRIPOS>SUBSTRUCTURE
     1 1K0         1 TEMP              0 ****  ****    0 ROOT
