@<TRIPOS>MOLECULE
1K3
   58    62     1     0     0
SMALL
bcc


@<TRIPOS>ATOM
      1 C24         0.1310    3.3900    1.6850 c3        1 1K3      0.107700
      2 O1          1.3470    2.7340    1.3330 os        1 1K3     -0.314900
      3 C10         1.9870    2.0440    2.3330 ca        1 1K3      0.166100
      4 C9          3.1600    1.3710    1.9310 ca        1 1K3     -0.186500
      5 C8          3.8870    0.6500    2.8670 ca        1 1K3     -0.054000
      6 C11         1.5520    1.9830    3.6650 ca        1 1K3     -0.186500
      7 C12         2.2910    1.2540    4.5910 ca        1 1K3     -0.054000
      8 C7          3.4590    0.5850    4.2020 ca        1 1K3     -0.133000
      9 C3          4.1930   -0.2000    5.1970 cc        1 1K3      0.082700
     10 C2          3.5620   -1.1340    6.0010 cd        1 1K3     -0.148000
     11 N1          5.5740   -0.0140    5.3720 na        1 1K3      0.196000
     12 N2          6.3950    0.8210    4.7320 nc        1 1K3     -0.522100
     13 C6          7.6340    0.5690    5.3200 cd        1 1K3      0.521200
     14 N3          7.6170   -0.4070    6.3300 nd        1 1K3     -0.357300
     15 C4          6.2980   -0.7810    6.3610 cc        1 1K3      0.008700
     16 C5          5.6060   -1.7340    7.1690 cc        1 1K3     -0.114000
     17 C1          4.2590   -1.8930    6.9770 cd        1 1K3     -0.067000
     18 N4          8.8590    1.2800    4.9440 n4        1 1K3     -0.511400
     19 C13         9.1060    2.4540    5.7830 ca        1 1K3     -0.155400
     20 C18         8.7850    3.7390    5.3100 ca        1 1K3     -0.034000
     21 C17         9.0450    4.8470    6.0910 ca        1 1K3     -0.206000
     22 C16         9.6070    4.7260    7.3990 ca        1 1K3      0.251600
     23 C15         9.9260    3.4060    7.8440 ca        1 1K3     -0.206000
     24 C14         9.6660    2.2980    7.0640 ca        1 1K3     -0.034000
     25 N5          9.7860    5.8260    8.2130 nh        1 1K3     -0.632000
     26 C22         9.6590    7.1490    7.6310 c3        1 1K3      0.201800
     27 C21         9.7460    8.3200    8.6270 c3        1 1K3      0.158800
     28 N6         10.8020    8.1460    9.6100 n3        1 1K3     -0.728600
     29 C23        10.9700    9.2960   10.4700 c3        1 1K3      0.153100
     30 C20        10.6100    6.9080   10.3450 c3        1 1K3      0.158800
     31 C19        10.5630    5.6710    9.4290 c3        1 1K3      0.201800
     32 H1         -0.6220    2.6510    2.0520 h1        1 1K3      0.055033
     33 H2          0.3200    4.1780    2.4530 h1        1 1K3      0.055033
     34 H3         -0.2010    3.8480    0.7180 h1        1 1K3      0.055033
     35 H4          3.4780    1.4240    0.8790 ha        1 1K3      0.158500
     36 H5          4.7960    0.1170    2.5480 ha        1 1K3      0.141000
     37 H6          0.6380    2.5030    3.9850 ha        1 1K3      0.158500
     38 H7          1.9520    1.2050    5.6380 ha        1 1K3      0.141000
     39 H8          2.4790   -1.2930    5.8650 ha        1 1K3      0.180000
     40 H9          6.1810   -2.3030    7.9150 ha        1 1K3      0.186000
     41 H10         3.6920   -2.6210    7.5820 ha        1 1K3      0.171000
     42 H11         9.6500    0.6270    5.0450 hn        1 1K3      0.471300
     43 H12         8.3310    3.8820    4.3140 ha        1 1K3      0.154000
     44 H13         8.8030    5.8370    5.6720 ha        1 1K3      0.160500
     45 H14        10.3890    3.2410    8.8300 ha        1 1K3      0.160500
     46 H15         9.9050    1.2940    7.4570 ha        1 1K3      0.154000
     47 H16        10.4540    7.2850    6.8410 h1        1 1K3      0.055450
     48 H17         8.6470    7.2250    7.1380 h1        1 1K3      0.055450
     49 H18         8.7360    8.4540    9.1150 h1        1 1K3      0.051700
     50 H19         9.9670    9.2500    8.0300 h1        1 1K3      0.051700
     51 H21        10.0660    9.5130   11.1030 h1        1 1K3      0.044367
     52 H22        11.1860   10.1920    9.8320 h1        1 1K3      0.044367
     53 H23        11.8470    9.1130   11.1450 h1        1 1K3      0.044367
     54 H24         9.6680    6.9310   10.9680 h1        1 1K3      0.051700
     55 H25        11.4830    6.7720   11.0440 h1        1 1K3      0.051700
     56 H26        10.1050    4.8400   10.0400 h1        1 1K3      0.055450
     57 H27        11.6200    5.3780    9.1600 h1        1 1K3      0.055450
     58 H42         8.7810    1.5760    3.9610 hn        1 1K3      0.471300
@<TRIPOS>BOND
     1    1    2 1   
     2    1   32 1   
     3    1   33 1   
     4    1   34 1   
     5    2    3 1   
     6    3    4 ar  
     7    3    6 ar  
     8    4    5 ar  
     9    4   35 1   
    10    5    8 ar  
    11    5   36 1   
    12    6    7 ar  
    13    6   37 1   
    14    7    8 ar  
    15    7   38 1   
    16    8    9 1   
    17    9   10 2   
    18    9   11 1   
    19   10   17 1   
    20   10   39 1   
    21   11   12 1   
    22   11   15 1   
    23   12   13 2   
    24   13   14 1   
    25   13   18 1   
    26   14   15 2   
    27   15   16 1   
    28   16   17 2   
    29   16   40 1   
    30   17   41 1   
    31   18   19 1   
    32   18   42 1   
    33   18   58 1   
    34   19   20 ar  
    35   19   24 ar  
    36   20   21 ar  
    37   20   43 1   
    38   21   22 ar  
    39   21   44 1   
    40   22   23 ar  
    41   22   25 1   
    42   23   24 ar  
    43   23   45 1   
    44   24   46 1   
    45   25   26 1   
    46   25   31 1   
    47   26   27 1   
    48   26   47 1   
    49   26   48 1   
    50   27   28 1   
    51   27   49 1   
    52   27   50 1   
    53   28   29 1   
    54   28   30 1   
    55   29   51 1   
    56   29   52 1   
    57   29   53 1   
    58   30   31 1   
    59   30   54 1   
    60   30   55 1   
    61   31   56 1   
    62   31   57 1   
@<TRIPOS>SUBSTRUCTURE
     1 1K3         1 TEMP              0 ****  ****    0 ROOT
