@<TRIPOS>MOLECULE
1K3
   57    61     1     0     0
SMALL
bcc


@<TRIPOS>ATOM
      1 C24        -0.3460    0.5700    0.0480 c3        1 1K3      0.112700
      2 O1          1.0760    0.4960    0.0570 os        1 1K3     -0.323900
      3 C10         1.6720    0.3570    1.2930 ca        1 1K3      0.142100
      4 C9          3.0790    0.3150    1.2700 ca        1 1K3     -0.187500
      5 C8          3.7780    0.1760    2.4620 ca        1 1K3     -0.060000
      6 C11         0.9750    0.2580    2.5040 ca        1 1K3     -0.187500
      7 C12         1.6900    0.1160    3.6910 ca        1 1K3     -0.060000
      8 C7          3.0890    0.0720    3.6800 ca        1 1K3     -0.095000
      9 C3          3.8050   -0.1080    4.9500 cc        1 1K3      0.077700
     10 C2          3.4240   -1.0950    5.8470 cd        1 1K3     -0.190000
     11 N1          4.8770    0.7140    5.2870 na        1 1K3      0.184000
     12 N2          5.4130    1.7330    4.5960 nc        1 1K3     -0.631100
     13 C6          6.4580    2.1880    5.4150 cd        1 1K3      0.703200
     14 N3          6.5680    1.4650    6.6300 nd        1 1K3     -0.407300
     15 C4          5.5720    0.5370    6.5410 cc        1 1K3     -0.000300
     16 C5          5.1530   -0.4910    7.4390 cc        1 1K3     -0.124000
     17 C1          4.0940   -1.2840    7.0820 cd        1 1K3     -0.092000
     18 N4          7.3500    3.1960    5.0030 nu        1 1K3     -0.626600
     19 C13         8.0520    3.9440    5.9860 ca        1 1K3      0.085600
     20 C18         7.9230    5.3480    6.0380 ca        1 1K3     -0.111500
     21 C17         8.6770    6.1010    6.9260 ca        1 1K3     -0.157000
     22 C16         9.5910    5.4850    7.8120 ca        1 1K3      0.126600
     23 C15         9.7150    4.0810    7.7520 ca        1 1K3     -0.157000
     24 C14         8.9630    3.3240    6.8610 ca        1 1K3     -0.111500
     25 N5         10.2770    6.2790    8.7680 nh        1 1K3     -0.633000
     26 C22        11.0550    7.3790    8.2160 c3        1 1K3      0.184300
     27 C21        11.6050    8.3150    9.3100 c3        1 1K3      0.165300
     28 N6         12.3170    7.6030   10.3620 n3        1 1K3     -0.732600
     29 C23        12.8070    8.4880   11.3940 c3        1 1K3      0.157100
     30 C20        11.5400    6.4970   10.9000 c3        1 1K3      0.165300
     31 C19        10.9930    5.5570    9.8060 c3        1 1K3      0.184300
     32 H1         -0.7920   -0.3720    0.4490 h1        1 1K3      0.046033
     33 H2         -0.5910    0.6930   -1.0380 h1        1 1K3      0.046033
     34 H3         -0.6990    1.4520    0.6340 h1        1 1K3      0.046033
     35 H4          3.6070    0.3950    0.3090 ha        1 1K3      0.148000
     36 H5          4.8780    0.1450    2.4420 ha        1 1K3      0.146000
     37 H6         -0.1230    0.2930    2.5310 ha        1 1K3      0.148000
     38 H7          1.1470    0.0430    4.6460 ha        1 1K3      0.146000
     39 H8          2.5810   -1.7510    5.5830 ha        1 1K3      0.155000
     40 H9          5.6960   -0.6060    8.3870 ha        1 1K3      0.166000
     41 H10         3.7470   -2.0860    7.7510 ha        1 1K3      0.144000
     42 H11         6.9660    3.7730    4.2780 hn        1 1K3      0.420800
     43 H12         7.2180    5.8670    5.3700 ha        1 1K3      0.143500
     44 H13         8.5350    7.1930    6.9430 ha        1 1K3      0.136000
     45 H14        10.4170    3.5500    8.4130 ha        1 1K3      0.136000
     46 H15         9.0950    2.2300    6.8480 ha        1 1K3      0.143500
     47 H16        11.9180    6.9970    7.5980 h1        1 1K3      0.044200
     48 H17        10.3910    7.9920    7.5450 h1        1 1K3      0.044200
     49 H18        12.3340    9.0200    8.8200 h1        1 1K3      0.038450
     50 H19        10.7530    8.9290    9.7240 h1        1 1K3      0.038450
     51 H21        11.9880    9.0120   11.9600 h1        1 1K3      0.032700
     52 H22        13.4660    9.2630   10.9210 h1        1 1K3      0.032700
     53 H23        13.4160    7.8910   12.1210 h1        1 1K3      0.032700
     54 H24        10.6760    6.8600   11.5300 h1        1 1K3      0.038450
     55 H25        12.2190    5.8890   11.5620 h1        1 1K3      0.038450
     56 H26        10.2750    4.8410   10.2970 h1        1 1K3      0.044200
     57 H27        11.8540    4.9620    9.3820 h1        1 1K3      0.044200
@<TRIPOS>BOND
     1    1    2 1   
     2    1   32 1   
     3    1   33 1   
     4    1   34 1   
     5    2    3 1   
     6    3    4 ar  
     7    3    6 ar  
     8    4    5 ar  
     9    4   35 1   
    10    5    8 ar  
    11    5   36 1   
    12    6    7 ar  
    13    6   37 1   
    14    7    8 ar  
    15    7   38 1   
    16    8    9 1   
    17    9   10 2   
    18    9   11 1   
    19   10   17 1   
    20   10   39 1   
    21   11   12 1   
    22   11   15 1   
    23   12   13 2   
    24   13   14 1   
    25   13   18 1   
    26   14   15 2   
    27   15   16 1   
    28   16   17 2   
    29   16   40 1   
    30   17   41 1   
    31   18   19 1   
    32   18   42 1   
    33   19   20 ar  
    34   19   24 ar  
    35   20   21 ar  
    36   20   43 1   
    37   21   22 ar  
    38   21   44 1   
    39   22   23 ar  
    40   22   25 1   
    41   23   24 ar  
    42   23   45 1   
    43   24   46 1   
    44   25   26 1   
    45   25   31 1   
    46   26   27 1   
    47   26   47 1   
    48   26   48 1   
    49   27   28 1   
    50   27   49 1   
    51   27   50 1   
    52   28   29 1   
    53   28   30 1   
    54   29   51 1   
    55   29   52 1   
    56   29   53 1   
    57   30   31 1   
    58   30   54 1   
    59   30   55 1   
    60   31   56 1   
    61   31   57 1   
@<TRIPOS>SUBSTRUCTURE
     1 1K3         1 TEMP              0 ****  ****    0 ROOT
