@<TRIPOS>MOLECULE
1K3
   57    51     1     0     0
SMALL
bcc


@<TRIPOS>ATOM
      1 C24        -7.9860   -2.3240   -5.6930 c3        1 1K3     -0.077000
      2 O1         -6.9550   -1.3800   -5.4120 os        1 1K3     -0.207000
      3 C10        -5.9840   -1.8510   -4.5020 c2        1 1K3      0.097000
      4 C9         -4.9010   -2.5770   -4.9640 c2        1 1K3     -0.212000
      5 C8         -3.8960   -2.9640   -4.0840 c1        1 1K3     -0.068000
      6 C11        -6.0670   -1.5040   -3.1430 c1        1 1K3     -0.163000
      7 C12        -5.0610   -1.8920   -2.2640 c1        1 1K3     -0.051000
      8 C7         -3.9780   -2.6190   -2.7300 c1        1 1K3     -0.095000
      9 C3         -2.9150   -3.0850   -1.7710 c2        1 1K3      0.102000
     10 C2         -3.1830   -4.3130   -1.2200 c1        1 1K3     -0.190000
     11 N1         -1.7330   -2.4080   -1.4350 n2        1 1K3     -0.044000
     12 N2         -1.1940   -1.2270   -1.8820 n1        1 1K3     -0.164000
     13 C6          0.0100   -1.0650   -1.2880 c1        1 1K3      0.044000
     14 N3          0.2230   -2.1230   -0.4820 n2        1 1K3     -0.189000
     15 C4         -0.8680   -2.9580   -0.5770 c1        1 1K3      0.024000
     16 C5         -1.1400   -4.2200   -0.0090 c1        1 1K3     -0.131500
     17 C1         -2.2880   -4.8800   -0.3340 c1        1 1K3     -0.131500
     18 N4          0.7750    0.1120   -1.6190 n2        1 1K3     -0.188000
     19 C13         1.6670    0.7020   -0.6280 c1        1 1K3      0.002000
     20 C18         1.1660    1.5970    0.3180 c1        1 1K3     -0.131500
     21 C17         2.0160    2.1290    1.2940 c1        1 1K3     -0.131500
     22 C16         3.3590    1.7650    1.3200 c1        1 1K3      0.047000
     23 C15         3.8560    0.8720    0.3770 c1        1 1K3     -0.153000
     24 C14         3.0080    0.3400   -0.5990 c1        1 1K3     -0.079000
     25 N5          4.2460    2.2880    2.3770 n2        1 1K3     -0.233000
     26 C22         3.6230    1.9920    3.7730 c3        1 1K3     -0.080500
     27 C21         4.4160    2.6030    4.9110 c3        1 1K3     -0.095500
     28 N6          5.1700    3.5420    4.4970 n3        1 1K3     -0.253000
     29 C23         5.8150    4.1540    5.6070 c3        1 1K3     -0.124000
     30 C20         4.8890    4.4290    3.6190 c3        1 1K3     -0.095500
     31 C19         4.0990    3.8330    2.4680 c3        1 1K3     -0.080500
     32 H1         -8.3510   -2.6670   -4.8510 h1        1 1K3      0.086000
     33 H2         -8.7030   -1.8840   -6.2070 h1        1 1K3      0.086000
     34 H3         -7.6070   -3.0840   -6.2300 h1        1 1K3      0.086000
     35 H4         -4.8410   -2.8240   -5.9310 ha        1 1K3      0.141000
     36 H5         -3.1380   -3.4730   -4.4080 ha        1 1K3      0.138000
     37 H6         -6.8400   -0.9870   -2.8120 ha        1 1K3      0.154000
     38 H7         -5.1200   -1.6460   -1.2970 ha        1 1K3      0.151000
     39 H8         -4.0190   -4.7910   -1.4570 ha        1 1K3      0.156000
     40 H9         -0.5100   -4.6190    0.6130 ha        1 1K3      0.142750
     41 H10        -2.4740   -5.7460    0.0560 ha        1 1K3      0.142750
     42 H11         0.7570    0.4440   -2.4730 hn        1 1K3      0.216000
     43 H12         0.2260    1.8510    0.2990 ha        1 1K3      0.142750
     44 H13         1.6720    2.7480    1.9480 ha        1 1K3      0.142750
     45 H14         4.7910    0.6180    0.3960 ha        1 1K3      0.139000
     46 H15         3.3580   -0.2850   -1.2580 ha        1 1K3      0.158000
     47 H16         3.5790    1.0220    3.9020 h1        1 1K3      0.095500
     48 H17         2.7160    2.3540    3.7950 h1        1 1K3      0.095500
     49 H18         4.9650    1.9100    5.3290 h1        1 1K3      0.092000
     50 H19         3.7970    2.9610    5.5720 h1        1 1K3      0.092000
     51 H21         6.7660    3.9050    5.6120 h1        1 1K3      0.073000
     52 H22         5.3940    3.8490    6.4350 h1        1 1K3      0.073000
     53 H23         5.7330    5.1210    5.5390 h1        1 1K3      0.073000
     54 H24         4.3590    5.1410    4.0400 h1        1 1K3      0.092000
     55 H25         5.7400    4.8200    3.2640 h1        1 1K3      0.092000
     56 H26         3.1440    4.0540    2.5900 h1        1 1K3      0.095500
     57 H27         4.4190    4.2430    1.6080 h1        1 1K3      0.095500
@<TRIPOS>BOND
     1    1    2 1   
     2    1   32 1   
     3    1   33 1   
     4    1   34 1   
     5    2    3 1   
     6    3    4 1   
     7    3    6 1   
     8    4    5 1   
     9    4   35 1   
    10    5   36 1   
    11    6   37 1   
    12    7    8 1   
    13    7   38 1   
    14    8    9 1   
    15    9   10 1   
    16    9   11 1   
    17   10   39 1   
    18   11   15 1   
    19   12   13 1   
    20   13   14 1   
    21   14   15 1   
    22   16   17 1   
    23   16   40 1   
    24   17   41 1   
    25   18   19 1   
    26   18   42 1   
    27   19   24 1   
    28   20   21 1   
    29   20   43 1   
    30   21   44 1   
    31   22   23 1   
    32   23   45 1   
    33   24   46 1   
    34   25   26 1   
    35   25   31 1   
    36   26   27 1   
    37   26   47 1   
    38   26   48 1   
    39   27   28 1   
    40   27   49 1   
    41   27   50 1   
    42   28   29 1   
    43   28   30 1   
    44   29   51 1   
    45   29   52 1   
    46   29   53 1   
    47   30   31 1   
    48   30   54 1   
    49   30   55 1   
    50   31   56 1   
    51   31   57 1   
@<TRIPOS>SUBSTRUCTURE
     1 1K3         1 TEMP              0 ****  ****    0 ROOT
