@<TRIPOS>MOLECULE
1K3
   57    61     1     0     0
SMALL
bcc


@<TRIPOS>ATOM
      1 C24        -0.3920    0.5780    0.0960 c3        1 1K3      0.112700
      2 O1          1.0300    0.5200    0.0880 os        1 1K3     -0.323900
      3 C10         1.6430    0.3700    1.3150 ca        1 1K3      0.142100
      4 C9          3.0500    0.3440    1.2750 ca        1 1K3     -0.187500
      5 C8          3.7640    0.1960    2.4570 ca        1 1K3     -0.060000
      6 C11         0.9620    0.2470    2.5320 ca        1 1K3     -0.187500
      7 C12         1.6920    0.0970    3.7090 ca        1 1K3     -0.060000
      8 C7          3.0920    0.0680    3.6810 ca        1 1K3     -0.095000
      9 C3          3.8240   -0.1210    4.9390 cc        1 1K3      0.077700
     10 C2          3.4650   -1.1250    5.8280 cd        1 1K3     -0.190000
     11 N1          4.8920    0.7080    5.2750 na        1 1K3      0.184000
     12 N2          5.4090    1.7420    4.5920 nc        1 1K3     -0.631100
     13 C6          6.4580    2.1970    5.4050 cd        1 1K3      0.703200
     14 N3          6.5910    1.4580    6.6080 nd        1 1K3     -0.407300
     15 C4          5.6040    0.5220    6.5180 cc        1 1K3     -0.000300
     16 C5          5.2060   -0.5230    7.4070 cc        1 1K3     -0.124000
     17 C1          4.1520   -1.3230    7.0510 cd        1 1K3     -0.092000
     18 N4          7.3350    3.2200    4.9960 nh        1 1K3     -0.626600
     19 C13         8.0410    3.9610    5.9800 ca        1 1K3      0.085600
     20 C18         7.8990    5.3630    6.0540 ca        1 1K3     -0.111500
     21 C17         8.6550    6.1120    6.9420 ca        1 1K3     -0.157000
     22 C16         9.5870    5.4930    7.8090 ca        1 1K3      0.126600
     23 C15         9.7250    4.0910    7.7280 ca        1 1K3     -0.157000
     24 C14         8.9700    3.3390    6.8360 ca        1 1K3     -0.111500
     25 N5         10.2760    6.2800    8.7680 nh        1 1K3     -0.633000
     26 C22        11.0360    7.3960    8.2220 c3        1 1K3      0.184300
     27 C21        11.5900    8.3230    9.3220 c3        1 1K3      0.165300
     28 N6         12.3220    7.6040   10.3550 n3        1 1K3     -0.732600
     29 C23        12.8150    8.4790   11.3940 c3        1 1K3      0.157100
     30 C20        11.5620    6.4820   10.8870 c3        1 1K3      0.165300
     31 C19        11.0120    5.5510    9.7870 c3        1 1K3      0.184300
     32 H1         -0.6520    0.7120   -0.9840 h1        1 1K3      0.046033
     33 H2         -0.8220   -0.3750    0.4900 h1        1 1K3      0.046033
     34 H3         -0.7480    1.4480    0.6990 h1        1 1K3      0.046033
     35 H4          3.5660    0.4440    0.3090 ha        1 1K3      0.148000
     36 H5          4.8650    0.1790    2.4230 ha        1 1K3      0.146000
     37 H6         -0.1360    0.2700    2.5740 ha        1 1K3      0.148000
     38 H7          1.1610    0.0040    4.6690 ha        1 1K3      0.146000
     39 H8          2.6260   -1.7860    5.5640 ha        1 1K3      0.155000
     40 H9          5.7620   -0.6450    8.3470 ha        1 1K3      0.166000
     41 H10         3.8210   -2.1370    7.7140 ha        1 1K3      0.144000
     42 H11         6.9360    3.8030    4.2840 hn        1 1K3      0.420800
     43 H12         7.1800    5.8840    5.4020 ha        1 1K3      0.143500
     44 H13         8.5030    7.2020    6.9760 ha        1 1K3      0.136000
     45 H14        10.4400    3.5580    8.3730 ha        1 1K3      0.136000
     46 H15         9.1120    2.2470    6.8060 ha        1 1K3      0.143500
     47 H16        10.3580    8.0110    7.5680 h1        1 1K3      0.044200
     48 H17        11.8960    7.0320    7.5880 h1        1 1K3      0.044200
     49 H18        10.7360    8.9220    9.7550 h1        1 1K3      0.038450
     50 H19        12.3050    9.0420    8.8330 h1        1 1K3      0.038450
     51 H21        11.9980    8.9870   11.9770 h1        1 1K3      0.032700
     52 H22        13.4390    7.8780   12.1050 h1        1 1K3      0.032700
     53 H23        13.4600    9.2680   10.9240 h1        1 1K3      0.032700
     54 H24        12.2560    5.8720   11.5320 h1        1 1K3      0.038450
     55 H25        10.7030    6.8270   11.5330 h1        1 1K3      0.038450
     56 H26        10.3080    4.8220   10.2760 h1        1 1K3      0.044200
     57 H27        11.8740    4.9710    9.3440 h1        1 1K3      0.044200
@<TRIPOS>BOND
     1    1    2 1   
     2    1   32 1   
     3    1   33 1   
     4    1   34 1   
     5    2    3 1   
     6    3    4 ar  
     7    3    6 ar  
     8    4    5 ar  
     9    4   35 1   
    10    5    8 ar  
    11    5   36 1   
    12    6    7 ar  
    13    6   37 1   
    14    7    8 ar  
    15    7   38 1   
    16    8    9 1   
    17    9   10 2   
    18    9   11 1   
    19   10   17 1   
    20   10   39 1   
    21   11   12 1   
    22   11   15 1   
    23   12   13 2   
    24   13   14 1   
    25   13   18 1   
    26   14   15 2   
    27   15   16 1   
    28   16   17 2   
    29   16   40 1   
    30   17   41 1   
    31   18   19 1   
    32   18   42 1   
    33   19   20 ar  
    34   19   24 ar  
    35   20   21 ar  
    36   20   43 1   
    37   21   22 ar  
    38   21   44 1   
    39   22   23 ar  
    40   22   25 1   
    41   23   24 ar  
    42   23   45 1   
    43   24   46 1   
    44   25   26 1   
    45   25   31 1   
    46   26   27 1   
    47   26   47 1   
    48   26   48 1   
    49   27   28 1   
    50   27   49 1   
    51   27   50 1   
    52   28   29 1   
    53   28   30 1   
    54   29   51 1   
    55   29   52 1   
    56   29   53 1   
    57   30   31 1   
    58   30   54 1   
    59   30   55 1   
    60   31   56 1   
    61   31   57 1   
@<TRIPOS>SUBSTRUCTURE
     1 1K3         1 TEMP              0 ****  ****    0 ROOT
