@<TRIPOS>MOLECULE
1K3
   57    61     1     0     0
SMALL
bcc


@<TRIPOS>ATOM
      1 C24        -8.9620   -2.4570   -1.0160 c3        1 1K3      0.112700
      2 O1         -8.0430   -2.3730    0.0670 os        1 1K3     -0.323900
      3 C10        -7.0620   -1.4080   -0.0380 ca        1 1K3      0.142100
      4 C9         -6.1530   -1.3690    1.0360 ca        1 1K3     -0.187500
      5 C8         -5.1270   -0.4330    1.0290 ca        1 1K3     -0.060000
      6 C11        -6.9410   -0.5120   -1.1080 ca        1 1K3     -0.187500
      7 C12        -5.9090    0.4230   -1.0990 ca        1 1K3     -0.060000
      8 C7         -4.9990    0.4710   -0.0360 ca        1 1K3     -0.095000
      9 C3         -3.9410    1.4900   -0.0500 cc        1 1K3      0.077700
     10 C2         -4.2370    2.8170   -0.3270 cd        1 1K3     -0.190000
     11 N1         -2.6160    1.1470    0.2060 na        1 1K3      0.184000
     12 N2         -2.0920   -0.0580    0.4810 nc        1 1K3     -0.631100
     13 C6         -0.7210    0.1960    0.6450 cd        1 1K3      0.703200
     14 N3         -0.3820    1.5600    0.4550 nd        1 1K3     -0.407300
     15 C4         -1.5800    2.1520    0.1820 cc        1 1K3     -0.000300
     16 C5         -1.9210    3.5090   -0.1060 cc        1 1K3     -0.124000
     17 C1         -3.2330    3.8170   -0.3540 cd        1 1K3     -0.092000
     18 N4          0.1840   -0.8020    1.0520 nh        1 1K3     -0.626600
     19 C13         1.5630   -0.6520    0.7470 ca        1 1K3      0.085600
     20 C18         2.2340   -1.6350   -0.0130 ca        1 1K3     -0.111500
     21 C17         3.6000   -1.5540   -0.2350 ca        1 1K3     -0.157000
     22 C16         4.3620   -0.4810    0.2830 ca        1 1K3      0.126600
     23 C15         3.6840    0.4950    1.0430 ca        1 1K3     -0.157000
     24 C14         2.3150    0.4150    1.2710 ca        1 1K3     -0.111500
     25 N5          5.7400   -0.3830   -0.0430 nh        1 1K3     -0.633000
     26 C22         6.5430   -1.5470    0.3070 c3        1 1K3      0.184300
     27 C21         7.9770   -1.4590   -0.2520 c3        1 1K3      0.165300
     28 N6          8.6400   -0.2060    0.0780 n3        1 1K3     -0.732600
     29 C23         9.9740   -0.1260   -0.4720 c3        1 1K3      0.157100
     30 C20         7.8270    0.9530   -0.2620 c3        1 1K3      0.165300
     31 C19         6.3940    0.8680    0.3020 c3        1 1K3      0.184300
     32 H1         -9.6370   -3.2990   -0.7190 h1        1 1K3      0.046033
     33 H2         -9.5400   -1.5060   -1.1170 h1        1 1K3      0.046033
     34 H3         -8.4300   -2.6950   -1.9690 h1        1 1K3      0.046033
     35 H4         -6.2640   -2.0820    1.8650 ha        1 1K3      0.148000
     36 H5         -4.4150   -0.4070    1.8690 ha        1 1K3      0.146000
     37 H6         -7.6440   -0.5370   -1.9520 ha        1 1K3      0.148000
     38 H7         -5.8060    1.1260   -1.9400 ha        1 1K3      0.146000
     39 H8         -5.2830    3.0940   -0.5240 ha        1 1K3      0.155000
     40 H9         -1.1160    4.2560   -0.1180 ha        1 1K3      0.166000
     41 H10        -3.5290    4.8540   -0.5780 ha        1 1K3      0.144000
     42 H11        -0.1570   -1.7270    0.8650 hn        1 1K3      0.420800
     43 H12         1.6780   -2.4840   -0.4400 ha        1 1K3      0.143500
     44 H13         4.0820   -2.3350   -0.8440 ha        1 1K3      0.136500
     45 H14         4.2280    1.3490    1.4770 ha        1 1K3      0.136500
     46 H15         1.8280    1.2000    1.8710 ha        1 1K3      0.143500
     47 H16         6.5980   -1.6810    1.4260 h1        1 1K3      0.044200
     48 H17         6.0620   -2.4640   -0.1310 h1        1 1K3      0.044200
     49 H18         8.5740   -2.2950    0.2100 h1        1 1K3      0.038450
     50 H19         7.9420   -1.6330   -1.3670 h1        1 1K3      0.038450
     51 H21         9.9950   -0.1290   -1.5970 h1        1 1K3      0.032700
     52 H22        10.4570    0.8190   -0.1100 h1        1 1K3      0.032700
     53 H23        10.5700   -1.0010   -0.1030 h1        1 1K3      0.032700
     54 H24         8.3170    1.8600    0.1900 h1        1 1K3      0.038450
     55 H25         7.7680    1.1090   -1.3780 h1        1 1K3      0.038450
     56 H26         5.7990    1.7120   -0.1480 h1        1 1K3      0.044200
     57 H27         6.4390    1.0210    1.4200 h1        1 1K3      0.044200
@<TRIPOS>BOND
     1    1    2 1   
     2    1   32 1   
     3    1   33 1   
     4    1   34 1   
     5    2    3 1   
     6    3    4 ar  
     7    3    6 ar  
     8    4    5 ar  
     9    4   35 1   
    10    5    8 ar  
    11    5   36 1   
    12    6    7 ar  
    13    6   37 1   
    14    7    8 ar  
    15    7   38 1   
    16    8    9 1   
    17    9   10 2   
    18    9   11 1   
    19   10   17 1   
    20   10   39 1   
    21   11   12 1   
    22   11   15 1   
    23   12   13 2   
    24   13   14 1   
    25   13   18 1   
    26   14   15 2   
    27   15   16 1   
    28   16   17 2   
    29   16   40 1   
    30   17   41 1   
    31   18   19 1   
    32   18   42 1   
    33   19   20 ar  
    34   19   24 ar  
    35   20   21 ar  
    36   20   43 1   
    37   21   22 ar  
    38   21   44 1   
    39   22   23 ar  
    40   22   25 1   
    41   23   24 ar  
    42   23   45 1   
    43   24   46 1   
    44   25   26 1   
    45   25   31 1   
    46   26   27 1   
    47   26   47 1   
    48   26   48 1   
    49   27   28 1   
    50   27   49 1   
    51   27   50 1   
    52   28   29 1   
    53   28   30 1   
    54   29   51 1   
    55   29   52 1   
    56   29   53 1   
    57   30   31 1   
    58   30   54 1   
    59   30   55 1   
    60   31   56 1   
    61   31   57 1   
@<TRIPOS>SUBSTRUCTURE
     1 1K3         1 TEMP              0 ****  ****    0 ROOT
