@<TRIPOS>MOLECULE
1K4
   46    45     1     0     0
SMALL
bcc


@<TRIPOS>ATOM
      1 OXT        -0.6690    0.9630   -2.3640 o         1 1K4     -0.766300
      2 C          -0.0660    0.2740   -1.4980 c         1 1K4      0.927600
      3 O          -0.4760   -0.1940   -0.4240 o         1 1K4     -0.766300
      4 CA          1.4640   -0.0560   -1.8380 c3        1 1K4     -0.049500
      5 CB          2.3290    0.7150   -0.8550 c3        1 1K4     -0.128400
      6 CAG         3.8180    0.4980   -1.0490 c3        1 1K4      0.105400
      7 OAD         4.3040    1.2410   -2.1580 oh        1 1K4     -0.630800
      8 N           1.7560    0.3040   -3.2690 ny        1 1K4     -0.670800
      9 CAQ         1.4720   -0.8430   -4.1900 c         1 1K4      0.560100
     10 OAB         2.4320   -1.5420   -4.4960 o         1 1K4     -0.471100
     11 CAN         0.0500   -0.9840   -4.6470 c3        1 1K4     -0.167400
     12 CAM        -0.2150   -2.3780   -5.1760 c3        1 1K4     -0.076400
     13 CAL        -1.6330   -2.4820   -5.6960 c3        1 1K4     -0.080400
     14 CAK        -1.9180   -3.8750   -6.2140 c3        1 1K4     -0.078400
     15 CAJ        -3.3330   -3.9830   -6.7390 c3        1 1K4     -0.079400
     16 CAI        -3.6210   -5.3760   -7.2580 c3        1 1K4     -0.078400
     17 CAH        -5.0360   -5.4840   -7.7830 c3        1 1K4     -0.079400
     18 CAF        -5.3260   -6.8760   -8.3030 c3        1 1K4     -0.080400
     19 CAA        -6.7340   -6.9890   -8.8270 c3        1 1K4     -0.093100
     20 H2          1.6300   -1.1610   -1.7160 hx        1 1K4      0.091700
     21 H3          2.0920    1.8100   -0.9110 hc        1 1K4      0.089700
     22 H4          2.0210    0.3570    0.1670 hc        1 1K4      0.089700
     23 H5          4.3760    0.7800   -0.1170 h1        1 1K4      0.061200
     24 H6          4.0490   -0.5720   -1.3040 h1        1 1K4      0.061200
     25 H7          4.3560    2.1650   -1.8880 ho        1 1K4      0.411000
     26 H8          2.7320    0.6090   -3.3680 hn        1 1K4      0.467800
     27 H9         -0.6600   -0.7380   -3.8000 hc        1 1K4      0.121200
     28 H10        -0.1270   -0.2190   -5.4530 hc        1 1K4      0.121200
     29 H11         0.5140   -2.6200   -5.9940 hc        1 1K4      0.057700
     30 H12        -0.0550   -3.1280   -4.3570 hc        1 1K4      0.057700
     31 H13        -2.3550   -2.2290   -4.8750 hc        1 1K4      0.050200
     32 H14        -1.7900   -1.7340   -6.5180 hc        1 1K4      0.050200
     33 H15        -1.1920   -4.1300   -7.0320 hc        1 1K4      0.042200
     34 H16        -1.7640   -4.6220   -5.3910 hc        1 1K4      0.042200
     35 H17        -4.0580   -3.7290   -5.9210 hc        1 1K4      0.042200
     36 H18        -3.4880   -3.2360   -7.5610 hc        1 1K4      0.042200
     37 H19        -3.4670   -6.1230   -6.4350 hc        1 1K4      0.039700
     38 H20        -2.8960   -5.6300   -8.0750 hc        1 1K4      0.039700
     39 H21        -5.1910   -4.7370   -8.6050 hc        1 1K4      0.040700
     40 H22        -5.7610   -5.2300   -6.9650 hc        1 1K4      0.040700
     41 H23        -4.5980   -7.1290   -9.1190 hc        1 1K4      0.038200
     42 H24        -5.1690   -7.6220   -7.4790 hc        1 1K4      0.038200
     43 H25        -7.4740   -6.7650   -8.0210 hc        1 1K4      0.033033
     44 H26        -6.9010   -6.2700   -9.6650 hc        1 1K4      0.033033
     45 H27        -6.9260   -8.0220   -9.2050 hc        1 1K4      0.033033
     46 H28         1.1020    1.0800   -3.4940 hn        1 1K4      0.467800
@<TRIPOS>BOND
     1    1    2 1   
     2    2    3 1   
     3    2    4 1   
     4    4    5 1   
     5    4    8 1   
     6    4   20 1   
     7    5    6 1   
     8    5   21 1   
     9    5   22 1   
    10    6    7 1   
    11    6   23 1   
    12    6   24 1   
    13    7   25 1   
    14    8    9 1   
    15    8   26 1   
    16    8   46 1   
    17    9   10 2   
    18    9   11 1   
    19   11   12 1   
    20   11   27 1   
    21   11   28 1   
    22   12   13 1   
    23   12   29 1   
    24   12   30 1   
    25   13   14 1   
    26   13   31 1   
    27   13   32 1   
    28   14   15 1   
    29   14   33 1   
    30   14   34 1   
    31   15   16 1   
    32   15   35 1   
    33   15   36 1   
    34   16   17 1   
    35   16   37 1   
    36   16   38 1   
    37   17   18 1   
    38   17   39 1   
    39   17   40 1   
    40   18   19 1   
    41   18   41 1   
    42   18   42 1   
    43   19   43 1   
    44   19   44 1   
    45   19   45 1   
@<TRIPOS>SUBSTRUCTURE
     1 1K4         1 TEMP              0 ****  ****    0 ROOT
