@<TRIPOS>MOLECULE
1K4
   45    43     1     0     0
SMALL
bcc


@<TRIPOS>ATOM
      1 OXT        -0.7010   -5.7610    1.7370 o         1 1K4     -0.800000
      2 C           0.3620   -5.5830    1.0850 c1        1 1K4      0.794000
      3 O           1.4780   -5.7560    1.6420 o         1 1K4     -0.800000
      4 CA          0.2980   -5.1800   -0.3710 c2        1 1K4      0.132500
      5 CB          0.9670   -6.2400   -1.2170 c3        1 1K4     -0.170700
      6 CAG        -0.0710   -7.2300   -1.7000 c3        1 1K4      0.110400
      7 OAD         0.5750   -8.3560   -2.2510 oh        1 1K4     -0.629800
      8 N           0.9660   -3.9400   -0.5490 n         1 1K4     -0.479500
      9 CAQ         0.3260   -2.7300   -0.1790 c         1 1K4      0.641100
     10 OAB        -0.7280   -2.7600    0.4250 o         1 1K4     -0.652100
     11 CAN         0.9360   -1.4010   -0.5690 c3        1 1K4     -0.156400
     12 CAM         0.4530   -0.3260    0.3800 c3        1 1K4     -0.083400
     13 CAL         0.5210    1.0200   -0.3070 c3        1 1K4     -0.076400
     14 CAK         0.3100    2.1170    0.7130 c3        1 1K4     -0.081400
     15 CAJ         0.0150    3.4180    0.0000 c3        1 1K4     -0.077400
     16 CAI        -0.1760    4.5200    1.0200 c3        1 1K4     -0.080400
     17 CAH        -0.8530    5.7020    0.3630 c3        1 1K4     -0.078400
     18 CAF        -1.0710    6.7920    1.3900 c3        1 1K4     -0.081400
     19 CAA        -1.8030    7.9500    0.7480 c3        1 1K4     -0.091100
     20 H2         -0.6370   -5.0880   -0.6430 h4        1 1K4     -0.024200
     21 H3          1.3980   -5.8180   -1.9870 hc        1 1K4      0.033700
     22 H4          1.6390   -6.7070   -0.6820 hc        1 1K4      0.033700
     23 H5         -0.6300   -7.5100   -0.9460 h1        1 1K4      0.066200
     24 H6         -0.6320   -6.8080   -2.3830 h1        1 1K4      0.066200
     25 H7          0.0060   -8.7970   -2.7730 ho        1 1K4      0.391000
     26 H8          1.7980   -3.9200   -0.9240 hn        1 1K4      0.323500
     27 H9          0.6680   -1.1750   -1.4820 hc        1 1K4      0.053700
     28 H10         1.9110   -1.4640   -0.5220 hc        1 1K4      0.053700
     29 H11        -0.4710   -0.5130    0.6410 hc        1 1K4      0.058200
     30 H12         1.0210   -0.3160    1.1770 hc        1 1K4      0.058200
     31 H13        -0.1750    1.0730   -0.9910 hc        1 1K4      0.033200
     32 H14         1.3990    1.1290   -0.7250 hc        1 1K4      0.033200
     33 H15        -0.4430    1.8840    1.2920 hc        1 1K4      0.044700
     34 H16         1.1190    2.2190    1.2550 hc        1 1K4      0.044700
     35 H17         0.7620    3.6440   -0.5880 hc        1 1K4      0.035200
     36 H18        -0.8010    3.3210   -0.5310 hc        1 1K4      0.035200
     37 H19        -0.7320    4.1920    1.7540 hc        1 1K4      0.041200
     38 H20         0.6950    4.7950    1.3690 hc        1 1K4      0.041200
     39 H21        -0.2880    6.0430   -0.3580 hc        1 1K4      0.036700
     40 H22        -1.7160    5.4220   -0.0030 hc        1 1K4      0.036700
     41 H23        -1.6040    6.4400    2.1310 hc        1 1K4      0.039200
     42 H24        -0.2060    7.1000    1.7270 hc        1 1K4      0.039200
     43 H25        -2.6220    7.6220    0.3210 hc        1 1K4      0.029367
     44 H26        -2.0340    8.6110    1.4340 hc        1 1K4      0.029367
     45 H27        -1.2270    8.3670    0.0740 hc        1 1K4      0.029367
@<TRIPOS>BOND
     1    1    2 2   
     2    2    3 2   
     3    4    5 1   
     4    4    8 2   
     5    4   20 1   
     6    5    6 1   
     7    5   21 1   
     8    5   22 1   
     9    6    7 1   
    10    6   23 1   
    11    6   24 1   
    12    7   25 1   
    13    8    9 1   
    14    8   26 1   
    15    9   10 2   
    16    9   11 1   
    17   11   12 1   
    18   11   27 1   
    19   11   28 1   
    20   12   13 1   
    21   12   29 1   
    22   12   30 1   
    23   13   14 1   
    24   13   31 1   
    25   13   32 1   
    26   14   15 1   
    27   14   33 1   
    28   14   34 1   
    29   15   16 1   
    30   15   35 1   
    31   15   36 1   
    32   16   17 1   
    33   16   37 1   
    34   16   38 1   
    35   17   18 1   
    36   17   39 1   
    37   17   40 1   
    38   18   19 1   
    39   18   41 1   
    40   18   42 1   
    41   19   43 1   
    42   19   44 1   
    43   19   45 1   
@<TRIPOS>SUBSTRUCTURE
     1 1K4         1 TEMP              0 ****  ****    0 ROOT
