@<TRIPOS>MOLECULE
1K4
   46    45     1     0     0
SMALL
bcc


@<TRIPOS>ATOM
      1 OXT        -0.7140    0.8720   -2.2370 o         1 1K4     -0.766300
      2 C          -0.0580    0.1710   -1.4200 c         1 1K4      0.927600
      3 O          -0.4160   -0.3550   -0.3540 o         1 1K4     -0.766300
      4 CA          1.4710   -0.0860   -1.8210 c3        1 1K4     -0.049500
      5 CB          2.3390    0.6750   -0.8340 c3        1 1K4     -0.128400
      6 CAG         3.8280    0.5240   -1.0830 c3        1 1K4      0.105400
      7 OAD         4.2500    1.3290   -2.1740 oh        1 1K4     -0.630800
      8 N           1.7030    0.3430   -3.2440 n4        1 1K4     -0.670800
      9 CAQ         1.4310   -0.7750   -4.2030 c         1 1K4      0.560100
     10 OAB         2.4060   -1.4240   -4.5680 o         1 1K4     -0.471100
     11 CAN         0.0010   -0.9510   -4.6210 c3        1 1K4     -0.167400
     12 CAM        -0.2290   -2.3320   -5.1990 c3        1 1K4     -0.076400
     13 CAL        -1.6590   -2.4680   -5.6790 c3        1 1K4     -0.080400
     14 CAK        -1.9100   -3.8490   -6.2460 c3        1 1K4     -0.078400
     15 CAJ        -3.3370   -3.9890   -6.7300 c3        1 1K4     -0.079400
     16 CAI        -3.5900   -5.3700   -7.2960 c3        1 1K4     -0.078400
     17 CAH        -5.0170   -5.5110   -7.7810 c3        1 1K4     -0.079400
     18 CAF        -5.2720   -6.8910   -8.3480 c3        1 1K4     -0.080400
     19 CAA        -6.6920   -7.0360   -8.8320 c3        1 1K4     -0.093100
     20 H2          1.6810   -1.1880   -1.7510 hx        1 1K4      0.091700
     21 H3          2.0610    1.7620   -0.8360 hc        1 1K4      0.089700
     22 H4          2.0780    0.2650    0.1810 hc        1 1K4      0.089700
     23 H5          4.4060    0.7890   -0.1580 h1        1 1K4      0.061200
     24 H6          4.0890   -0.5250   -1.3900 h1        1 1K4      0.061200
     25 H7          4.2770    2.2430   -1.8670 ho        1 1K4      0.411000
     26 H8          2.6630    0.6880   -3.3600 hn        1 1K4      0.467800
     27 H9         -0.6890   -0.7670   -3.7420 hc        1 1K4      0.121200
     28 H10        -0.2310   -0.1610   -5.3880 hc        1 1K4      0.121200
     29 H11         0.4800   -2.5130   -6.0490 hc        1 1K4      0.057700
     30 H12        -0.0160   -3.1070   -4.4180 hc        1 1K4      0.057700
     31 H13        -2.3630   -2.2760   -4.8250 hc        1 1K4      0.050200
     32 H14        -1.8710   -1.6940   -6.4640 hc        1 1K4      0.050200
     33 H15        -1.2030   -4.0420   -7.0950 hc        1 1K4      0.042200
     34 H16        -1.7020   -4.6220   -5.4590 hc        1 1K4      0.042200
     35 H17        -4.0430   -3.7960   -5.8800 hc        1 1K4      0.042200
     36 H18        -3.5460   -3.2160   -7.5150 hc        1 1K4      0.042200
     37 H19        -3.3820   -6.1430   -6.5100 hc        1 1K4      0.039700
     38 H20        -2.8830   -5.5640   -8.1460 hc        1 1K4      0.039700
     39 H21        -5.2260   -4.7380   -8.5670 hc        1 1K4      0.040700
     40 H22        -5.7240   -5.3170   -6.9320 hc        1 1K4      0.040700
     41 H23        -4.5630   -7.0830   -9.1960 hc        1 1K4      0.038200
     42 H24        -5.0620   -7.6630   -7.5610 hc        1 1K4      0.038200
     43 H25        -7.4130   -6.8720   -7.9950 hc        1 1K4      0.033033
     44 H26        -6.9130   -6.2910   -9.6350 hc        1 1K4      0.033033
     45 H27        -6.8590   -8.0600   -9.2460 hc        1 1K4      0.033033
     46 H28         1.0140    1.1030   -3.4160 hn        1 1K4      0.467800
@<TRIPOS>BOND
     1    1    2 1   
     2    2    3 1   
     3    2    4 1   
     4    4    5 1   
     5    4    8 1   
     6    4   20 1   
     7    5    6 1   
     8    5   21 1   
     9    5   22 1   
    10    6    7 1   
    11    6   23 1   
    12    6   24 1   
    13    7   25 1   
    14    8    9 1   
    15    8   26 1   
    16    8   46 1   
    17    9   10 2   
    18    9   11 1   
    19   11   12 1   
    20   11   27 1   
    21   11   28 1   
    22   12   13 1   
    23   12   29 1   
    24   12   30 1   
    25   13   14 1   
    26   13   31 1   
    27   13   32 1   
    28   14   15 1   
    29   14   33 1   
    30   14   34 1   
    31   15   16 1   
    32   15   35 1   
    33   15   36 1   
    34   16   17 1   
    35   16   37 1   
    36   16   38 1   
    37   17   18 1   
    38   17   39 1   
    39   17   40 1   
    40   18   19 1   
    41   18   41 1   
    42   18   42 1   
    43   19   43 1   
    44   19   44 1   
    45   19   45 1   
@<TRIPOS>SUBSTRUCTURE
     1 1K4         1 TEMP              0 ****  ****    0 ROOT
