@<TRIPOS>MOLECULE
1K4
   45    44     1     0     0
SMALL
bcc


@<TRIPOS>ATOM
      1 OXT        -2.3770   -2.4490    0.2210 o         1 1K4     -0.829800
      2 C          -3.3280   -1.8380    0.7850 c         1 1K4      0.913600
      3 O          -4.1810   -2.3640    1.5450 o         1 1K4     -0.829800
      4 CA         -3.4730   -0.2860    0.5480 c3        1 1K4     -0.049300
      5 CB         -4.8010   -0.0380   -0.1760 c3        1 1K4     -0.071400
      6 CAG        -5.2580    1.3970    0.0070 c3        1 1K4      0.121400
      7 OAD        -6.3680    1.6170   -0.8590 oh        1 1K4     -0.617800
      8 N          -2.3260    0.2510   -0.1590 n         1 1K4     -0.513900
      9 CAQ        -1.7310    1.4410    0.1540 c         1 1K4      0.640100
     10 OAB        -2.2830    2.3280    0.8490 o         1 1K4     -0.665100
     11 CAN        -0.3600    1.7180   -0.4540 c3        1 1K4     -0.156400
     12 CAM         0.6950    0.7980    0.1210 c3        1 1K4     -0.083400
     13 CAL         2.0690    1.1540   -0.4080 c3        1 1K4     -0.076400
     14 CAK         3.1260    0.2280    0.1550 c3        1 1K4     -0.081400
     15 CAJ         4.5010    0.5780   -0.3720 c3        1 1K4     -0.077400
     16 CAI         5.5580   -0.3490    0.1910 c3        1 1K4     -0.080400
     17 CAH         6.9330   -0.0020   -0.3360 c3        1 1K4     -0.078400
     18 CAF         7.9900   -0.9280    0.2270 c3        1 1K4     -0.081400
     19 CAA         9.3620   -0.5860   -0.2950 c3        1 1K4     -0.091100
     20 H2         -3.5320    0.2000    1.5650 h1        1 1K4      0.057700
     21 H3         -4.7160   -0.2710   -1.2680 hc        1 1K4      0.061200
     22 H4         -5.5600   -0.7370    0.2640 hc        1 1K4      0.061200
     23 H5         -5.5750    1.5750    1.0710 h1        1 1K4      0.026700
     24 H6         -4.4330    2.1170   -0.2440 h1        1 1K4      0.026700
     25 H7         -6.6170    2.5390   -0.7430 ho        1 1K4      0.378000
     26 H8         -1.7630   -0.4600   -0.5860 hn        1 1K4      0.325500
     27 H9         -0.4090    1.6010   -1.5680 hc        1 1K4      0.053700
     28 H10        -0.1000    2.7860   -0.2330 hc        1 1K4      0.053700
     29 H11         0.6900    0.8770    1.2400 hc        1 1K4      0.058700
     30 H12         0.4600   -0.2690   -0.1360 hc        1 1K4      0.058700
     31 H13         2.0700    1.0880   -1.5280 hc        1 1K4      0.032700
     32 H14         2.3150    2.2140   -0.1380 hc        1 1K4      0.032700
     33 H15         3.1240    0.2930    1.2750 hc        1 1K4      0.045200
     34 H16         2.8770   -0.8330   -0.1140 hc        1 1K4      0.045200
     35 H17         4.5030    0.5130   -1.4920 hc        1 1K4      0.034700
     36 H18         4.7500    1.6380   -0.1020 hc        1 1K4      0.034700
     37 H19         5.5560   -0.2850    1.3110 hc        1 1K4      0.041200
     38 H20         5.3080   -1.4100   -0.0790 hc        1 1K4      0.041200
     39 H21         6.9350   -0.0660   -1.4560 hc        1 1K4      0.036700
     40 H22         7.1820    1.0590   -0.0660 hc        1 1K4      0.036700
     41 H23         7.9850   -0.8640    1.3470 hc        1 1K4      0.038700
     42 H24         7.7380   -1.9880   -0.0430 hc        1 1K4      0.038700
     43 H25         9.3920   -0.6690   -1.4080 hc        1 1K4      0.029367
     44 H26         9.6400    0.4590   -0.0150 hc        1 1K4      0.029367
     45 H27        10.1250   -1.2810    0.1320 hc        1 1K4      0.029367
@<TRIPOS>BOND
     1    1    2 1   
     2    2    3 1   
     3    2    4 1   
     4    4    5 1   
     5    4    8 1   
     6    4   20 1   
     7    5    6 1   
     8    5   21 1   
     9    5   22 1   
    10    6    7 1   
    11    6   23 1   
    12    6   24 1   
    13    7   25 1   
    14    8    9 1   
    15    8   26 1   
    16    9   10 2   
    17    9   11 1   
    18   11   12 1   
    19   11   27 1   
    20   11   28 1   
    21   12   13 1   
    22   12   29 1   
    23   12   30 1   
    24   13   14 1   
    25   13   31 1   
    26   13   32 1   
    27   14   15 1   
    28   14   33 1   
    29   14   34 1   
    30   15   16 1   
    31   15   35 1   
    32   15   36 1   
    33   16   17 1   
    34   16   37 1   
    35   16   38 1   
    36   17   18 1   
    37   17   39 1   
    38   17   40 1   
    39   18   19 1   
    40   18   41 1   
    41   18   42 1   
    42   19   43 1   
    43   19   44 1   
    44   19   45 1   
@<TRIPOS>SUBSTRUCTURE
     1 1K4         1 TEMP              0 ****  ****    0 ROOT
