@<TRIPOS>MOLECULE
1K4
   46    45     1     0     0
SMALL
bcc


@<TRIPOS>ATOM
      1 OXT        -0.6950    0.9530   -2.3450 o         1 1K4     -0.766300
      2 C          -0.0920    0.2640   -1.4790 c         1 1K4      0.927600
      3 O          -0.5040   -0.2090   -0.4080 o         1 1K4     -0.766300
      4 CA          1.4400   -0.0580   -1.8150 c3        1 1K4     -0.049500
      5 CB          2.2980    0.7130   -0.8260 c3        1 1K4     -0.128400
      6 CAG         3.7890    0.5030   -1.0150 c3        1 1K4      0.105400
      7 OAD         4.2760    1.2530   -2.1200 oh        1 1K4     -0.630800
      8 N           1.7360    0.3080   -3.2440 n4        1 1K4     -0.670800
      9 CAQ         1.4600   -0.8360   -4.1690 c         1 1K4      0.560100
     10 OAB         2.4250   -1.5300   -4.4750 o         1 1K4     -0.471100
     11 CAN         0.0410   -0.9810   -4.6330 c3        1 1K4     -0.167400
     12 CAM        -0.2150   -2.3740   -5.1700 c3        1 1K4     -0.076400
     13 CAL        -1.6310   -2.4810   -5.6960 c3        1 1K4     -0.080400
     14 CAK        -1.9070   -3.8730   -6.2230 c3        1 1K4     -0.078400
     15 CAJ        -3.3200   -3.9850   -6.7550 c3        1 1K4     -0.079400
     16 CAI        -3.5980   -5.3760   -7.2820 c3        1 1K4     -0.078400
     17 CAH        -5.0110   -5.4880   -7.8150 c3        1 1K4     -0.079400
     18 CAF        -5.2910   -6.8790   -8.3430 c3        1 1K4     -0.080400
     19 CAA        -6.6960   -6.9950   -8.8750 c3        1 1K4     -0.093100
     20 H2          1.6110   -1.1630   -1.6960 hx        1 1K4      0.091700
     21 H3          1.9880    0.3500    0.1940 hc        1 1K4      0.089700
     22 H4          2.0570    1.8070   -0.8780 hc        1 1K4      0.089700
     23 H5          4.0260   -0.5640   -1.2730 h1        1 1K4      0.061200
     24 H6          4.3430    0.7850   -0.0800 h1        1 1K4      0.061200
     25 H7          4.3240    2.1760   -1.8450 ho        1 1K4      0.411000
     26 H8          2.7110    0.6180   -3.3370 hn        1 1K4      0.467800
     27 H9         -0.6730   -0.7430   -3.7860 hc        1 1K4      0.121200
     28 H10        -0.1370   -0.2130   -5.4350 hc        1 1K4      0.121200
     29 H11         0.5180   -2.6090   -5.9860 hc        1 1K4      0.057700
     30 H12        -0.0560   -3.1270   -4.3530 hc        1 1K4      0.057700
     31 H13        -2.3580   -2.2360   -4.8760 hc        1 1K4      0.050200
     32 H14        -1.7880   -1.7300   -6.5150 hc        1 1K4      0.050200
     33 H15        -1.1770   -4.1200   -7.0380 hc        1 1K4      0.042200
     34 H16        -1.7540   -4.6230   -5.4020 hc        1 1K4      0.042200
     35 H17        -3.4740   -3.2340   -7.5740 hc        1 1K4      0.042200
     36 H18        -4.0490   -3.7390   -5.9380 hc        1 1K4      0.042200
     37 H19        -3.4450   -6.1270   -6.4630 hc        1 1K4      0.039700
     38 H20        -2.8680   -5.6230   -8.0970 hc        1 1K4      0.039700
     39 H21        -5.7410   -5.2420   -7.0000 hc        1 1K4      0.040700
     40 H22        -5.1650   -4.7370   -8.6340 hc        1 1K4      0.040700
     41 H23        -4.5590   -7.1240   -9.1570 hc        1 1K4      0.038200
     42 H24        -5.1360   -7.6280   -7.5230 hc        1 1K4      0.038200
     43 H25        -6.8820   -8.0270   -9.2590 hc        1 1K4      0.033033
     44 H26        -7.4410   -6.7780   -8.0720 hc        1 1K4      0.033033
     45 H27        -6.8630   -6.2730   -9.7110 hc        1 1K4      0.033033
     46 H28         1.0800    1.0830   -3.4680 hn        1 1K4      0.467800
@<TRIPOS>BOND
     1    1    2 1   
     2    2    3 1   
     3    2    4 1   
     4    4    5 1   
     5    4    8 1   
     6    4   20 1   
     7    5    6 1   
     8    5   21 1   
     9    5   22 1   
    10    6    7 1   
    11    6   23 1   
    12    6   24 1   
    13    7   25 1   
    14    8    9 1   
    15    8   26 1   
    16    8   46 1   
    17    9   10 2   
    18    9   11 1   
    19   11   12 1   
    20   11   27 1   
    21   11   28 1   
    22   12   13 1   
    23   12   29 1   
    24   12   30 1   
    25   13   14 1   
    26   13   31 1   
    27   13   32 1   
    28   14   15 1   
    29   14   33 1   
    30   14   34 1   
    31   15   16 1   
    32   15   35 1   
    33   15   36 1   
    34   16   17 1   
    35   16   37 1   
    36   16   38 1   
    37   17   18 1   
    38   17   39 1   
    39   17   40 1   
    40   18   19 1   
    41   18   41 1   
    42   18   42 1   
    43   19   43 1   
    44   19   44 1   
    45   19   45 1   
@<TRIPOS>SUBSTRUCTURE
     1 1K4         1 TEMP              0 ****  ****    0 ROOT
