@<TRIPOS>MOLECULE
1K5
   29    23     1     0     0
SMALL
bcc


@<TRIPOS>ATOM
      1 C10        -1.0610   -0.1780   -0.7380 c1        1 1K5      0.134000
      2 C13        -3.8490   -0.1780   -0.7500 c1        1 1K5     -0.146500
      3 C01         2.5740   -0.1780    0.5420 c1        1 1K5     -0.116500
      4 C02         3.2720   -0.1780    1.7430 c1        1 1K5     -0.146500
      5 C03         2.5800   -0.1780    2.9510 c1        1 1K5     -0.146500
      6 C04         1.1910   -0.1780    2.9560 c1        1 1K5     -0.116500
      7 C05         0.4840   -0.1780    1.7430 c1        1 1K5     -0.039500
      8 C06         1.1700   -0.1780    0.5460 c1        1 1K5     -0.039500
      9 N07         0.4240   -0.1780   -0.7380 n2        1 1K5     -0.169000
     10 C08        -1.0060   -0.1780    1.7460 c1        1 1K5      0.321000
     11 C09        -1.7520   -0.1780    0.4560 c1        1 1K5     -0.213000
     12 C11        -1.7620   -0.1780   -1.9540 c1        1 1K5     -0.176000
     13 C12        -3.1560   -0.1780    0.4540 c1        1 1K5     -0.057000
     14 C14        -3.1510   -0.1780   -1.9550 c1        1 1K5     -0.146500
     15 O15        -1.6110   -0.2410    2.7980 o         1 1K5     -0.372000
     16 C16         0.8980    0.8790   -1.5610 c3        1 1K5     -0.123000
     17 O17         2.1570    1.0670   -3.6000 o         1 1K5     -0.555000
     18 O18         1.6280   -0.9450   -2.9450 o         1 1K5     -0.555000
     19 C19         1.6040    0.3010   -2.7670 c2        1 1K5      0.330000
     20 H1         -4.8250   -0.1780   -0.7510 ha        1 1K5      0.119500
     21 H2          3.0590   -0.1780   -0.3050 ha        1 1K5      0.171000
     22 H3          4.2480   -0.1780    1.7390 ha        1 1K5      0.119500
     23 H4          3.0710   -0.1810    3.7950 ha        1 1K5      0.119500
     24 H5          0.7060   -0.1780    3.8040 ha        1 1K5      0.171000
     25 H6         -1.2740   -0.1780   -2.7990 ha        1 1K5      0.203000
     26 H7         -3.6450   -0.1780    1.2990 ha        1 1K5      0.139000
     27 H8         -3.6390   -0.1780   -2.8010 ha        1 1K5      0.119500
     28 H9          1.5210    1.4330   -1.0530 h1        1 1K5      0.085000
     29 H10         0.1440    1.4250   -1.8560 h1        1 1K5      0.085000
@<TRIPOS>BOND
     1    1    9 1   
     2    1   12 1   
     3    2   14 1   
     4    2   20 1   
     5    3    8 1   
     6    3   21 1   
     7    4    5 1   
     8    4   22 1   
     9    5   23 1   
    10    6    7 1   
    11    6   24 1   
    12    7    8 1   
    13    9   16 1   
    14   10   15 1   
    15   11   13 1   
    16   12   25 1   
    17   13   26 1   
    18   14   27 1   
    19   16   19 1   
    20   16   28 1   
    21   16   29 1   
    22   17   19 1   
    23   18   19 1   
@<TRIPOS>SUBSTRUCTURE
     1 1K5         1 TEMP              0 ****  ****    0 ROOT
