@<TRIPOS>MOLECULE
1K5
   29    31     1     0     0
SMALL
bcc


@<TRIPOS>ATOM
      1 C10         0.0150   -0.0130   -0.0150 ca        1 1K5      0.215600
      2 C13        -2.8030    0.1130   -0.0260 ca        1 1K5     -0.203000
      3 C01         3.4700   -0.4310    1.2430 ca        1 1K5     -0.176000
      4 C02         4.1520   -0.3920    2.4420 ca        1 1K5     -0.090000
      5 C03         3.5140    0.0080    3.6270 ca        1 1K5     -0.203000
      6 C04         2.1740    0.3430    3.6000 ca        1 1K5     -0.057000
      7 C05         1.4450    0.3120    2.3980 ca        1 1K5     -0.233600
      8 C06         2.0960   -0.0480    1.1890 ca        1 1K5      0.215600
      9 N07         1.4080   -0.0190   -0.0210 na        1 1K5     -0.490400
     10 C08         0.0140    0.6300    2.4080 c         1 1K5      0.601300
     11 C09        -0.6990    0.3470    1.1580 ca        1 1K5     -0.233600
     12 C11        -0.7250   -0.3610   -1.1830 ca        1 1K5     -0.176000
     13 C12        -2.1030    0.4140    1.1270 ca        1 1K5     -0.057000
     14 C14        -2.1040   -0.2880   -1.1760 ca        1 1K5     -0.090000
     15 O15        -0.5610    1.0900    3.4150 o         1 1K5     -0.611100
     16 C16         2.1340    0.0050   -1.2770 c3        1 1K5      0.063800
     17 O17         1.6280   -1.8710   -2.7000 o         1 1K5     -0.820300
     18 O18         3.5730   -1.9040   -1.5750 o         1 1K5     -0.820300
     19 C19         2.4680   -1.3910   -1.8930 c         1 1K5      0.910600
     20 H1         -3.9000    0.1720   -0.0450 ha        1 1K5      0.117000
     21 H2          3.9630   -0.8120    0.3240 ha        1 1K5      0.203000
     22 H3          5.2090   -0.6950    2.4710 ha        1 1K5      0.122000
     23 H4          4.0780    0.0390    4.5690 ha        1 1K5      0.117000
     24 H5          1.6420    0.6400    4.5190 ha        1 1K5      0.139000
     25 H6         -0.1850   -0.7430   -2.0740 ha        1 1K5      0.203000
     26 H7         -2.6270    0.7110    2.0500 ha        1 1K5      0.139000
     27 H8         -2.6640   -0.5640   -2.0820 ha        1 1K5      0.122000
     28 H9          3.1000    0.5580   -1.1110 h1        1 1K5      0.045700
     29 H10         1.5230    0.5840   -2.0230 h1        1 1K5      0.045700
@<TRIPOS>BOND
     1    1    9 1   
     2    1   11 ar  
     3    1   12 ar  
     4    2   13 ar  
     5    2   14 ar  
     6    2   20 1   
     7    3    4 ar  
     8    3    8 ar  
     9    3   21 1   
    10    4    5 ar  
    11    4   22 1   
    12    5    6 ar  
    13    5   23 1   
    14    6    7 ar  
    15    6   24 1   
    16    7    8 ar  
    17    7   10 1   
    18    8    9 1   
    19    9   16 1   
    20   10   11 1   
    21   10   15 2   
    22   11   13 ar  
    23   12   14 ar  
    24   12   25 1   
    25   13   26 1   
    26   14   27 1   
    27   16   19 1   
    28   16   28 1   
    29   16   29 1   
    30   17   19 1   
    31   18   19 1   
@<TRIPOS>SUBSTRUCTURE
     1 1K5         1 TEMP              0 ****  ****    0 ROOT
