@<TRIPOS>MOLECULE
1K5
   29    31     1     0     0
SMALL
bcc


@<TRIPOS>ATOM
      1 C10        -1.2000   -0.0220    0.2210 ca        1 1K5      0.215600
      2 C13        -3.6620   -1.3460   -0.1600 ca        1 1K5     -0.203000
      3 C01         2.4280    0.6850    0.0520 ca        1 1K5     -0.176000
      4 C02         3.6110    0.0090   -0.1680 ca        1 1K5     -0.090000
      5 C03         3.6370   -1.3910   -0.2820 ca        1 1K5     -0.203000
      6 C04         2.4540   -2.1020   -0.2000 ca        1 1K5     -0.057000
      7 C05         1.2300   -1.4470    0.0190 ca        1 1K5     -0.233600
      8 C06         1.2050   -0.0370    0.1810 ca        1 1K5      0.215600
      9 N07         0.0110    0.6220    0.4660 na        1 1K5     -0.490400
     10 C08        -0.0130   -2.2240    0.0580 c         1 1K5      0.601300
     11 C09        -1.2470   -1.4320    0.0610 ca        1 1K5     -0.233600
     12 C11        -2.4180    0.7150    0.1330 ca        1 1K5     -0.176000
     13 C12        -2.4860   -2.0720   -0.1170 ca        1 1K5     -0.057000
     14 C14        -3.6150    0.0530   -0.0480 ca        1 1K5     -0.090000
     15 O15        -0.0210   -3.4710    0.0670 o         1 1K5     -0.611100
     16 C16         0.0280    1.9660    1.0120 c3        1 1K5      0.063800
     17 O17        -1.1090    3.5690   -0.3790 o         1 1K5     -0.820300
     18 O18         1.1380    3.5560   -0.4170 o         1 1K5     -0.820300
     19 C19         0.0180    3.1240   -0.0360 c         1 1K5      0.910600
     20 H1         -4.6260   -1.8530   -0.2950 ha        1 1K5      0.117000
     21 H2          2.4080    1.7950    0.0730 ha        1 1K5      0.203000
     22 H3          4.5470    0.5770   -0.2710 ha        1 1K5      0.122000
     23 H4          4.5900   -1.9090   -0.4490 ha        1 1K5      0.117000
     24 H5          2.4410   -3.1990   -0.3070 ha        1 1K5      0.139000
     25 H6         -2.3830    1.8250    0.1520 ha        1 1K5      0.203000
     26 H7         -2.4900   -3.1690   -0.2240 ha        1 1K5      0.139000
     27 H8         -4.5470    0.6330   -0.1190 ha        1 1K5      0.122000
     28 H9         -0.8710    2.0830    1.6790 h1        1 1K5      0.045700
     29 H10         0.9510    2.0720    1.6480 h1        1 1K5      0.045700
@<TRIPOS>BOND
     1    1    9 1   
     2    1   11 ar  
     3    1   12 ar  
     4    2   13 ar  
     5    2   14 ar  
     6    2   20 1   
     7    3    4 ar  
     8    3    8 ar  
     9    3   21 1   
    10    4    5 ar  
    11    4   22 1   
    12    5    6 ar  
    13    5   23 1   
    14    6    7 ar  
    15    6   24 1   
    16    7    8 ar  
    17    7   10 1   
    18    8    9 1   
    19    9   16 1   
    20   10   11 1   
    21   10   15 2   
    22   11   13 ar  
    23   12   14 ar  
    24   12   25 1   
    25   13   26 1   
    26   14   27 1   
    27   16   19 1   
    28   16   28 1   
    29   16   29 1   
    30   17   19 1   
    31   18   19 1   
@<TRIPOS>SUBSTRUCTURE
     1 1K5         1 TEMP              0 ****  ****    0 ROOT
