@<TRIPOS>MOLECULE
1K5
   29    31     1     0     0
SMALL
bcc


@<TRIPOS>ATOM
      1 C10         0.0220   -0.0040   -0.0230 ca        1 1K5      0.215600
      2 C13        -2.7960    0.1370   -0.0610 ca        1 1K5     -0.203000
      3 C01         3.4620   -0.4470    1.2640 ca        1 1K5     -0.176000
      4 C02         4.1330   -0.4170    2.4700 ca        1 1K5     -0.090000
      5 C03         3.4880   -0.0190    3.6510 ca        1 1K5     -0.203000
      6 C04         2.1490    0.3240    3.6130 ca        1 1K5     -0.057000
      7 C05         1.4310    0.3020    2.4040 ca        1 1K5     -0.233600
      8 C06         2.0920   -0.0560    1.2000 ca        1 1K5      0.215600
      9 N07         1.4150   -0.0180   -0.0170 na        1 1K5     -0.490400
     10 C08         0.0020    0.6280    2.4020 c         1 1K5      0.601300
     11 C09        -0.7010    0.3550    1.1450 ca        1 1K5     -0.233600
     12 C11        -0.7100   -0.3430   -1.2000 ca        1 1K5     -0.176000
     13 C12        -2.1040    0.4290    1.1000 ca        1 1K5     -0.057000
     14 C14        -2.0870   -0.2630   -1.2050 ca        1 1K5     -0.090000
     15 O15        -0.5800    1.0870    3.4050 o         1 1K5     -0.611100
     16 C16         2.1530    0.0070   -1.2660 c3        1 1K5      0.063800
     17 O17         1.6500   -1.8610   -2.7020 o         1 1K5     -0.820300
     18 O18         3.5840   -1.9090   -1.5590 o         1 1K5     -0.820300
     19 C19         2.4840   -1.3890   -1.8850 c         1 1K5      0.910600
     20 H1         -3.8910    0.2020   -0.0890 ha        1 1K5      0.117000
     21 H2          3.9620   -0.8280    0.3490 ha        1 1K5      0.203000
     22 H3          5.1890   -0.7260    2.5080 ha        1 1K5      0.122000
     23 H4          4.0430    0.0050    4.5980 ha        1 1K5      0.117000
     24 H5          1.6110    0.6200    4.5270 ha        1 1K5      0.139000
     25 H6         -0.1630   -0.7250   -2.0880 ha        1 1K5      0.203000
     26 H7         -2.6350    0.7250    2.0200 ha        1 1K5      0.139000
     27 H8         -2.6410   -0.5310   -2.1180 ha        1 1K5      0.122000
     28 H9          3.1200    0.5540   -1.0890 h1        1 1K5      0.045700
     29 H10         1.5520    0.5930   -2.0150 h1        1 1K5      0.045700
@<TRIPOS>BOND
     1    1    9 1   
     2    1   11 ar  
     3    1   12 ar  
     4    2   13 ar  
     5    2   14 ar  
     6    2   20 1   
     7    3    4 ar  
     8    3    8 ar  
     9    3   21 1   
    10    4    5 ar  
    11    4   22 1   
    12    5    6 ar  
    13    5   23 1   
    14    6    7 ar  
    15    6   24 1   
    16    7    8 ar  
    17    7   10 1   
    18    8    9 1   
    19    9   16 1   
    20   10   11 1   
    21   10   15 2   
    22   11   13 ar  
    23   12   14 ar  
    24   12   25 1   
    25   13   26 1   
    26   14   27 1   
    27   16   19 1   
    28   16   28 1   
    29   16   29 1   
    30   17   19 1   
    31   18   19 1   
@<TRIPOS>SUBSTRUCTURE
     1 1K5         1 TEMP              0 ****  ****    0 ROOT
