@<TRIPOS>MOLECULE
1K6
   25    24     1     0     0
SMALL
bcc


@<TRIPOS>ATOM
      1 O40         0.2010    0.2840   -0.3480 o         1 1K6     -0.366000
      2 C39         1.2950   -0.2640   -0.1620 c2        1 1K6      0.236000
      3 C34         2.0130   -0.1920    1.1660 c3        1 1K6     -0.165000
      4 C35         2.8940   -1.4250    1.3420 c3        1 1K6     -0.186000
      5 C37         2.0390   -2.7470    1.2290 c3        1 1K6      0.086000
      6 C38         2.8130   -3.9310    1.1530 c2        1 1K6     -0.859000
      7 C36         3.6100   -1.4330    2.6680 c3        1 1K6     -0.187000
      8 C32         2.8000    1.1230    1.2590 c3        1 1K6      0.002000
      9 O33         3.1190    1.5640   -0.0530 oh        1 1K6     -0.319000
     10 C30         2.0260    2.2330    1.9610 c2        1 1K6      0.268000
     11 O31         2.5230    3.0440    2.7490 o         1 1K6     -0.346000
     12 H2          0.3680    1.7830    1.0910 ho        1 1K6      0.262000
     13 H4          1.8130   -0.8290   -0.9660 h4        1 1K6      0.120000
     14 H5          1.2460   -0.1920    1.9930 hc        1 1K6      0.111000
     15 H6          3.6470   -1.4500    0.5120 hc        1 1K6      0.078000
     16 H7          1.3920   -2.5820    0.3120 hc        1 1K6     -0.019500
     17 H8          1.3550   -2.7290    2.1240 hc        1 1K6     -0.019500
     18 H9          3.2740   -4.2400    0.2210 ha        1 1K6      0.051500
     19 H10         3.0000   -4.5390    2.0310 ha        1 1K6      0.051500
     20 H11         3.9840   -2.4740    2.8510 hc        1 1K6      0.057667
     21 H12         4.4860   -0.7390    2.6840 hc        1 1K6      0.057667
     22 H13         2.9220   -1.1490    3.5010 hc        1 1K6      0.057667
     23 H14         3.7430    0.9550    1.8540 h1        1 1K6      0.126000
     24 H15         3.8340    2.2060    0.0350 ho        1 1K6      0.203000
     25 OXT         0.7000    2.4280    1.7410 oh        1 1K6     -0.300000
@<TRIPOS>BOND
     1    1    2 1   
     2    2    3 1   
     3    2   13 1   
     4    3    4 1   
     5    3    8 1   
     6    3   14 1   
     7    4    5 1   
     8    4    7 1   
     9    4   15 1   
    10    5    6 1   
    11    5   16 1   
    12    5   17 1   
    13    6   18 1   
    14    6   19 1   
    15    7   20 1   
    16    7   21 1   
    17    7   22 1   
    18    8    9 1   
    19    8   10 1   
    20    8   23 1   
    21    9   24 1   
    22   10   11 1   
    23   10   25 1   
    24   12   25 1   
@<TRIPOS>SUBSTRUCTURE
     1 1K6         1 TEMP              0 ****  ****    0 ROOT
