@<TRIPOS>MOLECULE
1K6
   25    23     1     0     0
SMALL
bcc


@<TRIPOS>ATOM
      1 O40        -1.7530   -0.7570   -1.6750 o         1 1K6     -0.357000
      2 C39        -0.5360   -0.7570   -1.6750 c1        1 1K6      0.197000
      3 C34         0.2200   -0.7570   -0.3650 c2        1 1K6     -0.178000
      4 C35         0.1090    0.6070    0.2820 c3        1 1K6     -0.081000
      5 C37         0.3030    1.6800   -0.7670 c3        1 1K6     -0.164000
      6 C38        -0.3270    2.9700   -0.2900 c3        1 1K6     -0.202000
      7 C36         1.1720    0.7470    1.3500 c3        1 1K6     -0.205000
      8 C32        -0.3680   -1.8010    0.5570 c3        1 1K6     -0.048000
      9 O33        -1.7710   -1.7880    0.4460 oh        1 1K6     -0.367000
     10 C30         0.1550   -3.1660    0.1700 c2        1 1K6      0.306000
     11 O31        -0.4110   -3.8210   -0.7440 o         1 1K6     -0.564000
     12 H2         -0.0480   -0.8000   -2.5200 ha        1 1K6      0.132000
     13 H4          1.1600   -0.9620   -0.5320 ha        1 1K6      0.129000
     14 H5         -0.7740    0.7040    0.6870 hc        1 1K6      0.092000
     15 H6         -0.1200    1.4000   -1.6010 hc        1 1K6      0.083000
     16 H7          1.2570    1.8190   -0.9170 hc        1 1K6      0.083000
     17 H8          0.2490    3.3850    0.3810 hc        1 1K6      0.061333
     18 H9         -0.4350    3.5780   -1.0460 hc        1 1K6      0.061333
     19 H10        -1.2000    2.7810    0.1030 hc        1 1K6      0.061333
     20 H11         2.0550    0.6570    0.9430 hc        1 1K6      0.069667
     21 H12         1.0950    1.6240    1.7720 hc        1 1K6      0.069667
     22 H13         1.0510    0.0500    2.0230 hc        1 1K6      0.069667
     23 H14        -0.1120   -1.6040    1.4780 h1        1 1K6      0.092000
     24 H15        -2.1290   -2.1410    1.1780 ho        1 1K6      0.222000
     25 OXT         1.1560   -3.6480    0.7620 o         1 1K6     -0.564000
@<TRIPOS>BOND
     1    1    2 1   
     2    2   12 1   
     3    3    4 1   
     4    3    8 1   
     5    3   13 1   
     6    4    5 1   
     7    4    7 1   
     8    4   14 1   
     9    5    6 1   
    10    5   15 1   
    11    5   16 1   
    12    6   17 1   
    13    6   18 1   
    14    6   19 1   
    15    7   20 1   
    16    7   21 1   
    17    7   22 1   
    18    8    9 1   
    19    8   10 1   
    20    8   23 1   
    21    9   24 1   
    22   10   11 1   
    23   10   25 1   
@<TRIPOS>SUBSTRUCTURE
     1 1K6         1 TEMP              0 ****  ****    0 ROOT
