@<TRIPOS>MOLECULE
1K6
   25    24     1     0     0
SMALL
bcc


@<TRIPOS>ATOM
      1 O40        -0.8990   -2.1200    1.2300 o         1 1K6     -0.596100
      2 C39        -0.0140   -1.3720    0.8000 c         1 1K6      0.578900
      3 C34        -0.2600   -0.1910   -0.1030 c3        1 1K6     -0.188700
      4 C35        -1.6510    0.4090    0.1110 c3        1 1K6     -0.041700
      5 C37        -2.7000   -0.4540   -0.5860 c3        1 1K6     -0.085400
      6 C38        -4.0970   -0.1930   -0.0860 c3        1 1K6     -0.084100
      7 C36        -1.7410    1.8410   -0.3710 c3        1 1K6     -0.087100
      8 C32         0.8930    0.8120    0.0560 c3        1 1K6      0.013100
      9 O33         0.9290    1.3310    1.3720 oh        1 1K6     -0.639800
     10 C30         2.2340    0.1230   -0.3280 c         1 1K6      0.886600
     11 O31         3.0010   -0.1800    0.6320 o         1 1K6     -0.829300
     12 H2          1.0610   -1.5410    1.0540 h4        1 1K6      0.039200
     13 H4         -0.1830   -0.5730   -1.1640 hc        1 1K6      0.089700
     14 H5         -1.8590    0.3970    1.2190 hc        1 1K6      0.052700
     15 H6         -2.6530   -0.2710   -1.6920 hc        1 1K6      0.043700
     16 H7         -2.4500   -1.5350   -0.4110 hc        1 1K6      0.043700
     17 H8         -4.8180   -0.8900   -0.5770 hc        1 1K6      0.022033
     18 H9         -4.1530   -0.3490    1.0190 hc        1 1K6      0.022033
     19 H10        -4.4180    0.8540   -0.3080 hc        1 1K6      0.022033
     20 H11        -1.4210    1.9210   -1.4370 hc        1 1K6      0.030367
     21 H12        -2.7910    2.2130   -0.2880 hc        1 1K6      0.030367
     22 H13        -1.0850    2.4970    0.2530 hc        1 1K6      0.030367
     23 H14         0.7330    1.6890   -0.6260 h1        1 1K6      0.052700
     24 H15         1.6790    0.9050    1.8210 ho        1 1K6      0.423000
     25 OXT         2.4650   -0.0950   -1.5450 o         1 1K6     -0.829300
@<TRIPOS>BOND
     1    1    2 2   
     2    2    3 1   
     3    2   12 1   
     4    3    4 1   
     5    3    8 1   
     6    3   13 1   
     7    4    5 1   
     8    4    7 1   
     9    4   14 1   
    10    5    6 1   
    11    5   15 1   
    12    5   16 1   
    13    6   17 1   
    14    6   18 1   
    15    6   19 1   
    16    7   20 1   
    17    7   21 1   
    18    7   22 1   
    19    8    9 1   
    20    8   10 1   
    21    8   23 1   
    22    9   24 1   
    23   10   11 1   
    24   10   25 1   
@<TRIPOS>SUBSTRUCTURE
     1 1K6         1 TEMP              0 ****  ****    0 ROOT
