@<TRIPOS>MOLECULE
1K7
   37    38     1     0     0
SMALL
bcc


@<TRIPOS>ATOM
      1 N29        -0.2320    0.0970    0.1850 n4        1 1K7     -0.804600
      2 C28         1.2310    0.0250    0.2760 cx        1 1K7      0.020500
      3 C27         1.9240   -0.3570    1.5620 cx        1 1K7     -0.092400
      4 C26         2.0130   -1.2800    0.3770 cx        1 1K7     -0.126700
      5 C25         1.3630   -2.6250    0.4060 c3        1 1K7     -0.099400
      6 C9          2.2730   -3.7030    1.0170 c3        1 1K7      0.129500
      7 C8          1.4250   -4.8860    1.5000 c3        1 1K7     -0.118400
      8 C7          2.2540   -5.9900    2.1350 c3        1 1K7     -0.035100
      9 C6          1.3750   -6.9390    2.8730 ca        1 1K7     -0.135300
     10 C1          0.6670   -7.9250    2.1750 ca        1 1K7     -0.120000
     11 C2         -0.1360   -8.8310    2.8660 ca        1 1K7     -0.113000
     12 C3         -0.2340   -8.7590    4.2570 ca        1 1K7     -0.094000
     13 C4          0.4730   -7.7790    4.9550 ca        1 1K7     -0.113000
     14 C5          1.2770   -6.8710    4.2670 ca        1 1K7     -0.120000
     15 N10         3.3340   -4.1670    0.0550 n4        1 1K7     -0.844600
     16 H22        -0.5280    0.0090   -0.7960 hn        1 1K7      0.473800
     17 H23         1.6790    0.8400   -0.3510 hx        1 1K7      0.168700
     18 H24         1.3290   -0.6680    2.4440 hc        1 1K7      0.130700
     19 H25         2.8090    0.2420    1.8640 hc        1 1K7      0.130700
     20 H26         2.9600   -1.2730   -0.2100 hc        1 1K7      0.111700
     21 H27         1.0410   -2.9210   -0.6300 hc        1 1K7      0.086200
     22 H28         0.4350   -2.6030    1.0440 hc        1 1K7      0.086200
     23 H29         2.8290   -3.2630    1.9020 hx        1 1K7      0.120700
     24 H30         0.8150   -5.3030    0.6560 hc        1 1K7      0.093200
     25 H31         2.8150   -6.5610    1.3460 hc        1 1K7      0.047700
     26 H32         0.7530   -7.9970    1.0810 ha        1 1K7      0.126500
     27 H33        -0.6850   -9.6100    2.3150 ha        1 1K7      0.155500
     28 H34        -0.8630   -9.4800    4.8030 ha        1 1K7      0.160000
     29 H35         0.4050   -7.7280    6.0540 ha        1 1K7      0.155500
     30 H36         1.8440   -6.1130    4.8270 ha        1 1K7      0.126500
     31 H37         3.9370   -4.8530    0.5330 hn        1 1K7      0.468133
     32 H2          3.9050   -3.3820   -0.2660 hn        1 1K7      0.468133
     33 H1         -0.5440    1.0140    0.5430 hn        1 1K7      0.473800
     34 H3          0.7080   -4.4880    2.2690 hc        1 1K7      0.093200
     35 H4          3.0060   -5.5440    2.8400 hc        1 1K7      0.047700
     36 H293       -0.6820   -0.6400    0.7400 hn        1 1K7      0.473800
     37 H103        2.9030   -4.6270   -0.7550 hn        1 1K7      0.468133
@<TRIPOS>BOND
     1    1    2 1   
     2    1   16 1   
     3    1   33 1   
     4    1   36 1   
     5    2    3 1   
     6    2    4 1   
     7    2   17 1   
     8    3    4 1   
     9    3   18 1   
    10    3   19 1   
    11    4    5 1   
    12    4   20 1   
    13    5    6 1   
    14    5   21 1   
    15    5   22 1   
    16    6    7 1   
    17    6   15 1   
    18    6   23 1   
    19    7    8 1   
    20    7   24 1   
    21    7   34 1   
    22    8    9 1   
    23    8   25 1   
    24    8   35 1   
    25    9   10 ar  
    26    9   14 ar  
    27   10   11 ar  
    28   10   26 1   
    29   11   12 ar  
    30   11   27 1   
    31   12   13 ar  
    32   12   28 1   
    33   13   14 ar  
    34   13   29 1   
    35   14   30 1   
    36   15   31 1   
    37   15   32 1   
    38   15   37 1   
@<TRIPOS>SUBSTRUCTURE
     1 1K7         1 TEMP              0 ****  ****    0 ROOT
