@<TRIPOS>MOLECULE
1K7
   35    36     1     0     0
SMALL
bcc


@<TRIPOS>ATOM
      1 N29         4.8410    1.5990   -1.1160 n3        1 1K7     -0.877800
      2 C28         4.8650    0.5990   -0.1040 cx        1 1K7      0.115500
      3 C27         4.1940    0.7970    1.2360 cx        1 1K7     -0.127400
      4 C26         3.6730   -0.2630    0.3040 cx        1 1K7     -0.168700
      5 C25         2.3540   -0.0730   -0.3680 c3        1 1K7     -0.043400
      6 C9          1.2350   -0.8900    0.3030 c3        1 1K7      0.165500
      7 C8         -0.1130   -0.3520   -0.2120 c3        1 1K7     -0.119400
      8 C7         -1.2930   -1.0120    0.4730 c3        1 1K7     -0.038100
      9 C6         -2.5670   -0.2980    0.1800 ca        1 1K7     -0.079300
     10 C1         -3.5080   -0.8500   -0.6960 ca        1 1K7     -0.127500
     11 C2         -4.7020   -0.1790   -0.9590 ca        1 1K7     -0.127000
     12 C3         -4.9650    1.0470   -0.3500 ca        1 1K7     -0.131000
     13 C4         -4.0310    1.6020    0.5250 ca        1 1K7     -0.127000
     14 C5         -2.8370    0.9340    0.7900 ca        1 1K7     -0.127500
     15 N10         1.4310   -2.3180    0.1440 n3        1 1K7     -0.902800
     16 H22         4.8960    1.1750   -2.0220 hn        1 1K7      0.350800
     17 H23         5.8590    0.0940   -0.1010 h1        1 1K7      0.091700
     18 H24         4.7430    0.4890    2.1440 hc        1 1K7      0.071200
     19 H25         3.5860    1.7020    1.4120 hc        1 1K7      0.071200
     20 H26         3.8820   -1.3220    0.5570 hc        1 1K7      0.101700
     21 H27         2.0560    1.0100   -0.3380 hc        1 1K7      0.038200
     22 H28         2.4420   -0.3640   -1.4490 hc        1 1K7      0.038200
     23 H29         1.2820   -0.6880    1.4160 h1        1 1K7      0.063700
     24 H30        -0.1510    0.7530   -0.0220 hc        1 1K7      0.048700
     25 H31        -1.3790   -2.0820    0.1420 hc        1 1K7      0.046700
     26 H32        -3.3070   -1.8180   -1.1780 ha        1 1K7      0.130500
     27 H33        -5.4360   -0.6200   -1.6480 ha        1 1K7      0.131000
     28 H34        -5.9070    1.5750   -0.5570 ha        1 1K7      0.131000
     29 H35        -4.2370    2.5690    1.0090 ha        1 1K7      0.131000
     30 H36        -2.1020    1.3710    1.4810 ha        1 1K7      0.130500
     31 H37         0.6820   -2.8190    0.5810 hn        1 1K7      0.346800
     32 H2          1.4660   -2.5660   -0.8260 hn        1 1K7      0.346800
     33 H1          4.0090    2.1550   -1.0640 hn        1 1K7      0.350800
     34 H3         -0.1840   -0.5040   -1.3200 hc        1 1K7      0.048700
     35 H4         -1.1210   -1.0210    1.5840 hc        1 1K7      0.046700
@<TRIPOS>BOND
     1    1    2 1   
     2    1   16 1   
     3    1   33 1   
     4    2    3 1   
     5    2    4 1   
     6    2   17 1   
     7    3    4 1   
     8    3   18 1   
     9    3   19 1   
    10    4    5 1   
    11    4   20 1   
    12    5    6 1   
    13    5   21 1   
    14    5   22 1   
    15    6    7 1   
    16    6   15 1   
    17    6   23 1   
    18    7    8 1   
    19    7   24 1   
    20    7   34 1   
    21    8    9 1   
    22    8   25 1   
    23    8   35 1   
    24    9   10 ar  
    25    9   14 ar  
    26   10   11 ar  
    27   10   26 1   
    28   11   12 ar  
    29   11   27 1   
    30   12   13 ar  
    31   12   28 1   
    32   13   14 ar  
    33   13   29 1   
    34   14   30 1   
    35   15   31 1   
    36   15   32 1   
@<TRIPOS>SUBSTRUCTURE
     1 1K7         1 TEMP              0 ****  ****    0 ROOT
