@<TRIPOS>MOLECULE
1K7
   37    38     1     0     0
SMALL
bcc


@<TRIPOS>ATOM
      1 N29        -0.2180    0.1080    0.1960 n4        1 1K7     -0.804600
      2 C28         1.2440    0.0330    0.2960 cx        1 1K7      0.020500
      3 C27         1.9270   -0.3560    1.5860 cx        1 1K7     -0.092400
      4 C26         2.0240   -1.2730    0.3970 cx        1 1K7     -0.126700
      5 C25         1.3720   -2.6180    0.4150 c3        1 1K7     -0.099400
      6 C9          2.2760   -3.6990    1.0260 c3        1 1K7      0.129500
      7 C8          1.4240   -4.8840    1.4970 c3        1 1K7     -0.118400
      8 C7          2.2470   -5.9920    2.1320 c3        1 1K7     -0.035100
      9 C6          1.3610   -6.9450    2.8580 ca        1 1K7     -0.135300
     10 C1          0.6470   -7.9170    2.1490 ca        1 1K7     -0.120500
     11 C2         -0.1620   -8.8260    2.8290 ca        1 1K7     -0.113000
     12 C3         -0.2600   -8.7700    4.2210 ca        1 1K7     -0.094000
     13 C4          0.4540   -7.8040    4.9310 ca        1 1K7     -0.113000
     14 C5          1.2640   -6.8930    4.2530 ca        1 1K7     -0.120500
     15 N10         3.3430   -4.1600    0.0690 n4        1 1K7     -0.844600
     16 H22        -0.5070    0.0250   -0.7880 hn        1 1K7      0.473800
     17 H23         1.6980    0.8510   -0.3230 hx        1 1K7      0.168700
     18 H24         1.3250   -0.6700    2.4620 hc        1 1K7      0.130700
     19 H25         2.8100    0.2410    1.8980 hc        1 1K7      0.130700
     20 H26         2.9750   -1.2640   -0.1830 hc        1 1K7      0.111700
     21 H27         1.0570   -2.9070   -0.6250 hc        1 1K7      0.086200
     22 H28         0.4400   -2.5970    1.0460 hc        1 1K7      0.086200
     23 H29         2.8270   -3.2640    1.9180 hx        1 1K7      0.120700
     24 H30         0.7010   -4.4890    2.2640 hc        1 1K7      0.093200
     25 H31         2.8120   -6.5600    1.3440 hc        1 1K7      0.047700
     26 H32         0.7320   -7.9760    1.0540 ha        1 1K7      0.126500
     27 H33        -0.7170   -9.5950    2.2680 ha        1 1K7      0.155500
     28 H34        -0.8930   -9.4940    4.7580 ha        1 1K7      0.160000
     29 H35         0.3860   -7.7660    6.0300 ha        1 1K7      0.155500
     30 H36         1.8350   -6.1450    4.8220 ha        1 1K7      0.126500
     31 H37         3.9420   -4.8490    0.5490 hn        1 1K7      0.468133
     32 H2          3.9170   -3.3740   -0.2440 hn        1 1K7      0.468133
     33 H1         -0.6730   -0.6310    0.7420 hn        1 1K7      0.473800
     34 H3          0.8180   -5.2960    0.6470 hc        1 1K7      0.093200
     35 H4          2.9950   -5.5510    2.8450 hc        1 1K7      0.047700
     36 H293       -0.5310    1.0230    0.5560 hn        1 1K7      0.473800
     37 H103        2.9170   -4.6150   -0.7460 hn        1 1K7      0.468133
@<TRIPOS>BOND
     1    1    2 1   
     2    1   16 1   
     3    1   33 1   
     4    1   36 1   
     5    2    3 1   
     6    2    4 1   
     7    2   17 1   
     8    3    4 1   
     9    3   18 1   
    10    3   19 1   
    11    4    5 1   
    12    4   20 1   
    13    5    6 1   
    14    5   21 1   
    15    5   22 1   
    16    6    7 1   
    17    6   15 1   
    18    6   23 1   
    19    7    8 1   
    20    7   24 1   
    21    7   34 1   
    22    8    9 1   
    23    8   25 1   
    24    8   35 1   
    25    9   10 ar  
    26    9   14 ar  
    27   10   11 ar  
    28   10   26 1   
    29   11   12 ar  
    30   11   27 1   
    31   12   13 ar  
    32   12   28 1   
    33   13   14 ar  
    34   13   29 1   
    35   14   30 1   
    36   15   31 1   
    37   15   32 1   
    38   15   37 1   
@<TRIPOS>SUBSTRUCTURE
     1 1K7         1 TEMP              0 ****  ****    0 ROOT
