@<TRIPOS>MOLECULE
1K7
   37    38     1     0     0
SMALL
bcc


@<TRIPOS>ATOM
      1 N29        -0.2250    0.0940    0.1670 nz        1 1K7     -0.804600
      2 C28         1.2370    0.0250    0.2750 cx        1 1K7      0.020500
      3 C27         1.9150   -0.3550    1.5700 cx        1 1K7     -0.092400
      4 C26         2.0220   -1.2770    0.3860 cx        1 1K7     -0.126700
      5 C25         1.3740   -2.6250    0.4070 c3        1 1K7     -0.099400
      6 C9          2.2800   -3.7000    1.0290 c3        1 1K7      0.129500
      7 C8          1.4290   -4.8860    1.5010 c3        1 1K7     -0.118400
      8 C7          2.2530   -5.9880    2.1460 c3        1 1K7     -0.035100
      9 C6          1.3680   -6.9400    2.8720 ca        1 1K7     -0.135300
     10 C1          0.6620   -7.9200    2.1640 ca        1 1K7     -0.120000
     11 C2         -0.1460   -8.8280    2.8450 ca        1 1K7     -0.113000
     12 C3         -0.2530   -8.7640    4.2350 ca        1 1K7     -0.094000
     13 C4          0.4510   -7.7900    4.9440 ca        1 1K7     -0.113000
     14 C5          1.2600   -6.8800    4.2660 ca        1 1K7     -0.120000
     15 N10         3.3530   -4.1620    0.0800 nz        1 1K7     -0.844600
     16 H22        -0.5080    0.0050   -0.8180 hn        1 1K7      0.473800
     17 H23         1.6910    0.8420   -0.3450 hx        1 1K7      0.168700
     18 H24         2.7950    0.2460    1.8840 hc        1 1K7      0.130700
     19 H25         1.3100   -0.6680    2.4450 hc        1 1K7      0.130700
     20 H26         2.9760   -1.2680   -0.1890 hc        1 1K7      0.111700
     21 H27         1.0650   -2.9210   -0.6330 hc        1 1K7      0.086200
     22 H28         0.4390   -2.6040    1.0340 hc        1 1K7      0.086200
     23 H29         2.8240   -3.2590    1.9210 hx        1 1K7      0.120700
     24 H30         0.8290   -5.3040    0.6500 hc        1 1K7      0.093200
     25 H31         2.8250   -6.5570    1.3640 hc        1 1K7      0.047700
     26 H32         0.7550   -7.9860    1.0700 ha        1 1K7      0.126500
     27 H33        -0.6940   -9.6030    2.2860 ha        1 1K7      0.155500
     28 H34        -0.8870   -9.4880    4.7730 ha        1 1K7      0.160000
     29 H35         0.3760   -7.7460    6.0420 ha        1 1K7      0.155500
     30 H36         1.8250   -6.1250    4.8340 ha        1 1K7      0.126500
     31 H37         3.9260   -3.3740   -0.2350 hn        1 1K7      0.468133
     32 H2          2.9330   -4.6220   -0.7350 hn        1 1K7      0.468133
     33 H1         -0.6790   -0.6440    0.7150 hn        1 1K7      0.473800
     34 H3          0.7010   -4.4900    2.2620 hc        1 1K7      0.093200
     35 H4          2.9950   -5.5400    2.8600 hc        1 1K7      0.047700
     36 H293       -0.5430    1.0090    0.5210 hn        1 1K7      0.473800
     37 H103        3.9520   -4.8460    0.5650 hn        1 1K7      0.468133
@<TRIPOS>BOND
     1    1    2 1   
     2    1   16 1   
     3    1   33 1   
     4    1   36 1   
     5    2    3 1   
     6    2    4 1   
     7    2   17 1   
     8    3    4 1   
     9    3   18 1   
    10    3   19 1   
    11    4    5 1   
    12    4   20 1   
    13    5    6 1   
    14    5   21 1   
    15    5   22 1   
    16    6    7 1   
    17    6   15 1   
    18    6   23 1   
    19    7    8 1   
    20    7   24 1   
    21    7   34 1   
    22    8    9 1   
    23    8   25 1   
    24    8   35 1   
    25    9   10 ar  
    26    9   14 ar  
    27   10   11 ar  
    28   10   26 1   
    29   11   12 ar  
    30   11   27 1   
    31   12   13 ar  
    32   12   28 1   
    33   13   14 ar  
    34   13   29 1   
    35   14   30 1   
    36   15   31 1   
    37   15   32 1   
    38   15   37 1   
@<TRIPOS>SUBSTRUCTURE
     1 1K7         1 TEMP              0 ****  ****    0 ROOT
