@<TRIPOS>MOLECULE
1K7
   35    33     1     0     0
SMALL
bcc


@<TRIPOS>ATOM
      1 N29        -1.0970   -3.3370   -3.7810 n3        1 1K7     -0.893800
      2 C28        -0.1410   -4.0860   -2.7040 cx        1 1K7      0.088500
      3 C27         0.8770   -3.3890   -2.2710 cx        1 1K7     -0.120400
      4 C26        -0.1410   -3.5420   -1.4110 cx        1 1K7     -0.101700
      5 C25        -0.4890   -1.4260   -0.9250 c3        1 1K7     -0.042400
      6 C9          0.0600   -1.1270    0.4580 c3        1 1K7      0.162500
      7 C8         -0.4410    0.2310    0.9200 c3        1 1K7     -0.118400
      8 C7          0.7310    1.0440    1.4850 c3        1 1K7     -0.072300
      9 C6          0.3800    2.5360    1.4550 c1        1 1K7     -0.044100
     10 C1         -0.4390    3.0750    2.4420 c1        1 1K7     -0.070500
     11 C2         -0.6530    4.4490    2.4940 c1        1 1K7     -0.071000
     12 C3         -0.0490    5.2830    1.5590 c1        1 1K7     -0.071000
     13 C4          0.7690    4.7440    0.5730 c1        1 1K7     -0.071000
     14 C5          0.9840    3.3710    0.5200 c1        1 1K7     -0.071000
     15 N10        -0.3770   -2.1270    1.3670 n3        1 1K7     -0.904800
     16 H22        -0.6670   -3.2850   -4.5880 hn        1 1K7      0.353800
     17 H23        -0.0030   -5.0570   -2.7600 h1        1 1K7      0.044700
     18 H24         1.6870   -3.9080   -2.0640 hc        1 1K7      0.072200
     19 H25         0.9700   -2.4920   -2.6590 hc        1 1K7      0.072200
     20 H26         0.1600   -4.1220   -0.6780 hc        1 1K7      0.094700
     21 H27        -0.0350   -0.8590   -1.5860 hc        1 1K7      0.050200
     22 H28        -1.4540   -1.2400   -0.9410 hc        1 1K7      0.050200
     23 H29         1.0430   -1.1200    0.4260 h1        1 1K7      0.060700
     24 H30        -1.1220    0.1090    1.6190 hc        1 1K7      0.050700
     25 H31         1.5330    0.8850    0.9400 hc        1 1K7      0.045700
     26 H32        -0.8650    2.4870    3.1020 ha        1 1K7      0.071500
     27 H33        -1.2310    4.8290    3.1910 ha        1 1K7      0.073500
     28 H34        -0.2010    6.2520    1.5960 ha        1 1K7      0.073500
     29 H35         1.1950    5.3340   -0.0870 ha        1 1K7      0.073500
     30 H36         1.5610    2.9910   -0.1770 ha        1 1K7      0.073500
     31 H37        -1.0610   -1.7960    1.8810 hn        1 1K7      0.345300
     32 H2          0.3230   -2.3740    1.9110 hn        1 1K7      0.345300
     33 H1         -1.8760   -3.8100   -3.8790 hn        1 1K7      0.353800
     34 H3         -0.8350    0.7110    0.1580 hc        1 1K7      0.050700
     35 H4          0.9050    0.7670    2.4120 hc        1 1K7      0.045700
@<TRIPOS>BOND
     1    1    2 1   
     2    1   16 1   
     3    1   33 1   
     4    2    3 1   
     5    2    4 1   
     6    2   17 1   
     7    3    4 1   
     8    3   18 1   
     9    3   19 1   
    10    4    5 1   
    11    4   20 1   
    12    5    6 1   
    13    5   21 1   
    14    5   22 1   
    15    6    7 1   
    16    6   15 1   
    17    6   23 1   
    18    7    8 1   
    19    7   24 1   
    20    7   34 1   
    21    8    9 1   
    22    8   25 1   
    23    8   35 1   
    24    9   10 3   
    25   10   26 1   
    26   11   12 3   
    27   11   27 1   
    28   12   28 1   
    29   13   14 3   
    30   13   29 1   
    31   14   30 1   
    32   15   31 1   
    33   15   32 1   
@<TRIPOS>SUBSTRUCTURE
     1 1K7         1 TEMP              0 ****  ****    0 ROOT
