@<TRIPOS>MOLECULE
1K9
   51    54     1     0     0
SMALL
bcc


@<TRIPOS>ATOM
      1 FAD         0.4400   -0.0890    0.6810 f         1 1K9     -0.229967
      2 CBE         1.6700    0.0160    0.0790 c3        1 1K9      0.687200
      3 FAE         2.5630   -0.0560    1.1210 f         1 1K9     -0.229967
      4 FAF         1.8270   -1.1700   -0.5920 f         1 1K9     -0.229967
      5 CAZ         1.8240    1.2610   -0.7930 ca        1 1K9     -0.140300
      6 CAO         2.2330    2.4530   -0.1990 ca        1 1K9     -0.121000
      7 CAJ         1.5370    1.1950   -2.1560 ca        1 1K9     -0.086000
      8 CAG         1.6650    2.3450   -2.9330 ca        1 1K9     -0.112000
      9 CAI         2.0750    3.5490   -2.3670 ca        1 1K9     -0.109000
     10 CAX         2.3650    3.6170   -0.9890 ca        1 1K9      0.049600
     11 NAS         2.8270    4.7970   -0.3640 n         1 1K9     -0.461100
     12 CAW         2.4620    6.0800   -0.7630 c         1 1K9      0.798100
     13 OAA         1.7730    6.3060   -1.7900 o         1 1K9     -0.660100
     14 NAT         2.9290    7.1610    0.0250 n         1 1K9     -0.483100
     15 CBB         2.6140    8.4910   -0.2820 ca        1 1K9      0.069600
     16 CAP         2.4870    8.9120   -1.6140 ca        1 1K9     -0.034000
     17 CBA         2.1140   10.2270   -1.9490 ca        1 1K9     -0.529500
     18 SBF         1.9070   10.6220   -3.4900 sy        1 1K9      1.495200
     19 OAB         1.4670   11.9130   -3.6970 o         1 1K9     -0.572800
     20 OAC         2.7580   10.0030   -4.3800 o         1 1K9     -0.572800
     21 NAU         0.3200    9.5690   -3.7350 n4        1 1K9     -0.658900
     22 CBD        -0.4860   10.0700   -4.8410 cx        1 1K9     -0.013500
     23 CAQ        -1.6300    9.2640   -5.4260 cx        1 1K9     -0.099900
     24 CAR        -0.3860    9.4660   -6.2300 cx        1 1K9     -0.099900
     25 CAL         1.9620   11.1620   -0.9070 ca        1 1K9      0.001000
     26 CAM         2.1630   10.7870    0.4110 ca        1 1K9     -0.132000
     27 CBC         2.4630    9.4600    0.7580 ca        1 1K9      0.097000
     28 CAY         2.6220    9.1250    2.1560 cc        1 1K9     -0.145000
     29 CAK         3.3950    9.9320    3.0580 cc        1 1K9     -0.125000
     30 CAH         3.3570    9.4230    4.3390 cd        1 1K9     -0.182100
     31 SAV         2.4160    8.0560    4.4330 ss        1 1K9      0.171200
     32 CAN         2.0400    8.0530    2.8250 cd        1 1K9     -0.196100
     33 H1          2.4590    2.4640    0.8800 ha        1 1K9      0.153000
     34 H2          1.2200    0.2410   -2.6090 ha        1 1K9      0.166000
     35 H3          1.4440    2.3010   -4.0110 ha        1 1K9      0.152000
     36 H4          2.1660    4.4460   -3.0010 ha        1 1K9      0.163000
     37 H5          3.3400    4.6660    0.4790 hn        1 1K9      0.332500
     38 H6          3.3180    6.9970    0.9280 hn        1 1K9      0.342500
     39 H7          2.6870    8.1930   -2.4350 ha        1 1K9      0.181000
     40 H8         -0.2530    9.5690   -2.8920 hn        1 1K9      0.449800
     41 H9         -0.6200   11.1760   -4.7460 hx        1 1K9      0.151700
     42 H10        -1.8530    8.2570   -5.0250 hc        1 1K9      0.107200
     43 H11        -2.5550    9.8100   -5.6950 hc        1 1K9      0.107200
     44 H12         0.2870    8.6070   -6.4110 hc        1 1K9      0.107200
     45 H13        -0.3930   10.1670   -7.0880 hc        1 1K9      0.107200
     46 H14         1.6820   12.2050   -1.1460 ha        1 1K9      0.172000
     47 H15         2.0640   11.5360    1.2160 ha        1 1K9      0.175000
     48 H16         3.9450   10.8230    2.7460 ha        1 1K9      0.168000
     49 H17         3.8730    9.8540    5.1990 h4        1 1K9      0.195000
     50 H18         1.3670    7.3210    2.3750 h4        1 1K9      0.179000
     51 HAU2        0.5850    8.5990   -3.9150 hn        1 1K9      0.449800
@<TRIPOS>BOND
     1    1    2 1   
     2    2    3 1   
     3    2    4 1   
     4    2    5 1   
     5    5    6 ar  
     6    5    7 ar  
     7    6   10 ar  
     8    6   33 1   
     9    7    8 ar  
    10    7   34 1   
    11    8    9 ar  
    12    8   35 1   
    13    9   10 ar  
    14    9   36 1   
    15   10   11 1   
    16   11   12 1   
    17   11   37 1   
    18   12   13 2   
    19   12   14 1   
    20   14   15 1   
    21   14   38 1   
    22   15   16 ar  
    23   15   27 ar  
    24   16   17 ar  
    25   16   39 1   
    26   17   18 1   
    27   17   25 ar  
    28   18   19 2   
    29   18   20 2   
    30   18   21 1   
    31   21   22 1   
    32   21   40 1   
    33   21   51 1   
    34   22   23 1   
    35   22   24 1   
    36   22   41 1   
    37   23   24 1   
    38   23   42 1   
    39   23   43 1   
    40   24   44 1   
    41   24   45 1   
    42   25   26 ar  
    43   25   46 1   
    44   26   27 ar  
    45   26   47 1   
    46   27   28 1   
    47   28   29 1   
    48   28   32 2   
    49   29   30 2   
    50   29   48 1   
    51   30   31 1   
    52   30   49 1   
    53   31   32 1   
    54   32   50 1   
@<TRIPOS>SUBSTRUCTURE
     1 1K9         1 TEMP              0 ****  ****    0 ROOT
