@<TRIPOS>MOLECULE
1K9
   53    56     1     0     0
SMALL
bcc


@<TRIPOS>ATOM
      1 FAD         2.5490    3.7170   -3.8200 f         1 1K9     -0.200967
      2 CBE         2.7210    2.4530   -3.3060 c3        1 1K9      0.696200
      3 FAE         1.6310    1.7430   -3.7240 f         1 1K9     -0.200967
      4 FAF         3.8010    1.9330   -3.9580 f         1 1K9     -0.200967
      5 CAZ         2.8730    2.4840   -1.7720 ca        1 1K9     -0.139300
      6 CAO         2.0050    3.2950   -1.0470 ca        1 1K9     -0.100000
      7 CAJ         3.8460    1.7090   -1.1280 ca        1 1K9      0.019000
      8 CAG         3.9680    1.7760    0.2650 ca        1 1K9     -0.083000
      9 CAI         3.1340    2.6010    1.0160 ca        1 1K9     -0.062000
     10 CAX         2.1510    3.3690    0.3530 ca        1 1K9     -0.155400
     11 NAS         1.1840    4.1400    1.1340 n4        1 1K9     -0.497200
     12 CAW         1.2280    5.6320    0.9330 c         1 1K9      0.469100
     13 OAA         0.2940    6.3110    1.3240 o         1 1K9     -0.290100
     14 NAT         2.4310    6.2280    0.2710 n4        1 1K9     -0.488200
     15 CBB         2.1790    7.5340   -0.3570 ca        1 1K9     -0.121400
     16 CAP         1.4540    7.6080   -1.5580 ca        1 1K9      0.049000
     17 CBA         1.3700    8.8100   -2.2670 ca        1 1K9     -0.458500
     18 SBF         0.6730    8.8470   -3.7840 sy        1 1K9      1.452200
     19 OAB         1.4590    9.5370   -4.6730 o         1 1K9     -0.536300
     20 OAC         0.0700    7.6270   -4.0230 o         1 1K9     -0.536300
     21 NAU        -0.7590    9.9650   -3.4400 n4        1 1K9     -0.681900
     22 CBD        -1.1220   10.7040   -4.6580 cx        1 1K9     -0.061500
     23 CAQ        -2.4400   11.4530   -4.7670 cx        1 1K9     -0.080400
     24 CAR        -2.2290   10.2190   -5.5800 cx        1 1K9     -0.080400
     25 CAL         2.0250    9.9450   -1.7380 ca        1 1K9      0.043000
     26 CAM         2.6990    9.8900   -0.5320 ca        1 1K9     -0.120000
     27 CBC         2.7810    8.6940    0.2130 ca        1 1K9      0.192000
     28 CAY         3.4880    8.6760    1.4610 cc        1 1K9     -0.222000
     29 CAK         4.7010    9.4090    1.6740 cc        1 1K9     -0.081000
     30 CAH         5.1080    9.3110    2.9940 cd        1 1K9     -0.198100
     31 SAV         4.0590    8.4280    3.9030 ss        1 1K9      0.400200
     32 CAN         3.0640    8.0700    2.6610 cd        1 1K9     -0.314100
     33 H1          1.2050    3.8320   -1.5870 ha        1 1K9      0.169000
     34 H2          4.5110    1.0440   -1.7200 ha        1 1K9      0.226000
     35 H3          4.7290    1.1550    0.7800 ha        1 1K9      0.218000
     36 H4          3.2440    2.6160    2.1160 ha        1 1K9      0.182000
     37 H5          1.3220    3.9490    2.1470 hn        1 1K9      0.515800
     38 H6          3.1620    6.3730    1.0100 hn        1 1K9      0.510800
     39 H7          0.9600    6.7100   -1.9820 ha        1 1K9      0.174000
     40 H8         -1.5780    9.4260   -3.1400 hn        1 1K9      0.460300
     41 H9         -0.2150   11.1840   -5.1070 hx        1 1K9      0.166700
     42 H10        -2.4180   12.4490   -5.2570 hc        1 1K9      0.122450
     43 H11        -3.1600   11.4310   -3.9270 hc        1 1K9      0.122450
     44 H12        -2.0470   10.2990   -6.6720 hc        1 1K9      0.122450
     45 H13        -2.8010    9.3040   -5.3300 hc        1 1K9      0.122450
     46 H14         2.0210   10.8990   -2.3070 ha        1 1K9      0.192000
     47 H15         3.1910   10.7980   -0.1250 ha        1 1K9      0.214000
     48 H16         5.2360    9.9560    0.8910 ha        1 1K9      0.191000
     49 H17         6.0160    9.7840    3.3930 h4        1 1K9      0.234000
     50 H18         2.1030    7.5720    2.7930 h4        1 1K9      0.159000
     51 HAS2        0.2210    3.8260    0.8850 hn        1 1K9      0.515800
     52 HAT2        2.8000    5.5800   -0.4510 hn        1 1K9      0.510800
     53 HAU2       -0.5730   10.6520   -2.7080 hn        1 1K9      0.460300
@<TRIPOS>BOND
     1    1    2 1   
     2    2    3 1   
     3    2    4 1   
     4    2    5 1   
     5    5    6 ar  
     6    5    7 ar  
     7    6   10 ar  
     8    6   33 1   
     9    7    8 ar  
    10    7   34 1   
    11    8    9 ar  
    12    8   35 1   
    13    9   10 ar  
    14    9   36 1   
    15   10   11 1   
    16   11   12 1   
    17   11   37 1   
    18   11   51 1   
    19   12   13 2   
    20   12   14 1   
    21   14   15 1   
    22   14   38 1   
    23   14   52 1   
    24   15   16 ar  
    25   15   27 ar  
    26   16   17 ar  
    27   16   39 1   
    28   17   18 1   
    29   17   25 ar  
    30   18   19 2   
    31   18   20 2   
    32   18   21 1   
    33   21   22 1   
    34   21   40 1   
    35   21   53 1   
    36   22   23 1   
    37   22   24 1   
    38   22   41 1   
    39   23   24 1   
    40   23   42 1   
    41   23   43 1   
    42   24   44 1   
    43   24   45 1   
    44   25   26 ar  
    45   25   46 1   
    46   26   27 ar  
    47   26   47 1   
    48   27   28 1   
    49   28   29 1   
    50   28   32 2   
    51   29   30 2   
    52   29   48 1   
    53   30   31 1   
    54   30   49 1   
    55   31   32 1   
    56   32   50 1   
@<TRIPOS>SUBSTRUCTURE
     1 1K9         1 TEMP              0 ****  ****    0 ROOT
