@<TRIPOS>MOLECULE
1K9
   51    54     1     0     0
SMALL
bcc


@<TRIPOS>ATOM
      1 FAD         0.4520   -0.0860    0.7150 f         1 1K9     -0.229967
      2 CBE         1.6860    0.0210    0.1200 c3        1 1K9      0.687200
      3 FAE         2.5720   -0.0410    1.1690 f         1 1K9     -0.229967
      4 FAF         1.8530   -1.1680   -0.5420 f         1 1K9     -0.229967
      5 CAZ         1.8400    1.2620   -0.7570 ca        1 1K9     -0.140300
      6 CAO         2.2410    2.4590   -0.1680 ca        1 1K9     -0.121000
      7 CAJ         1.5610    1.1870   -2.1220 ca        1 1K9     -0.086000
      8 CAG         1.6880    2.3330   -2.9050 ca        1 1K9     -0.112000
      9 CAI         2.0910    3.5420   -2.3430 ca        1 1K9     -0.109000
     10 CAX         2.3730    3.6190   -0.9640 ca        1 1K9      0.049600
     11 NAS         2.8260    4.8040   -0.3430 ns        1 1K9     -0.461100
     12 CAW         2.4600    6.0840   -0.7520 c         1 1K9      0.798100
     13 OAA         1.7770    6.3020   -1.7850 o         1 1K9     -0.660100
     14 NAT         2.9180    7.1710    0.0330 ns        1 1K9     -0.483100
     15 CBB         2.6030    8.4970   -0.2850 ca        1 1K9      0.069600
     16 CAP         2.4840    8.9100   -1.6200 ca        1 1K9     -0.034000
     17 CBA         2.1110   10.2230   -1.9650 ca        1 1K9     -0.529500
     18 SBF         1.9130   10.6080   -3.5100 sy        1 1K9      1.495200
     19 OAB         1.4740   11.8970   -3.7280 o         1 1K9     -0.572800
     20 OAC         2.7720    9.9850   -4.3900 o         1 1K9     -0.572800
     21 NAU         0.3300    9.5520   -3.7600 ny        1 1K9     -0.658900
     22 CBD        -0.4730   10.0480   -4.8710 cx        1 1K9     -0.013500
     23 CAQ        -1.6130    9.2390   -5.4580 cx        1 1K9     -0.099900
     24 CAR        -0.3650    9.4410   -6.2580 cx        1 1K9     -0.099900
     25 CAL         1.9500   11.1640   -0.9300 ca        1 1K9      0.001000
     26 CAM         2.1420   10.7970    0.3910 ca        1 1K9     -0.132000
     27 CBC         2.4430    9.4730    0.7490 ca        1 1K9      0.097000
     28 CAY         2.5930    9.1470    2.1490 cc        1 1K9     -0.145000
     29 CAK         3.3580    9.9610    3.0520 cc        1 1K9     -0.125000
     30 CAH         3.3130    9.4600    4.3360 cd        1 1K9     -0.182100
     31 SAV         2.3740    8.0910    4.4310 ss        1 1K9      0.171200
     32 CAN         2.0080    8.0770    2.8210 cd        1 1K9     -0.196100
     33 H1          2.4600    2.4770    0.9120 ha        1 1K9      0.153000
     34 H2          1.2500    0.2300   -2.5720 ha        1 1K9      0.166000
     35 H3          1.4740    2.2830   -3.9840 ha        1 1K9      0.152000
     36 H4          2.1820    4.4350   -2.9820 ha        1 1K9      0.163000
     37 H5          3.3340    4.6790    0.5040 hn        1 1K9      0.332500
     38 H6          3.3030    7.0130    0.9390 hn        1 1K9      0.342500
     39 H7          2.6910    8.1870   -2.4350 ha        1 1K9      0.181000
     40 H8          0.5980    8.5820   -3.9370 hn        1 1K9      0.449800
     41 H9         -0.6080   11.1550   -4.7790 hx        1 1K9      0.151700
     42 H10        -2.5370    9.7830   -5.7330 hc        1 1K9      0.107200
     43 H11        -1.8350    8.2320   -5.0560 hc        1 1K9      0.107200
     44 H12        -0.3690   10.1400   -7.1170 hc        1 1K9      0.107200
     45 H13         0.3100    8.5820   -6.4330 hc        1 1K9      0.107200
     46 H14         1.6700   12.2050   -1.1770 ha        1 1K9      0.172000
     47 H15         2.0370   11.5510    1.1920 ha        1 1K9      0.175000
     48 H16         3.9080   10.8510    2.7390 ha        1 1K9      0.168000
     49 H17         3.8220    9.8970    5.1960 h4        1 1K9      0.195000
     50 H18         1.3410    7.3410    2.3710 h4        1 1K9      0.179000
     51 HAU2       -0.2470    9.5530   -2.9200 hn        1 1K9      0.449800
@<TRIPOS>BOND
     1    1    2 1   
     2    2    3 1   
     3    2    4 1   
     4    2    5 1   
     5    5    6 ar  
     6    5    7 ar  
     7    6   10 ar  
     8    6   33 1   
     9    7    8 ar  
    10    7   34 1   
    11    8    9 ar  
    12    8   35 1   
    13    9   10 ar  
    14    9   36 1   
    15   10   11 1   
    16   11   12 1   
    17   11   37 1   
    18   12   13 2   
    19   12   14 1   
    20   14   15 1   
    21   14   38 1   
    22   15   16 ar  
    23   15   27 ar  
    24   16   17 ar  
    25   16   39 1   
    26   17   18 1   
    27   17   25 ar  
    28   18   19 2   
    29   18   20 2   
    30   18   21 1   
    31   21   22 1   
    32   21   40 1   
    33   21   51 1   
    34   22   23 1   
    35   22   24 1   
    36   22   41 1   
    37   23   24 1   
    38   23   42 1   
    39   23   43 1   
    40   24   44 1   
    41   24   45 1   
    42   25   26 ar  
    43   25   46 1   
    44   26   27 ar  
    45   26   47 1   
    46   27   28 1   
    47   28   29 1   
    48   28   32 2   
    49   29   30 2   
    50   29   48 1   
    51   30   31 1   
    52   30   49 1   
    53   31   32 1   
    54   32   50 1   
@<TRIPOS>SUBSTRUCTURE
     1 1K9         1 TEMP              0 ****  ****    0 ROOT
