@<TRIPOS>MOLECULE
1K9
   50    53     1     0     0
SMALL
bcc


@<TRIPOS>ATOM
      1 FAD        -7.5840    0.1060    0.4350 f         1 1K9     -0.236300
      2 CBE        -6.7580   -0.6790    1.2040 c3        1 1K9      0.687200
      3 FAE        -6.6530    0.0100    2.3880 f         1 1K9     -0.236300
      4 FAF        -7.5310   -1.7700    1.5170 f         1 1K9     -0.236300
      5 CAZ        -5.4250   -1.0130    0.5430 ca        1 1K9     -0.142300
      6 CAO        -4.3510   -0.1400    0.7050 ca        1 1K9     -0.136000
      7 CAJ        -5.3030   -2.1730   -0.2210 ca        1 1K9     -0.102000
      8 CAG        -4.0830   -2.4530   -0.8340 ca        1 1K9     -0.113000
      9 CAI        -2.9970   -1.5930   -0.6990 ca        1 1K9     -0.109000
     10 CAX        -3.1150   -0.4190    0.0770 ca        1 1K9      0.060600
     11 NAS        -2.0730    0.5220    0.1930 n         1 1K9     -0.460100
     12 CAW        -0.7070    0.1540    0.2110 c         1 1K9      0.768100
     13 OAA        -0.3290   -0.9960   -0.1040 o         1 1K9     -0.615100
     14 NAT         0.2110    1.1540    0.6000 n         1 1K9     -0.461100
     15 CBB         1.6040    0.9760    0.4660 ca        1 1K9      0.041600
     16 CAP         2.2150   -0.2490    0.8010 ca        1 1K9     -0.020000
     17 CBA         3.5980   -0.4080    0.7400 ca        1 1K9     -0.356500
     18 SBF         4.3040   -1.8950    1.1490 sy        1 1K9      1.518200
     19 OAB         5.7000   -1.7120    1.2470 o         1 1K9     -0.651300
     20 OAC         3.6430   -2.3980    2.2890 o         1 1K9     -0.651300
     21 NAU         3.9370   -2.8320   -0.1150 n3        1 1K9     -0.882100
     22 CBD         4.8040   -3.0550   -1.2120 cx        1 1K9      0.174500
     23 CAQ         4.3550   -2.8750   -2.6510 cx        1 1K9     -0.146400
     24 CAR         4.6440   -4.2510   -2.1290 cx        1 1K9     -0.146400
     25 CAL         4.3950    0.6780    0.3650 ca        1 1K9     -0.035000
     26 CAM         3.8150    1.8980    0.0420 ca        1 1K9     -0.128000
     27 CBC         2.4240    2.0660    0.0670 ca        1 1K9      0.009000
     28 CAY         1.8700    3.3560   -0.3020 cc        1 1K9     -0.093000
     29 CAK         2.3510    4.5940    0.2480 cc        1 1K9     -0.136000
     30 CAH         1.6880    5.6750   -0.2880 cd        1 1K9     -0.175100
     31 SAV         0.5470    5.2040   -1.4110 ss        1 1K9      0.063200
     32 CAN         0.8660    3.5820   -1.2300 cd        1 1K9     -0.185100
     33 H1         -4.4840    0.7600    1.3270 ha        1 1K9      0.148000
     34 H2         -6.1580   -2.8570   -0.3300 ha        1 1K9      0.155000
     35 H3         -3.9740   -3.3690   -1.4370 ha        1 1K9      0.147000
     36 H4         -2.0420   -1.8430   -1.1920 ha        1 1K9      0.176000
     37 H5         -2.3290    1.3590    0.6720 hn        1 1K9      0.312500
     38 H6         -0.0910    2.1060    0.5830 hn        1 1K9      0.322500
     39 H7          1.5880   -1.1030    1.1230 ha        1 1K9      0.174000
     40 H8          3.0520   -3.2750   -0.1980 hn        1 1K9      0.452800
     41 H9          5.8480   -2.7450   -0.9630 h1        1 1K9      0.110700
     42 H10         3.3080   -2.5990   -2.8680 hc        1 1K9      0.076200
     43 H11         5.0590   -2.4050   -3.3600 hc        1 1K9      0.076200
     44 H12         5.5590   -4.7760   -2.4570 hc        1 1K9      0.076200
     45 H13         3.8020   -4.9490   -1.9760 hc        1 1K9      0.076200
     46 H14         5.4930    0.5620    0.3360 ha        1 1K9      0.163000
     47 H15         4.4490    2.7510   -0.2490 ha        1 1K9      0.147000
     48 H16         3.1420    4.6390    0.9990 ha        1 1K9      0.164000
     49 H17         1.8690    6.7170   -0.0290 h4        1 1K9      0.178000
     50 H18         0.3620    2.8110   -1.8130 h4        1 1K9      0.178000
@<TRIPOS>BOND
     1    1    2 1   
     2    2    3 1   
     3    2    4 1   
     4    2    5 1   
     5    5    6 ar  
     6    5    7 ar  
     7    6   10 ar  
     8    6   33 1   
     9    7    8 ar  
    10    7   34 1   
    11    8    9 ar  
    12    8   35 1   
    13    9   10 ar  
    14    9   36 1   
    15   10   11 1   
    16   11   12 1   
    17   11   37 1   
    18   12   13 2   
    19   12   14 1   
    20   14   15 1   
    21   14   38 1   
    22   15   16 ar  
    23   15   27 ar  
    24   16   17 ar  
    25   16   39 1   
    26   17   18 1   
    27   17   25 ar  
    28   18   19 2   
    29   18   20 2   
    30   18   21 1   
    31   21   22 1   
    32   21   40 1   
    33   22   23 1   
    34   22   24 1   
    35   22   41 1   
    36   23   24 1   
    37   23   42 1   
    38   23   43 1   
    39   24   44 1   
    40   24   45 1   
    41   25   26 ar  
    42   25   46 1   
    43   26   27 ar  
    44   26   47 1   
    45   27   28 1   
    46   28   29 1   
    47   28   32 2   
    48   29   30 2   
    49   29   48 1   
    50   30   31 1   
    51   30   49 1   
    52   31   32 1   
    53   32   50 1   
@<TRIPOS>SUBSTRUCTURE
     1 1K9         1 TEMP              0 ****  ****    0 ROOT
