@<TRIPOS>MOLECULE
1K9
   50    42     1     0     0
SMALL
bcc


@<TRIPOS>ATOM
      1 FAD         5.0000   -5.8940   -0.9630 f         1 1K9     -0.165333
      2 CBE         3.7640   -6.0110   -0.4530 c3        1 1K9      0.466000
      3 FAE         2.8640   -5.9730   -1.4470 f         1 1K9     -0.165333
      4 FAF         3.6590   -7.1800    0.2010 f         1 1K9     -0.165333
      5 CAZ         3.5030   -4.8630    0.5140 c1        1 1K9     -0.135000
      6 CAO         2.2200   -4.3410    0.6440 c1        1 1K9     -0.136000
      7 CAJ         4.5530   -4.3180    1.2470 c1        1 1K9     -0.095000
      8 CAG         4.3200   -3.2520    2.1100 c1        1 1K9     -0.095000
      9 CAI         3.0380   -2.7310    2.2400 c1        1 1K9     -0.110000
     10 CAX         1.9870   -3.2750    1.5070 c1        1 1K9      0.069000
     11 NAS         0.6560   -2.7750    1.6840 n2        1 1K9     -0.315000
     12 CAW         0.2740   -1.5240    1.0910 c2        1 1K9      0.396000
     13 OAA         1.0820   -0.8880    0.4370 o         1 1K9     -0.377000
     14 NAT        -1.0520   -1.0100    1.2910 n         1 1K9     -0.313000
     15 CBB        -1.4260    0.2570    0.7190 c2        1 1K9      0.049000
     16 CAP        -1.3370    0.4520   -0.6550 c2        1 1K9     -0.021000
     17 CBA        -1.7800    1.6470   -1.2200 c1        1 1K9     -0.801000
     18 SBF        -1.6980    1.8840   -2.9890 s4        1 1K9      2.073800
     19 OAB        -1.0380    0.7780   -3.6340 o         1 1K9     -0.539400
     20 OAC        -3.0060    1.8160   -3.5870 o         1 1K9     -0.539400
     21 NAU        -0.9480    3.3200   -3.3420 n2        1 1K9     -0.855000
     22 CBD        -1.6310    4.3130   -4.1300 cx        1 1K9     -0.023000
     23 CAQ        -1.3100    4.3100   -5.6150 cx        1 1K9     -0.225000
     24 CAR        -0.7530    5.4040   -4.7200 cx        1 1K9     -0.225000
     25 CAL        -2.3130    2.6440   -0.4090 c1        1 1K9     -0.095000
     26 CAM        -2.4030    2.4480    0.9670 c1        1 1K9     -0.095000
     27 CBC        -1.9600    1.2560    1.5310 c1        1 1K9      0.009000
     28 CAY        -2.0030    1.0670    3.0440 c1        1 1K9     -0.127500
     29 CAK        -0.8550    1.4820    4.0710 c1        1 1K9     -0.127500
     30 CAH        -1.3150    1.1840    5.4170 c1        1 1K9     -0.440000
     31 SAV        -2.7440    0.5790    5.3110 ss        1 1K9      0.609000
     32 CAN        -3.1220    0.5310    3.8040 c1        1 1K9     -0.440000
     33 H1          1.4800   -4.7250    0.1270 ha        1 1K9      0.148000
     34 H2          5.4580   -4.6860    1.1560 ha        1 1K9      0.152500
     35 H3          5.0610   -2.8680    2.6270 ha        1 1K9      0.152500
     36 H4          2.8730   -1.9780    2.8490 ha        1 1K9      0.176000
     37 H5          0.0580   -3.2380    2.2030 hn        1 1K9      0.227000
     38 H6         -1.6690   -1.5030    1.7580 hn        1 1K9      0.236000
     39 H7         -1.0070   -0.2700   -1.2330 ha        1 1K9      0.174000
     40 H8         -0.0880    3.4690   -3.0610 hn        1 1K9      0.248000
     41 H9         -2.5440    4.5830   -3.8910 h1        1 1K9      0.150000
     42 H10        -0.6650    3.6320   -5.9110 hc        1 1K9      0.115500
     43 H11        -2.0440    4.5790   -6.2100 hc        1 1K9      0.115500
     44 H12         0.2060    5.3390   -4.5130 hc        1 1K9      0.115500
     45 H13        -1.1740    6.2870   -4.8130 hc        1 1K9      0.115500
     46 H14        -2.6250    3.4850   -0.8060 ha        1 1K9      0.152500
     47 H15        -2.7790    3.1530    1.5400 ha        1 1K9      0.152500
     48 H16         0.0140    1.8720    3.8330 DU        1 1K9      0.173333
     49 H17        -0.8130    1.3360    6.2460 DU        1 1K9      0.173333
     50 H18        -3.9670    0.1970    3.4300 DU        1 1K9      0.173333
@<TRIPOS>BOND
     1    1    2 1   
     2    2    3 1   
     3    2    4 1   
     4    2    5 1   
     5    5    6 1   
     6    6   33 1   
     7    7    8 1   
     8    7   34 1   
     9    8   35 1   
    10    9   10 1   
    11    9   36 1   
    12   11   12 1   
    13   11   37 1   
    14   12   13 1   
    15   12   14 1   
    16   14   15 1   
    17   14   38 1   
    18   15   16 1   
    19   15   27 1   
    20   16   17 1   
    21   16   39 1   
    22   17   18 1   
    23   18   19 1   
    24   18   20 1   
    25   21   22 1   
    26   21   40 1   
    27   22   23 1   
    28   22   24 1   
    29   22   41 1   
    30   23   24 1   
    31   23   42 1   
    32   23   43 1   
    33   24   44 1   
    34   24   45 1   
    35   25   26 1   
    36   25   46 1   
    37   26   47 1   
    38   28   29 1   
    39   28   32 1   
    40   29   30 1   
    41   30   31 1   
    42   31   32 1   
@<TRIPOS>SUBSTRUCTURE
     1 1K9         1 TEMP              0 ****  ****    0 ROOT
