@<TRIPOS>MOLECULE
1KA
   15    14     1     0     0
SMALL
bcc


@<TRIPOS>ATOM
      1 C1         -0.1480    0.1490   -0.0250 c         1 1KA      0.569900
      2 O1          0.6920   -0.6830   -0.3640 o         1 1KA     -0.521100
      3 C2         -0.8390    0.0700    1.3120 c3        1 1KA      0.006400
      4 O2         -1.7350    1.1760    1.3810 os        1 1KA     -0.435600
      5 C3         -2.4320    1.2300    2.6250 c3        1 1KA      0.088400
      6 C4         -3.3770    2.4240    2.5270 c3        1 1KA      0.131400
      7 O4         -4.4080    2.1960    1.5910 oh        1 1KA     -0.596800
      8 H1         -0.4470    1.0010   -0.6730 h4        1 1KA      0.020200
      9 H2         -1.4100   -0.8930    1.4000 h1        1 1KA      0.063200
     10 H3         -0.0860    0.1310    2.1430 h1        1 1KA      0.063200
     11 H4         -3.0070    0.2790    2.7770 h1        1 1KA      0.043200
     12 H5         -1.7010    1.3710    3.4630 h1        1 1KA      0.043200
     13 H6         -2.8010    3.3480    2.2540 h1        1 1KA      0.056200
     14 H7         -3.9000    2.5730    3.5090 h1        1 1KA      0.056200
     15 H8         -3.9840    2.0260    0.7400 ho        1 1KA      0.411000
@<TRIPOS>BOND
     1    1    2 2   
     2    1    3 1   
     3    1    8 1   
     4    3    4 1   
     5    3    9 1   
     6    3   10 1   
     7    4    5 1   
     8    5    6 1   
     9    5   11 1   
    10    5   12 1   
    11    6    7 1   
    12    6   13 1   
    13    6   14 1   
    14    7   15 1   
@<TRIPOS>SUBSTRUCTURE
     1 1KA         1 TEMP              0 ****  ****    0 ROOT
