@<TRIPOS>MOLECULE
1KA
   15    13     1     0     0
SMALL
bcc


@<TRIPOS>ATOM
      1 C1          0.8790   -1.2790   -2.4290 c1        1 1KA      0.189000
      2 O1          2.0950   -1.2790   -2.4290 o         1 1KA     -0.284000
      3 C2          0.1220   -1.2790   -1.1190 c2        1 1KA     -0.094000
      4 O2          0.3110   -0.0450   -0.4680 os        1 1KA     -0.285000
      5 C3         -0.4370    0.0950    0.7180 c3        1 1KA     -0.021000
      6 C4         -0.1550    1.4470    1.3350 c3        1 1KA     -0.022000
      7 O4         -0.9060    1.5890    2.5210 oh        1 1KA     -0.329000
      8 H1          0.3910   -1.3000   -3.2740 ha        1 1KA      0.114000
      9 H2          0.4550   -2.0010   -0.5510 h4        1 1KA      0.102000
     10 H3         -0.8290   -1.4140   -1.2920 h4        1 1KA      0.102000
     11 H4         -1.3890    0.0230    0.5120 h1        1 1KA      0.084000
     12 H5         -0.1860   -0.6080    1.3460 h1        1 1KA      0.084000
     13 H6         -0.4050    2.1510    0.7060 h1        1 1KA      0.076000
     14 H7          0.7960    1.5190    1.5420 h1        1 1KA      0.076000
     15 H8         -0.7410    2.3820    2.8830 ho        1 1KA      0.206000
@<TRIPOS>BOND
     1    1    2 1   
     2    1    8 1   
     3    3    4 1   
     4    3    9 1   
     5    3   10 1   
     6    4    5 1   
     7    5    6 1   
     8    5   11 1   
     9    5   12 1   
    10    6    7 1   
    11    6   13 1   
    12    6   14 1   
    13    7   15 1   
@<TRIPOS>SUBSTRUCTURE
     1 1KA         1 TEMP              0 ****  ****    0 ROOT
