@<TRIPOS>MOLECULE
1KA
   15    14     1     0     0
SMALL
bcc


@<TRIPOS>ATOM
      1 C1         -0.1260    0.1640   -0.0100 c         1 1KA      0.569900
      2 O1          0.7510   -0.6390   -0.3230 o         1 1KA     -0.521100
      3 C2         -0.7920    0.1160    1.3420 c3        1 1KA      0.006400
      4 O2         -1.7430    1.1760    1.3730 os        1 1KA     -0.435600
      5 C3         -2.4230    1.2550    2.6260 c3        1 1KA      0.088400
      6 C4         -3.4320    2.3910    2.4870 c3        1 1KA      0.131400
      7 O4         -4.4640    2.0620    1.5820 oh        1 1KA     -0.596800
      8 H1         -0.4800    0.9670   -0.6920 h4        1 1KA      0.020200
      9 H2         -1.3100   -0.8700    1.4860 h1        1 1KA      0.063200
     10 H3         -0.0310    0.2560    2.1560 h1        1 1KA      0.063200
     11 H4         -2.9430    0.2830    2.8350 h1        1 1KA      0.043200
     12 H5         -1.6880    1.4760    3.4420 h1        1 1KA      0.043200
     13 H6         -2.9110    3.3290    2.1580 h1        1 1KA      0.056200
     14 H7         -3.9470    2.5610    3.4690 h1        1 1KA      0.056200
     15 H8         -4.0450    1.8720    0.7330 ho        1 1KA      0.411000
@<TRIPOS>BOND
     1    1    2 2   
     2    1    3 1   
     3    1    8 1   
     4    3    4 1   
     5    3    9 1   
     6    3   10 1   
     7    4    5 1   
     8    5    6 1   
     9    5   11 1   
    10    5   12 1   
    11    6    7 1   
    12    6   13 1   
    13    6   14 1   
    14    7   15 1   
@<TRIPOS>SUBSTRUCTURE
     1 1KA         1 TEMP              0 ****  ****    0 ROOT
