@<TRIPOS>MOLECULE
1KA
   15    14     1     0     0
SMALL
bcc


@<TRIPOS>ATOM
      1 C1         -2.1040    0.6070    0.1020 c         1 1KA      0.569900
      2 O1         -3.2810    0.4970    0.4440 o         1 1KA     -0.521100
      3 C2         -1.0880   -0.4590    0.4240 c3        1 1KA      0.006400
      4 O2          0.1560   -0.0200   -0.1140 os        1 1KA     -0.435600
      5 C3          1.2020   -0.9680    0.1010 c3        1 1KA      0.088400
      6 C4          2.4650   -0.3400   -0.4800 c3        1 1KA      0.131400
      7 O4          2.8850    0.7770    0.2740 oh        1 1KA     -0.596800
      8 H1         -1.7200    1.4850   -0.4600 h4        1 1KA      0.020200
      9 H2         -1.0010   -0.5910    1.5360 h1        1 1KA      0.063200
     10 H3         -1.3870   -1.4360   -0.0420 h1        1 1KA      0.063200
     11 H4          1.3200   -1.1560    1.2010 h1        1 1KA      0.043200
     12 H5          0.9580   -1.9270   -0.4250 h1        1 1KA      0.043200
     13 H6          3.3140   -1.0710   -0.4150 h1        1 1KA      0.056200
     14 H7          2.2910   -0.0450   -1.5490 h1        1 1KA      0.056200
     15 H8          2.1550    1.4110    0.2690 ho        1 1KA      0.411000
@<TRIPOS>BOND
     1    1    2 2   
     2    1    3 1   
     3    1    8 1   
     4    3    4 1   
     5    3    9 1   
     6    3   10 1   
     7    4    5 1   
     8    5    6 1   
     9    5   11 1   
    10    5   12 1   
    11    6    7 1   
    12    6   13 1   
    13    6   14 1   
    14    7   15 1   
@<TRIPOS>SUBSTRUCTURE
     1 1KA         1 TEMP              0 ****  ****    0 ROOT
