@<TRIPOS>MOLECULE
1KC
   25    23     1     0     0
SMALL
bcc


@<TRIPOS>ATOM
      1 CAS        -0.6510    0.3930   -1.0580 c3        1 1KC     -0.192000
      2 CBA         1.8810   -0.3970    2.5210 c1        1 1KC      0.462000
      3 OAH         2.0660    0.7710    2.3760 o         1 1KC     -0.247500
      4 OAX         0.4290   -0.7020    0.7750 oh        1 1KC     -0.452000
      5 CBI        -0.5940    0.2940    0.4620 c3        1 1KC      0.129000
      6 CAO        -1.9100    0.0980    1.0210 c1        1 1KC     -0.546000
      7 CAM        -2.4220   -0.8430    1.7840 c2        1 1KC     -0.260000
      8 CAP        -3.8300   -0.7990    2.2640 c3        1 1KC     -0.068000
      9 CAQ        -4.6340   -1.9150    1.6390 c3        1 1KC     -0.228000
     10 SAY        -6.2380   -1.9750    2.4210 ss        1 1KC     -0.007000
     11 CAB        -7.0490   -3.2190    1.4920 c3        1 1KC     -0.331000
     12 H1          0.3690    0.5630   -1.4760 hc        1 1KC      0.053000
     13 H2         -1.0580   -0.5510   -1.4900 hc        1 1KC      0.053000
     14 H35        -1.3170    1.2380   -1.3480 hc        1 1KC      0.053000
     15 H36        -0.1410    1.2400    0.8850 h1        1 1KC      0.074000
     16 H38        -1.8810   -1.7410    2.1530 ha        1 1KC     -0.002000
     17 H40        -4.7570   -1.7360    0.5450 h1        1 1KC      0.088500
     18 H41        -3.8580   -0.9090    3.3820 hc        1 1KC      0.065000
     19 H42        -4.2930    0.1890    2.0050 hc        1 1KC      0.065000
     20 H43        -4.1230   -2.8960    1.7800 h1        1 1KC      0.088500
     21 H44        -7.1100   -2.9510    0.4130 h1        1 1KC      0.084667
     22 H45        -6.5320   -4.2000    1.5790 h1        1 1KC      0.084667
     23 H46        -8.0790   -3.3130    1.9020 h1        1 1KC      0.084667
     24 OXT         1.8060   -1.5620    2.7670 o         1 1KC     -0.247500
     25 H3         -0.0280   -1.5160    1.0010 ho        1 1KC      0.200000
@<TRIPOS>BOND
     1    1    5 1   
     2    1   12 1   
     3    1   13 1   
     4    1   14 1   
     5    2    3 1   
     6    2   24 1   
     7    4    5 1   
     8    4   25 1   
     9    5    6 1   
    10    5   15 1   
    11    6    7 1   
    12    7    8 1   
    13    7   16 1   
    14    8    9 1   
    15    8   18 1   
    16    8   19 1   
    17    9   10 1   
    18    9   17 1   
    19    9   20 1   
    20   10   11 1   
    21   11   21 1   
    22   11   22 1   
    23   11   23 1   
@<TRIPOS>SUBSTRUCTURE
     1 1KC         1 TEMP              0 ****  ****    0 ROOT
