@<TRIPOS>MOLECULE
1KC
   25    23     1     0     0
SMALL
bcc


@<TRIPOS>ATOM
      1 CAS        -0.8780   -0.0430   -0.5110 c3        1 1KC     -0.234000
      2 CBA         1.8540   -1.9880    0.9600 c1        1 1KC      0.445000
      3 OAH         1.4080   -3.0450    1.2790 o         1 1KC     -0.226500
      4 OAX        -0.3850   -1.2130    1.5240 oh        1 1KC     -0.384000
      5 CBI        -1.1870   -0.1620    0.9750 c3        1 1KC      0.073000
      6 CAO        -2.6400   -0.3920    1.2030 c2        1 1KC     -0.273000
      7 CAM        -3.4220    0.4150    1.9250 c2        1 1KC     -0.103000
      8 CAP        -4.8830    0.1850    2.1460 c3        1 1KC      0.017000
      9 CAQ        -5.5200   -0.7760    1.2560 c2        1 1KC     -0.838000
     10 SAY        -6.0640   -2.2130    1.6910 ss        1 1KC      0.174000
     11 CAB        -4.7850   -3.4280    1.4890 c3        1 1KC     -0.434000
     12 H1          0.2270    0.0140   -0.6660 hc        1 1KC      0.072667
     13 H2         -1.2720   -0.9290   -1.0620 hc        1 1KC      0.072667
     14 H35        -1.3580    0.8760   -0.9210 hc        1 1KC      0.072667
     15 H36        -0.8220    0.7620    1.5110 h1        1 1KC      0.085000
     16 H38        -3.0030    1.3140    2.4110 ha        1 1KC      0.066000
     17 H40        -3.0710   -1.2900    0.7240 ha        1 1KC      0.157000
     18 H41        -5.3770    1.1990    2.0500 hc        1 1KC      0.036000
     19 H42        -4.9970   -0.1260    3.2240 hc        1 1KC      0.036000
     20 H43        -5.6000   -0.4510    0.2160 h4        1 1KC      0.070000
     21 H44        -4.4180   -3.4690    0.4410 h1        1 1KC      0.042000
     22 H45        -5.2310   -4.4100    1.7580 h1        1 1KC      0.042000
     23 H46        -3.9140   -3.2300    2.1490 h1        1 1KC      0.042000
     24 OXT         2.3650   -0.9660    0.6230 o         1 1KC     -0.226500
     25 H3         -0.9170   -2.0180    1.5360 ho        1 1KC      0.217000
@<TRIPOS>BOND
     1    1    5 1   
     2    1   12 1   
     3    1   13 1   
     4    1   14 1   
     5    2    3 1   
     6    2   24 1   
     7    4    5 1   
     8    4   25 1   
     9    5    6 1   
    10    5   15 1   
    11    6    7 1   
    12    6   17 1   
    13    7    8 1   
    14    7   16 1   
    15    8    9 1   
    16    8   18 1   
    17    8   19 1   
    18    9   10 1   
    19    9   20 1   
    20   10   11 1   
    21   11   21 1   
    22   11   22 1   
    23   11   23 1   
@<TRIPOS>SUBSTRUCTURE
     1 1KC         1 TEMP              0 ****  ****    0 ROOT
