@<TRIPOS>MOLECULE
1KJ
   32    30     1     0     0
SMALL
bcc


@<TRIPOS>ATOM
      1 OA2         1.9490    0.8940    4.3570 o         1 1KJ     -0.224000
      2 C           2.1300    0.6800    3.2110 c1        1 1KJ      0.449000
      3 OA1         2.3160    0.4600    2.0460 o         1 1KJ     -0.224000
      4 CA          2.0640    0.0350   -2.0390 c2        1 1KJ     -0.609000
      5 N           2.5940    0.1510   -0.7240 n4        1 1KJ      0.082000
      6 CB          1.7920   -1.2210   -2.6820 c3        1 1KJ     -0.016000
      7 CG          2.9040   -1.5210   -3.7420 c3        1 1KJ     -0.220000
      8 CD          2.4790   -2.6930   -4.5860 c3        1 1KJ     -0.134000
      9 NE          3.4500   -2.9530   -5.7260 n4        1 1KJ     -0.049000
     10 CZ          3.0500   -4.0670   -6.6500 c2        1 1KJ      0.028000
     11 NH2         2.0620   -4.8650   -6.5970 n2        1 1KJ     -0.131000
     12 NH1         4.0060   -4.3000   -7.8470 n4        1 1KJ      0.074000
     13 OH          5.2900   -4.1630   -7.4040 os        1 1KJ     -0.228000
     14 C1          6.3170   -4.8900   -8.1300 c3        1 1KJ     -0.108000
     15 H2          1.8540    0.9850   -2.5390 hx        1 1KJ      0.178000
     16 H3          2.1900    0.9760   -0.2620 hn        1 1KJ      0.220667
     17 H4          3.6140    0.2660   -0.7300 hn        1 1KJ      0.220667
     18 H6          0.8210   -1.1530   -3.2450 hc        1 1KJ      0.087500
     19 H7          1.7390   -2.0970   -1.9830 hc        1 1KJ      0.087500
     20 H8          3.8630   -1.7300   -3.2060 hc        1 1KJ      0.108500
     21 H9          3.0310   -0.5950   -4.3600 hc        1 1KJ      0.108500
     22 H10         1.4710   -2.4910   -5.0510 hx        1 1KJ      0.138000
     23 H11         2.4270   -3.6310   -3.9660 hx        1 1KJ      0.138000
     24 H12         3.5520   -2.0820   -6.2670 hn        1 1KJ      0.254500
     25 H13         1.3490   -4.8250   -5.8960 hn        1 1KJ      0.276000
     26 H15         3.8150   -3.5810   -8.5710 hn        1 1KJ      0.279000
     27 H16         6.1480   -5.9920   -8.0540 h1        1 1KJ      0.152667
     28 H17         6.3780   -4.5360   -9.1870 h1        1 1KJ      0.152667
     29 H18         7.2300   -4.5790   -7.5460 h1        1 1KJ      0.152667
     30 HN3         2.3710   -0.6680   -0.1520 hn        1 1KJ      0.220667
     31 HE3         4.3760   -3.1780   -5.3270 hn        1 1KJ      0.254500
     32 HH13        3.8410   -5.2470   -8.2530 hn        1 1KJ      0.279000
@<TRIPOS>BOND
     1    1    2 1   
     2    2    3 1   
     3    4    5 1   
     4    4    6 1   
     5    4   15 1   
     6    5   16 1   
     7    5   17 1   
     8    5   30 1   
     9    6    7 1   
    10    6   18 1   
    11    6   19 1   
    12    7    8 1   
    13    7   20 1   
    14    7   21 1   
    15    8    9 1   
    16    8   22 1   
    17    8   23 1   
    18    9   10 1   
    19    9   24 1   
    20    9   31 1   
    21   10   11 1   
    22   10   12 1   
    23   11   25 1   
    24   12   13 1   
    25   12   26 1   
    26   12   32 1   
    27   13   14 1   
    28   14   27 1   
    29   14   28 1   
    30   14   29 1   
@<TRIPOS>SUBSTRUCTURE
     1 1KJ         1 TEMP              0 ****  ****    0 ROOT
