@<TRIPOS>MOLECULE
1KJ
   32    30     1     0     0
SMALL
bcc


@<TRIPOS>ATOM
      1 OA2         1.0250    2.2660    3.6140 o         1 1KJ     -0.224000
      2 C           1.1880    1.7820    2.5500 c1        1 1KJ      0.449000
      3 OA1         1.3560    1.2890    1.4690 o         1 1KJ     -0.224000
      4 CA          1.2280   -0.9750   -1.9650 c2        1 1KJ     -0.609000
      5 N           1.4920    0.0890   -1.0590 n4        1 1KJ      0.082000
      6 CB          2.1510   -2.0420   -2.2350 c3        1 1KJ     -0.016000
      7 CG          2.8290   -1.8120   -3.6260 c3        1 1KJ     -0.220000
      8 CD          3.5960   -3.0490   -4.0130 c3        1 1KJ     -0.134000
      9 NE          4.1710   -2.9430   -5.4160 n4        1 1KJ     -0.050000
     10 CZ          4.8840   -4.1750   -5.8970 c2        1 1KJ      0.025000
     11 NH2         5.1470   -5.2600   -5.2910 n2        1 1KJ     -0.131000
     12 NH1         5.3440   -4.1280   -7.3750 n4        1 1KJ      0.075000
     13 OH          4.3510   -3.5610   -8.1210 os        1 1KJ     -0.227000
     14 C1          4.1760   -4.0560   -9.4760 c3        1 1KJ     -0.108000
     15 H2          0.2450   -0.9410   -2.4450 hx        1 1KJ      0.178000
     16 H3          2.1670   -0.1860   -0.3380 hn        1 1KJ      0.220667
     17 H4          0.6220    0.3610   -0.5850 hn        1 1KJ      0.220667
     18 H6          2.9650   -2.1550   -1.4710 hc        1 1KJ      0.087000
     19 H7          1.5910   -3.0160   -2.3070 hc        1 1KJ      0.087000
     20 H8          2.0130   -1.5880   -4.3600 hc        1 1KJ      0.108500
     21 H9          3.5020   -0.9200   -3.5530 hc        1 1KJ      0.108500
     22 H10         4.4560   -3.2200   -3.3070 hx        1 1KJ      0.138000
     23 H11         2.9140   -3.9470   -4.0040 hx        1 1KJ      0.138000
     24 H12         3.3950   -2.7360   -6.0670 hn        1 1KJ      0.255000
     25 H13         4.9240   -5.4320   -4.3300 hn        1 1KJ      0.275000
     26 H15         6.1930   -3.5350   -7.4420 hn        1 1KJ      0.280000
     27 H16         3.3190   -3.4060   -9.8140 h1        1 1KJ      0.153000
     28 H17         3.8830   -5.1340   -9.4670 h1        1 1KJ      0.153000
     29 H18         5.0910   -3.8630  -10.0870 h1        1 1KJ      0.153000
     30 HN3         1.8600    0.9190   -1.5370 hn        1 1KJ      0.220667
     31 HE3         4.8210   -2.1440   -5.4460 hn        1 1KJ      0.255000
     32 HH13        5.5730   -5.0920   -7.7050 hn        1 1KJ      0.280000
@<TRIPOS>BOND
     1    1    2 1   
     2    2    3 1   
     3    4    5 1   
     4    4    6 1   
     5    4   15 1   
     6    5   16 1   
     7    5   17 1   
     8    5   30 1   
     9    6    7 1   
    10    6   18 1   
    11    6   19 1   
    12    7    8 1   
    13    7   20 1   
    14    7   21 1   
    15    8    9 1   
    16    8   22 1   
    17    8   23 1   
    18    9   10 1   
    19    9   24 1   
    20    9   31 1   
    21   10   11 1   
    22   10   12 1   
    23   11   25 1   
    24   12   13 1   
    25   12   26 1   
    26   12   32 1   
    27   13   14 1   
    28   14   27 1   
    29   14   28 1   
    30   14   29 1   
@<TRIPOS>SUBSTRUCTURE
     1 1KJ         1 TEMP              0 ****  ****    0 ROOT
