@<TRIPOS>MOLECULE
1KJ
   29    25     1     0     0
SMALL
bcc


@<TRIPOS>ATOM
      1 OA2        -0.4850   -0.7720    5.0440 o         1 1KJ     -0.576500
      2 C           0.2470   -1.4680    4.2870 c1        1 1KJ      0.308000
      3 OA1         1.4630   -1.6680    4.5890 o         1 1KJ     -0.576500
      4 CA         -0.3280   -2.0660    3.0120 c2        1 1KJ     -0.130000
      5 N          -1.3920   -2.9390    3.3340 n3        1 1KJ     -0.325000
      6 CB         -0.8480   -0.9420    2.1050 c3        1 1KJ     -0.143000
      7 CG         -0.1470   -1.0100    0.7590 c3        1 1KJ     -0.162000
      8 CD         -0.6510    0.1330   -0.1400 c3        1 1KJ     -0.068000
      9 NE          0.1180    0.1590   -1.3630 n3        1 1KJ     -0.326000
     10 CZ         -0.1620    1.1550   -2.3680 c1        1 1KJ      0.099000
     11 NH2        -1.4120    1.4420   -2.6850 n1        1 1KJ     -0.326000
     12 NH1         0.9010    1.8250   -3.0150 n2        1 1KJ     -0.111000
     13 OH          0.6530    2.5770   -4.1200 os        1 1KJ     -0.213000
     14 C1          1.8040    3.2900   -4.4790 c3        1 1KJ     -0.064000
     15 H2          0.3720   -2.5660    2.5420 h4        1 1KJ      0.080000
     16 H3         -1.3170   -3.2040    4.1980 hn        1 1KJ      0.127000
     17 H4         -1.3620   -3.6810    2.7800 hn        1 1KJ      0.127000
     18 H6         -0.6660   -0.0690    2.5250 hc        1 1KJ      0.090000
     19 H7         -1.8210   -1.0480    1.9750 hc        1 1KJ      0.090000
     20 H8         -0.3420   -1.8750    0.3310 hc        1 1KJ      0.084500
     21 H9          0.8100   -0.9220    0.8880 hc        1 1KJ      0.084500
     22 H10        -0.5460    0.9910    0.3310 h1        1 1KJ      0.079000
     23 H11        -1.5950   -0.0100   -0.3510 h1        1 1KJ      0.079000
     24 H12         0.8130   -0.4180   -1.4750 hn        1 1KJ      0.193000
     25 H13        -2.0820    1.0210   -2.2780 DU        1 1KJ      0.153000
     26 H15         1.7590    1.6950   -2.7360 hn        1 1KJ      0.179000
     27 H16         2.0830    3.8590   -3.7300 h1        1 1KJ      0.083000
     28 H17         1.6100    3.8510   -5.2620 h1        1 1KJ      0.083000
     29 H18         2.5220    2.6610   -4.6970 h1        1 1KJ      0.083000
@<TRIPOS>BOND
     1    1    2 1   
     2    2    3 1   
     3    4    5 1   
     4    4    6 1   
     5    4   15 1   
     6    5   16 1   
     7    5   17 1   
     8    6    7 1   
     9    6   18 1   
    10    6   19 1   
    11    7    8 1   
    12    7   20 1   
    13    7   21 1   
    14    8    9 1   
    15    8   22 1   
    16    8   23 1   
    17    9   10 1   
    18    9   24 1   
    19   10   11 1   
    20   12   13 1   
    21   12   26 1   
    22   13   14 1   
    23   14   27 1   
    24   14   28 1   
    25   14   29 1   
@<TRIPOS>SUBSTRUCTURE
     1 1KJ         1 TEMP              0 ****  ****    0 ROOT
