@<TRIPOS>MOLECULE
1KJ
   29    28     1     0     0
SMALL
bcc


@<TRIPOS>ATOM
      1 OA2        -4.3590   -1.5340    0.3990 o         1 1KJ     -0.841800
      2 C          -4.3510   -0.2830    0.5560 c         1 1KJ      0.888600
      3 OA1        -5.2190    0.3660    1.2070 o         1 1KJ     -0.841800
      4 CA         -3.1940    0.5220   -0.1280 c3        1 1KJ      0.016500
      5 N          -3.2200    1.9560    0.1360 n3        1 1KJ     -0.893800
      6 CB         -1.8680   -0.1370    0.2530 c3        1 1KJ     -0.063400
      7 CG         -0.7170    0.3660   -0.5920 c3        1 1KJ     -0.083400
      8 CD          0.5640   -0.3830   -0.2250 c3        1 1KJ      0.168800
      9 NE          1.7180    0.0550   -0.9850 nh        1 1KJ     -0.841200
     10 CZ          3.0110   -0.2790   -0.4670 c2        1 1KJ      0.691100
     11 NH2         3.2920   -1.2990    0.2990 n2        1 1KJ     -0.858100
     12 NH1         4.0730    0.6650   -0.8950 nh        1 1KJ     -0.519700
     13 OH          5.3270    0.2000   -0.7570 os        1 1KJ     -0.233100
     14 C1          5.9400    0.4890    0.5130 c3        1 1KJ      0.125700
     15 H2         -3.3400    0.4000   -1.2410 h1        1 1KJ      0.041700
     16 H3         -4.1770    2.2560    0.0410 hn        1 1KJ      0.331300
     17 H4         -2.9770    2.1050    1.1000 hn        1 1KJ      0.331300
     18 H6         -1.6480    0.0400    1.3380 hc        1 1KJ      0.050200
     19 H7         -1.9990   -1.2440    0.1120 hc        1 1KJ      0.050200
     20 H8         -0.9530    0.2120   -1.6770 hc        1 1KJ      0.045700
     21 H9         -0.5800    1.4670   -0.4300 hc        1 1KJ      0.045700
     22 H10         0.7340   -0.2700    0.8860 h1        1 1KJ      0.039700
     23 H11         0.4180   -1.4820   -0.4350 h1        1 1KJ      0.039700
     24 H12         1.6280    1.0010   -1.2990 hn        1 1KJ      0.396800
     25 H13         2.5100   -1.8320    0.6120 hn        1 1KJ      0.397400
     26 H15         3.9670    0.8010   -1.9040 hn        1 1KJ      0.383800
     27 H16         5.9960    1.5900    0.6850 h1        1 1KJ      0.043700
     28 H17         5.3960   -0.0120    1.3480 h1        1 1KJ      0.043700
     29 H18         6.9620    0.0520    0.3860 h1        1 1KJ      0.043700
@<TRIPOS>BOND
     1    1    2 1   
     2    2    3 1   
     3    2    4 1   
     4    4    5 1   
     5    4    6 1   
     6    4   15 1   
     7    5   16 1   
     8    5   17 1   
     9    6    7 1   
    10    6   18 1   
    11    6   19 1   
    12    7    8 1   
    13    7   20 1   
    14    7   21 1   
    15    8    9 1   
    16    8   22 1   
    17    8   23 1   
    18    9   10 1   
    19    9   24 1   
    20   10   11 2   
    21   10   12 1   
    22   11   25 1   
    23   12   13 1   
    24   12   26 1   
    25   13   14 1   
    26   14   27 1   
    27   14   28 1   
    28   14   29 1   
@<TRIPOS>SUBSTRUCTURE
     1 1KJ         1 TEMP              0 ****  ****    0 ROOT
