@<TRIPOS>MOLECULE
1KJ
   32    30     1     0     0
SMALL
bcc


@<TRIPOS>ATOM
      1 OA2         1.2130    2.2300    3.6850 o         1 1KJ     -0.224000
      2 C           1.3670    1.7660    2.6110 c1        1 1KJ      0.449000
      3 OA1         1.5280    1.2940    1.5200 o         1 1KJ     -0.224000
      4 CA          1.2950   -0.8160   -2.0060 c2        1 1KJ     -0.609000
      5 N           1.6430    0.1740   -1.0450 nz        1 1KJ      0.082000
      6 CB          2.0930   -1.9800   -2.2770 c3        1 1KJ     -0.016000
      7 CG          2.8640   -1.7860   -3.6240 c3        1 1KJ     -0.220000
      8 CD          3.4910   -3.0950   -4.0280 c3        1 1KJ     -0.134000
      9 NE          4.1460   -3.0120   -5.3970 ny        1 1KJ     -0.050000
     10 CZ          4.7250   -4.3050   -5.8950 c2        1 1KJ      0.025000
     11 NH2         4.8210   -5.4360   -5.3230 n2        1 1KJ     -0.131000
     12 NH1         5.2630   -4.2640   -7.3470 ny        1 1KJ      0.075000
     13 OH          4.3870   -3.5510   -8.1140 os        1 1KJ     -0.227000
     14 C1          4.2230   -3.9700   -9.4960 c3        1 1KJ     -0.108000
     15 H2          0.3500   -0.6420   -2.5290 hx        1 1KJ      0.178000
     16 H3          2.1330    0.9690   -1.4710 hn        1 1KJ      0.220667
     17 H4          2.2410   -0.2080   -0.3060 hn        1 1KJ      0.220667
     18 H6          1.4220   -2.8720   -2.4150 hc        1 1KJ      0.087000
     19 H7          2.8470   -2.2200   -1.4820 hc        1 1KJ      0.087000
     20 H8          3.6360   -0.9890   -3.4840 hc        1 1KJ      0.108500
     21 H9          2.1200   -1.4370   -4.3860 hc        1 1KJ      0.108500
     22 H10         4.2870   -3.3970   -3.2900 hx        1 1KJ      0.138000
     23 H11         2.7040   -3.9010   -4.0870 hx        1 1KJ      0.138000
     24 H12         3.4350   -2.6870   -6.0740 hn        1 1KJ      0.255000
     25 H13         4.5300   -5.6130   -4.3820 hn        1 1KJ      0.275000
     26 H15         6.1810   -3.7800   -7.3490 hn        1 1KJ      0.280000
     27 H16         3.8010   -5.0030   -9.5470 h1        1 1KJ      0.153000
     28 H17         3.4720   -3.2060   -9.8460 h1        1 1KJ      0.153000
     29 H18         5.1860   -3.8690  -10.0530 h1        1 1KJ      0.153000
     30 HN3         0.7890    0.5360   -0.6010 hn        1 1KJ      0.220667
     31 HE3         4.8900   -2.3000   -5.3640 hn        1 1KJ      0.255000
     32 HH13        5.3870   -5.2360   -7.7060 hn        1 1KJ      0.280000
@<TRIPOS>BOND
     1    1    2 1   
     2    2    3 1   
     3    4    5 1   
     4    4    6 1   
     5    4   15 1   
     6    5   16 1   
     7    5   17 1   
     8    5   30 1   
     9    6    7 1   
    10    6   18 1   
    11    6   19 1   
    12    7    8 1   
    13    7   20 1   
    14    7   21 1   
    15    8    9 1   
    16    8   22 1   
    17    8   23 1   
    18    9   10 1   
    19    9   24 1   
    20    9   31 1   
    21   10   11 1   
    22   10   12 1   
    23   11   25 1   
    24   12   13 1   
    25   12   26 1   
    26   12   32 1   
    27   13   14 1   
    28   14   27 1   
    29   14   28 1   
    30   14   29 1   
@<TRIPOS>SUBSTRUCTURE
     1 1KJ         1 TEMP              0 ****  ****    0 ROOT
