@<TRIPOS>MOLECULE
1KM
   26    24     1     0     0
SMALL
bcc


@<TRIPOS>ATOM
      1 O          -4.7540   -1.1010   -0.3610 o         1 1KM     -0.617500
      2 C          -4.3530    0.1020   -0.3140 c2        1 1KM      0.331000
      3 OXT        -5.0250    1.0530   -0.8190 o         1 1KM     -0.617500
      4 CA         -3.0160    0.4460    0.4050 c3        1 1KM     -0.079000
      5 N          -2.8660   -0.2920    1.6520 n3        1 1KM     -0.346000
      6 CB         -1.8490    0.2760   -0.5730 c3        1 1KM     -0.335000
      7 SAJ        -0.2990    0.7830    0.1730 ss        1 1KM      0.079000
      8 CAN         0.9390   -0.1830   -0.4450 c2        1 1KM     -0.852000
      9 PAO         3.1460    0.7780   -0.4230 p3        1 1KM      2.542000
     10 OAG         3.7280   -0.4080   -1.1200 o         1 1KM     -1.200667
     11 OAH         3.0000    2.0120   -1.2380 o         1 1KM     -1.200667
     12 OAF         3.5010    0.9340    1.0130 o         1 1KM     -1.200667
     13 CAL         0.9210   -1.6050    0.0310 c3        1 1KM      0.130000
     14 CAA         1.4520   -1.7130    1.4590 c3        1 1KM     -0.236000
     15 OAE         1.6820   -2.4760   -0.8090 oh        1 1KM     -0.426000
     16 H2         -3.0650    1.5390    0.6890 h1        1 1KM      0.076000
     17 H3         -3.2030   -1.2280    1.5080 hn        1 1KM      0.130500
     18 H4         -1.8820   -0.3490    1.8660 hn        1 1KM      0.130500
     19 H6         -1.7830   -0.7830   -0.9150 h1        1 1KM      0.076000
     20 H7         -2.0490    0.9110   -1.4670 h1        1 1KM      0.076000
     21 H8          1.1450   -0.0960   -1.5200 h4        1 1KM      0.089000
     22 H11        -0.1210   -2.0470   -0.0080 h1        1 1KM      0.022000
     23 H12         0.7000   -1.3040    2.1720 hc        1 1KM      0.059000
     24 H13         1.6730   -2.7740    1.7250 hc        1 1KM      0.059000
     25 H14         2.3890   -1.0980    1.5260 hc        1 1KM      0.059000
     26 H15         2.4820   -1.9760   -1.0560 ho        1 1KM      0.249000
@<TRIPOS>BOND
     1    1    2 1   
     2    2    3 1   
     3    2    4 1   
     4    4    5 1   
     5    4    6 1   
     6    4   16 1   
     7    5   17 1   
     8    5   18 1   
     9    6    7 1   
    10    6   19 1   
    11    6   20 1   
    12    7    8 1   
    13    8   13 1   
    14    8   21 1   
    15    9   10 1   
    16    9   11 1   
    17    9   12 1   
    18   13   14 1   
    19   13   15 1   
    20   13   22 1   
    21   14   23 1   
    22   14   24 1   
    23   14   25 1   
    24   15   26 1   
@<TRIPOS>SUBSTRUCTURE
     1 1KM         1 TEMP              0 ****  ****    0 ROOT
