@<TRIPOS>MOLECULE
1KM
   26    23     1     0     0
SMALL
bcc


@<TRIPOS>ATOM
      1 O           1.3200    1.9710   -3.7070 o         1 1KM     -0.620000
      2 C           0.1160    1.7930   -3.3850 c1        1 1KM      0.331000
      3 OXT        -0.7200    1.4280   -4.2520 os        1 1KM     -0.922500
      4 CA         -0.3250    2.0170   -1.9570 c3        1 1KM     -0.082000
      5 N          -1.5200    2.7880   -1.9450 n3        1 1KM     -0.347000
      6 CB         -0.5780    0.6830   -1.2920 c3        1 1KM     -0.320000
      7 SAJ         0.5660    0.4620    0.0440 ss        1 1KM      0.074000
      8 CAN         0.3070   -1.1280    0.7860 c3        1 1KM     -0.853000
      9 PAO         1.5740   -2.2860    0.1950 p3        1 1KM      2.548000
     10 OAG         1.5300   -3.5470    1.0250 os        1 1KM     -0.922500
     11 OAH         1.3090   -2.6270   -1.2520 o         1 1KM     -1.220500
     12 OAF         2.9370   -1.6490    0.3210 o         1 1KM     -1.220500
     13 CAL         0.4010   -1.0020    2.2900 c3        1 1KM      0.093000
     14 CAA        -0.8720   -1.5220    2.9200 c3        1 1KM     -0.215000
     15 OAE         0.5790    0.3500    2.6380 oh        1 1KM     -0.393000
     16 H2          0.3760    2.4950   -1.4710 h1        1 1KM      0.076000
     17 H3         -1.5510    3.2930   -1.1820 hn        1 1KM      0.138000
     18 H4         -1.5360    3.3390   -2.6770 hn        1 1KM      0.138000
     19 H6         -1.4920    0.6600   -0.9460 h1        1 1KM      0.081000
     20 H7         -0.4590   -0.0340   -1.9460 h1        1 1KM      0.081000
     21 H8         -0.5780   -1.4600    0.5420 h1        1 1KM      0.098000
     22 H11         1.1610   -1.5250    2.6140 h1        1 1KM      0.102000
     23 H12        -0.7730   -1.5310    3.8950 hc        1 1KM      0.045667
     24 H13        -1.6200   -0.9390    2.6720 hc        1 1KM      0.045667
     25 H14        -1.0460   -2.4320    2.6010 hc        1 1KM      0.045667
     26 H15         0.8940    0.4040    3.4680 ho        1 1KM      0.218000
@<TRIPOS>BOND
     1    1    2 1   
     2    2    4 1   
     3    4    5 1   
     4    4    6 1   
     5    4   16 1   
     6    5   17 1   
     7    5   18 1   
     8    6    7 1   
     9    6   19 1   
    10    6   20 1   
    11    7    8 1   
    12    8    9 1   
    13    8   13 1   
    14    8   21 1   
    15    9   11 1   
    16    9   12 1   
    17   13   14 1   
    18   13   15 1   
    19   13   22 1   
    20   14   23 1   
    21   14   24 1   
    22   14   25 1   
    23   15   26 1   
@<TRIPOS>SUBSTRUCTURE
     1 1KM         1 TEMP              0 ****  ****    0 ROOT
