@<TRIPOS>MOLECULE
1KM
   27    25     1     0     0
SMALL
bcc


@<TRIPOS>ATOM
      1 O        -128.0360    8.1720 -129.4120 o         1 1KM     -0.546500
      2 C        -127.2190    8.2280 -130.3750 c2        1 1KM      0.336000
      3 OXT      -127.3700    8.8510 -131.4500 o         1 1KM     -0.546500
      4 CA       -125.8490    7.4820 -130.1850 c3        1 1KM     -0.148000
      5 N        -125.6440    7.1600 -128.7370 nz        1 1KM     -0.055000
      6 CB       -125.7610    6.2080 -131.0020 c3        1 1KM     -0.399000
      7 SAJ      -124.3530    5.1830 -130.5500 ss        1 1KM      0.195000
      8 CAN      -124.8270    4.0400 -129.5370 c2        1 1KM     -0.885000
      9 PAO       738.5030  -45.9320  763.0130 p3        1 1KM      2.361000
     10 OAG       738.2780  -47.3180  763.4620 o         1 1KM     -1.120000
     11 OAH       737.4840  -44.8990  763.2690 o         1 1KM     -1.120000
     12 OAF       739.7480  -45.5790  762.3070 o         1 1KM     -1.120000
     13 CAL      -124.7020    4.0960 -128.0830 c3        1 1KM      0.148000
     14 CAA      -124.4970    2.7150 -127.4720 c3        1 1KM     -0.213000
     15 OAE      -125.8480    4.7050 -127.4380 oh        1 1KM     -0.433000
     16 H2       -125.0220    8.1840 -130.4890 hx        1 1KM      0.101000
     17 H3       -126.5190    6.7530 -128.3790 hn        1 1KM      0.240000
     18 H4       -125.4400    8.0020 -128.2150 hn        1 1KM      0.240000
     19 H6       -125.6180    6.4980 -132.0690 h1        1 1KM      0.107500
     20 H7       -126.7090    5.6300 -130.9180 h1        1 1KM      0.107500
     21 H8       -125.2260    3.1010 -129.9260 h4        1 1KM      0.095000
     22 H11      -123.8600    4.7720 -127.7430 h1        1 1KM      0.046000
     23 H12      -123.5630    2.2640 -127.8800 hc        1 1KM      0.057667
     24 H13      -125.3570    2.0510 -127.7260 hc        1 1KM      0.057667
     25 H14      -124.4190    2.7860 -126.3620 hc        1 1KM      0.057667
     26 H15      -126.6280    4.3410 -127.8680 ho        1 1KM      0.197000
     27 HN3      -124.8870    6.4530 -128.6530 hn        1 1KM      0.240000
@<TRIPOS>BOND
     1    1    2 1   
     2    2    3 1   
     3    2    4 1   
     4    4    5 1   
     5    4    6 1   
     6    4   16 1   
     7    5   17 1   
     8    5   18 1   
     9    5   27 1   
    10    6    7 1   
    11    6   19 1   
    12    6   20 1   
    13    7    8 1   
    14    8   13 1   
    15    8   21 1   
    16    9   10 1   
    17    9   11 1   
    18    9   12 1   
    19   13   14 1   
    20   13   15 1   
    21   13   22 1   
    22   14   23 1   
    23   14   24 1   
    24   14   25 1   
    25   15   26 1   
@<TRIPOS>SUBSTRUCTURE
     1 1KM         1 TEMP              0 ****  ****    0 ROOT
