@<TRIPOS>MOLECULE
1KM
   27    25     1     0     0
SMALL
bcc


@<TRIPOS>ATOM
      1 O          -0.3650   -0.3330    0.4620 o         1 1KM     -0.563500
      2 C           0.8250    0.0030    0.1920 c2        1 1KM      0.333000
      3 OXT         1.2160    0.4770   -0.9030 o         1 1KM     -0.563500
      4 CA          1.8800   -0.1070    1.3400 c3        1 1KM     -0.131000
      5 N           1.2080   -0.3370    2.6580 n4        1 1KM     -0.129000
      6 CB          2.9160   -1.2060    1.1370 c3        1 1KM     -0.437000
      7 SAJ         3.6960   -1.5470    2.7440 ss        1 1KM      0.281000
      8 CAN         3.4420   -3.0450    3.2680 c2        1 1KM     -0.863000
      9 PAO         5.3130   -3.7270    5.0090 p3        1 1KM      2.471000
     10 OAG         4.4160   -4.8270    5.4450 o         1 1KM     -1.159333
     11 OAH         5.4300   -2.5280    5.8660 o         1 1KM     -1.159333
     12 OAF         6.3780   -4.0330    4.0320 o         1 1KM     -1.159333
     13 CAL         2.0920   -3.4770    3.7210 c3        1 1KM      0.143000
     14 CAA         1.6510   -2.8320    5.0360 c3        1 1KM     -0.243000
     15 OAE         1.9750   -4.8890    3.8410 oh        1 1KM     -0.393000
     16 H2          2.4110    0.8850    1.4040 hx        1 1KM      0.093000
     17 H3          1.9900   -0.8340    3.2770 hn        1 1KM      0.229000
     18 H4          0.8740    0.5320    3.0450 hn        1 1KM      0.229000
     19 H6          3.6890   -0.8430    0.4270 h1        1 1KM      0.103500
     20 H7          2.4480   -2.1220    0.7180 h1        1 1KM      0.103500
     21 H8          4.0850   -3.8710    2.9440 h4        1 1KM      0.133000
     22 H11         1.3200   -3.2190    2.9280 h1        1 1KM      0.020000
     23 H12         0.5380   -2.7630    5.0870 hc        1 1KM      0.059667
     24 H13         2.0070   -3.4550    5.8920 hc        1 1KM      0.059667
     25 H14         2.0850   -1.8100    5.1430 hc        1 1KM      0.059667
     26 H15         2.7330   -5.1900    4.3720 ho        1 1KM      0.255000
     27 HN3         0.4110   -0.9560    2.4970 hn        1 1KM      0.229000
@<TRIPOS>BOND
     1    1    2 1   
     2    2    3 1   
     3    2    4 1   
     4    4    5 1   
     5    4    6 1   
     6    4   16 1   
     7    5   17 1   
     8    5   18 1   
     9    5   27 1   
    10    6    7 1   
    11    6   19 1   
    12    6   20 1   
    13    7    8 1   
    14    8   13 1   
    15    8   21 1   
    16    9   10 1   
    17    9   11 1   
    18    9   12 1   
    19   13   14 1   
    20   13   15 1   
    21   13   22 1   
    22   14   23 1   
    23   14   24 1   
    24   14   25 1   
    25   15   26 1   
@<TRIPOS>SUBSTRUCTURE
     1 1KM         1 TEMP              0 ****  ****    0 ROOT
