@<TRIPOS>MOLECULE
1KM
   27    25     1     0     0
SMALL
bcc


@<TRIPOS>ATOM
      1 O        -125.9480   12.1590 -114.1020 o         1 1KM     -0.546500
      2 C        -125.3870   11.9970 -115.2220 c2        1 1KM      0.336000
      3 OXT      -125.8980   12.1800 -116.3500 o         1 1KM     -0.546500
      4 CA       -123.8730   11.5730 -115.2000 c3        1 1KM     -0.148000
      5 N        -123.2990   11.8150 -113.8390 n4        1 1KM     -0.055000
      6 CB       -123.6710   10.1190 -115.5810 c3        1 1KM     -0.399000
      7 SAJ      -122.0020    9.5330 -115.2540 ss        1 1KM      0.195000
      8 CAN      -121.9670    8.7780 -113.8440 c2        1 1KM     -0.885000
      9 PAO       723.3360  -72.6990  674.5110 p3        1 1KM      2.361000
     10 OAG       723.3300  -74.1700  674.4210 o         1 1KM     -1.120000
     11 OAH       722.3750  -72.0110  675.3900 o         1 1KM     -1.120000
     12 OAF       724.3040  -71.9170  673.7210 o         1 1KM     -1.120000
     13 CAL      -121.5290    9.3680 -112.5820 c3        1 1KM      0.148000
     14 CAA      -120.8720    8.3410 -111.6680 c3        1 1KM     -0.213000
     15 OAE      -122.6070    9.9980 -111.8460 oh        1 1KM     -0.433000
     16 H2       -123.3120   12.2340 -115.9190 hx        1 1KM      0.101000
     17 H3       -123.1910   12.8070 -113.6740 hn        1 1KM      0.240000
     18 H4       -122.3990   11.3040 -113.7550 hn        1 1KM      0.240000
     19 H6       -123.8300   10.0320 -116.6810 h1        1 1KM      0.107500
     20 H7       -124.4200    9.4770 -115.0650 h1        1 1KM      0.107500
     21 H8       -122.2220    7.7180 -113.7890 h4        1 1KM      0.095000
     22 H11      -120.8140   10.2330 -112.7300 h1        1 1KM      0.046000
     23 H12      -119.9790    7.9090 -112.1750 hc        1 1KM      0.057667
     24 H13      -121.5880    7.5170 -111.4380 hc        1 1KM      0.057667
     25 H14      -120.5580    8.8160 -110.7080 hc        1 1KM      0.057667
     26 H15      -123.3560    9.3960 -111.8900 ho        1 1KM      0.197000
     27 HN3      -123.9610   11.4360 -113.1470 hn        1 1KM      0.240000
@<TRIPOS>BOND
     1    1    2 1   
     2    2    3 1   
     3    2    4 1   
     4    4    5 1   
     5    4    6 1   
     6    4   16 1   
     7    5   17 1   
     8    5   18 1   
     9    5   27 1   
    10    6    7 1   
    11    6   19 1   
    12    6   20 1   
    13    7    8 1   
    14    8   13 1   
    15    8   21 1   
    16    9   10 1   
    17    9   11 1   
    18    9   12 1   
    19   13   14 1   
    20   13   15 1   
    21   13   22 1   
    22   14   23 1   
    23   14   24 1   
    24   14   25 1   
    25   15   26 1   
@<TRIPOS>SUBSTRUCTURE
     1 1KM         1 TEMP              0 ****  ****    0 ROOT
