@<TRIPOS>MOLECULE
1KN
   33    34     1     0     0
SMALL
bcc


@<TRIPOS>ATOM
      1 CAP         5.4920    0.3080    0.0710 c3        1 1KN      0.112700
      2 OAO         4.5060   -0.5250   -0.5290 os        1 1KN     -0.326900
      3 CAL         3.1930   -0.2480   -0.2030 ca        1 1KN      0.128100
      4 CAM         2.2430   -1.0890   -0.8130 ca        1 1KN     -0.179000
      5 CAN         0.8940   -0.8900   -0.5480 ca        1 1KN     -0.087500
      6 CAK         2.7880    0.7750    0.6620 ca        1 1KN     -0.179000
      7 CAJ         1.4290    0.9550    0.9160 ca        1 1KN     -0.087500
      8 CAI         0.4740    0.1300    0.3170 ca        1 1KN     -0.144300
      9 CAC        -0.9850    0.3510    0.6050 c3        1 1KN      0.211800
     10 NAD        -1.7360   -0.8440    0.9970 n3        1 1KN     -0.805200
     11 CAE        -2.6800   -1.2070   -0.0680 c3        1 1KN      0.133500
     12 CAF        -4.0030   -1.7210    0.4800 c3        1 1KN     -0.081100
     13 CAA        -2.8750    0.0420   -0.9710 c3        1 1KN      0.100100
     14 OAH        -4.1020    0.7060   -0.7700 oh        1 1KN     -0.594800
     15 CAB        -1.6900    0.9810   -0.6340 c3        1 1KN      0.098100
     16 OAG        -2.1460    2.2620   -0.2450 oh        1 1KN     -0.595800
     17 H1          5.4620    0.2150    1.1830 h1        1 1KN      0.045700
     18 H2          6.4540   -0.0970   -0.3330 h1        1 1KN      0.045700
     19 H3          5.3510    1.3720   -0.2380 h1        1 1KN      0.045700
     20 H4          2.5810   -1.8860   -1.4890 ha        1 1KN      0.145000
     21 H5          0.1480   -1.5420   -1.0290 ha        1 1KN      0.135500
     22 H6          3.5230    1.4360    1.1420 ha        1 1KN      0.145000
     23 H7          1.1090    1.7600    1.5960 ha        1 1KN      0.135500
     24 H8         -1.0820    1.0750    1.4700 h1        1 1KN      0.093700
     25 H9         -1.1230   -1.6100    1.2000 hn        1 1KN      0.369800
     26 H11        -2.2460   -2.0210   -0.7250 h1        1 1KN      0.026700
     27 H12        -4.4390   -1.0130    1.2260 hc        1 1KN      0.044033
     28 H13        -4.7230   -1.8330   -0.3660 hc        1 1KN      0.044033
     29 H14        -3.8600   -2.7100    0.9760 hc        1 1KN      0.044033
     30 H15        -2.8870   -0.2470   -2.0550 h1        1 1KN      0.082700
     31 H16        -4.1490    0.9480    0.1660 ho        1 1KN      0.420000
     32 H17        -0.9870    1.0750   -1.5020 h1        1 1KN      0.057700
     33 H18        -2.7660    2.5580   -0.9260 ho        1 1KN      0.416000
@<TRIPOS>BOND
     1    1    2 1   
     2    1   17 1   
     3    1   18 1   
     4    1   19 1   
     5    2    3 1   
     6    3    4 ar  
     7    3    6 ar  
     8    4    5 ar  
     9    4   20 1   
    10    5    8 ar  
    11    5   21 1   
    12    6    7 ar  
    13    6   22 1   
    14    7    8 ar  
    15    7   23 1   
    16    8    9 1   
    17    9   10 1   
    18    9   15 1   
    19    9   24 1   
    20   10   11 1   
    21   10   25 1   
    22   11   12 1   
    23   11   13 1   
    24   11   26 1   
    25   12   27 1   
    26   12   28 1   
    27   12   29 1   
    28   13   14 1   
    29   13   15 1   
    30   13   30 1   
    31   14   31 1   
    32   15   16 1   
    33   15   32 1   
    34   16   33 1   
@<TRIPOS>SUBSTRUCTURE
     1 1KN         1 TEMP              0 ****  ****    0 ROOT
