@<TRIPOS>MOLECULE
1KN
   33    30     1     0     0
SMALL
bcc


@<TRIPOS>ATOM
      1 CAP        -2.7980    1.8060   -4.3080 c3        1 1KN      0.113700
      2 OAO        -2.0440    0.6900   -3.9990 os        1 1KN     -0.310400
      3 CAL        -1.5210    0.7020   -2.6960 c1        1 1KN      0.108600
      4 CAM        -2.1210   -0.0570   -1.7070 c1        1 1KN     -0.068000
      5 CAN        -1.5450   -0.1350   -0.4500 c1        1 1KN     -0.068000
      6 CAK        -0.3440    1.3840   -2.4300 c1        1 1KN     -0.148500
      7 CAJ         0.2340    1.3040   -1.1650 c1        1 1KN     -0.029500
      8 CAI        -0.3620    0.5500   -0.1800 c1        1 1KN     -0.118000
      9 CAC         0.2120    0.5680    1.2590 c2        1 1KN      0.235200
     10 NAD         1.5120    0.5460    1.2320 nh        1 1KN     -0.351100
     11 CAE         1.9320   -0.9920    1.3050 c3        1 1KN     -0.012000
     12 CAF         3.3290   -1.1200    1.8560 c3        1 1KN     -0.071100
     13 CAA         1.0540   -1.5840    2.1320 c3        1 1KN      0.079100
     14 OAH         1.5620   -1.5810    3.5080 oh        1 1KN     -0.590800
     15 CAB        -0.2100   -0.7420    2.0310 c3        1 1KN      0.002800
     16 OAG        -0.6580   -0.4320    3.2520 oh        1 1KN     -0.595800
     17 H1         -2.3230    2.6050   -4.0270 h1        1 1KN      0.044700
     18 H2         -3.6580    1.7580   -3.8440 h1        1 1KN      0.044700
     19 H3         -2.9500    1.8400   -5.2740 h1        1 1KN      0.044700
     20 H4         -2.9480   -0.5360   -1.8950 ha        1 1KN      0.094000
     21 H5         -1.9640   -0.6660    0.2410 ha        1 1KN      0.094000
     22 H6          0.0730    1.9130   -3.1190 ha        1 1KN      0.080500
     23 H7          1.0730    1.7900   -0.9750 ha        1 1KN      0.082500
     24 H8         -0.1020    1.3620    1.7410 h4        1 1KN     -0.009200
     25 H9          1.8100    0.9110    0.4270 hn        1 1KN      0.199700
     26 H11         1.8840   -1.3890    0.4300 h1        1 1KN      0.049700
     27 H12         3.4410   -0.4950    2.6150 hc        1 1KN      0.044033
     28 H13         3.4780   -2.0490    2.1680 hc        1 1KN      0.044033
     29 H14         3.9820   -0.9020    1.1500 hc        1 1KN      0.044033
     30 H15         0.8730   -2.5070    1.8340 h1        1 1KN      0.046700
     31 H16         1.3650   -2.3610    3.9010 ho        1 1KN      0.414000
     32 H17        -0.8940   -1.2220    1.5320 h1        1 1KN      0.090700
     33 H18        -1.3690   -0.9610    3.4570 ho        1 1KN      0.416000
@<TRIPOS>BOND
     1    1    2 1   
     2    1   17 1   
     3    1   18 1   
     4    1   19 1   
     5    2    3 1   
     6    3    6 3   
     7    4    5 3   
     8    4   20 1   
     9    5   21 1   
    10    6   22 1   
    11    7    8 3   
    12    7   23 1   
    13    9   10 2   
    14    9   15 1   
    15    9   24 1   
    16   10   11 1   
    17   10   25 1   
    18   11   12 1   
    19   11   13 1   
    20   11   26 1   
    21   12   27 1   
    22   12   28 1   
    23   12   29 1   
    24   13   14 1   
    25   13   15 1   
    26   13   30 1   
    27   14   31 1   
    28   15   16 1   
    29   15   32 1   
    30   16   33 1   
@<TRIPOS>SUBSTRUCTURE
     1 1KN         1 TEMP              0 ****  ****    0 ROOT
