@<TRIPOS>MOLECULE
1KN
   33    34     1     0     0
SMALL
bcc


@<TRIPOS>ATOM
      1 CAP         0.1120   -0.1260   -0.2050 c3        1 1KN      0.112700
      2 OAO         1.5200   -0.2750   -0.0630 os        1 1KN     -0.326900
      3 CAL         2.0200   -0.1570    1.2190 ca        1 1KN      0.128100
      4 CAM         3.4150   -0.3100    1.3260 ca        1 1KN     -0.178500
      5 CAN         4.0140   -0.2100    2.5740 ca        1 1KN     -0.088500
      6 CAK         1.2420    0.0950    2.3550 ca        1 1KN     -0.178500
      7 CAJ         1.8650    0.1950    3.5990 ca        1 1KN     -0.088500
      8 CAI         3.2480    0.0430    3.7200 ca        1 1KN     -0.146300
      9 CAC         3.8930    0.1480    5.0750 c3        1 1KN      0.184800
     10 NAD         5.0540    1.0340    5.1550 n3        1 1KN     -0.807200
     11 CAE         6.2830    0.2390    5.2940 c3        1 1KN      0.170500
     12 CAF         7.2470    0.8450    6.3040 c3        1 1KN     -0.071100
     13 CAA         5.8720   -1.2120    5.6730 c3        1 1KN      0.096100
     14 OAH         6.3080   -1.4950    6.9890 oh        1 1KN     -0.590800
     15 CAB         4.3270   -1.2600    5.5790 c3        1 1KN      0.102100
     16 OAG         3.7600   -1.5650    6.8330 oh        1 1KN     -0.595800
     17 H1         -0.0540   -0.2590   -1.3040 h1        1 1KN      0.045700
     18 H2         -0.2120    0.8920    0.1220 h1        1 1KN      0.045700
     19 H3         -0.4280   -0.9140    0.3740 h1        1 1KN      0.045700
     20 H4          4.0080   -0.5080    0.4210 ha        1 1KN      0.145500
     21 H5          5.1050   -0.3350    2.6610 ha        1 1KN      0.135000
     22 H6          0.1530    0.2160    2.2820 ha        1 1KN      0.145500
     23 H7          1.2540    0.3950    4.4920 ha        1 1KN      0.135000
     24 H8          3.1320    0.5670    5.8020 h1        1 1KN      0.080700
     25 H9          5.1120    1.6340    4.3550 hn        1 1KN      0.369800
     26 H11         6.8250    0.1740    4.3020 h1        1 1KN      0.023700
     27 H12         8.1410    0.1810    6.3890 hc        1 1KN      0.044367
     28 H13         6.7720    0.9250    7.3110 hc        1 1KN      0.044367
     29 H14         7.5710    1.8610    5.9740 hc        1 1KN      0.044367
     30 H15         6.3380   -1.9450    4.9620 h1        1 1KN      0.045700
     31 H16         5.8930   -2.3320    7.2430 ho        1 1KN      0.414000
     32 H17         3.9690   -2.0740    4.8960 h1        1 1KN      0.092700
     33 H18         4.0530   -0.8850    7.4570 ho        1 1KN      0.419000
@<TRIPOS>BOND
     1    1    2 1   
     2    1   17 1   
     3    1   18 1   
     4    1   19 1   
     5    2    3 1   
     6    3    4 ar  
     7    3    6 ar  
     8    4    5 ar  
     9    4   20 1   
    10    5    8 ar  
    11    5   21 1   
    12    6    7 ar  
    13    6   22 1   
    14    7    8 ar  
    15    7   23 1   
    16    8    9 1   
    17    9   10 1   
    18    9   15 1   
    19    9   24 1   
    20   10   11 1   
    21   10   25 1   
    22   11   12 1   
    23   11   13 1   
    24   11   26 1   
    25   12   27 1   
    26   12   28 1   
    27   12   29 1   
    28   13   14 1   
    29   13   15 1   
    30   13   30 1   
    31   14   31 1   
    32   15   16 1   
    33   15   32 1   
    34   16   33 1   
@<TRIPOS>SUBSTRUCTURE
     1 1KN         1 TEMP              0 ****  ****    0 ROOT
