@<TRIPOS>MOLECULE
1KN
   33    34     1     0     0
SMALL
bcc


@<TRIPOS>ATOM
      1 CAP         0.0740   -0.1930   -0.1590 c3        1 1KN      0.113700
      2 OAO         1.4880   -0.0660   -0.0700 os        1 1KN     -0.327900
      3 CAL         2.0150   -0.0160    1.2060 ca        1 1KN      0.124100
      4 CAM         3.4130    0.1360    1.2640 ca        1 1KN     -0.184500
      5 CAN         4.0420    0.1930    2.5020 ca        1 1KN     -0.082000
      6 CAK         1.2610   -0.1060    2.3820 ca        1 1KN     -0.184500
      7 CAJ         1.9110   -0.0440    3.6130 ca        1 1KN     -0.082000
      8 CAI         3.3000    0.1010    3.6860 ca        1 1KN     -0.111300
      9 CAC         3.9410    0.1470    5.0470 c3        1 1KN      0.215800
     10 NAD         5.1570    0.9660    5.0970 n7        1 1KN     -0.796200
     11 CAE         6.3220    0.0960    5.2840 c3        1 1KN      0.128500
     12 CAF         7.3630    0.6270    6.2550 c3        1 1KN     -0.102100
     13 CAA         5.8360   -1.3290    5.6780 c3        1 1KN      0.083100
     14 OAH         6.1890   -1.7180    6.9870 oh        1 1KN     -0.593800
     15 CAB         4.2990   -1.3000    5.5080 c3        1 1KN      0.085100
     16 OAG         3.6570   -1.5030    6.7550 oh        1 1KN     -0.604800
     17 H1         -0.2670   -1.1500    0.3060 h1        1 1KN      0.043700
     18 H2         -0.4320    0.6780    0.3240 h1        1 1KN      0.043700
     19 H3         -0.1180   -0.1990   -1.2620 h1        1 1KN      0.043700
     20 H4          3.9870    0.2100    0.3300 ha        1 1KN      0.142500
     21 H5          5.1360    0.3190    2.5400 ha        1 1KN      0.140000
     22 H6          0.1690   -0.2220    2.3480 ha        1 1KN      0.142500
     23 H7          1.3170   -0.1130    4.5380 ha        1 1KN      0.140000
     24 H8          3.1750    0.5620    5.7710 h1        1 1KN      0.072700
     25 H9          5.0880    1.6310    5.8450 hn        1 1KN      0.361800
     26 H11         6.8030    0.0120    4.2630 h1        1 1KN      0.068700
     27 H12         6.9180    0.8470    7.2550 hc        1 1KN      0.046033
     28 H13         8.1610   -0.1420    6.3890 hc        1 1KN      0.046033
     29 H14         7.8220    1.5650    5.8580 hc        1 1KN      0.046033
     30 H15         6.3120   -2.1050    5.0210 h1        1 1KN      0.088700
     31 H16         5.8050   -1.0730    7.5960 ho        1 1KN      0.411000
     32 H17         3.9530   -2.0660    4.7670 h1        1 1KN      0.065700
     33 H18         3.9280   -2.3770    7.0680 ho        1 1KN      0.415000
@<TRIPOS>BOND
     1    1    2 1   
     2    1   17 1   
     3    1   18 1   
     4    1   19 1   
     5    2    3 1   
     6    3    4 ar  
     7    3    6 ar  
     8    4    5 ar  
     9    4   20 1   
    10    5    8 ar  
    11    5   21 1   
    12    6    7 ar  
    13    6   22 1   
    14    7    8 ar  
    15    7   23 1   
    16    8    9 1   
    17    9   10 1   
    18    9   15 1   
    19    9   24 1   
    20   10   11 1   
    21   10   25 1   
    22   11   12 1   
    23   11   13 1   
    24   11   26 1   
    25   12   27 1   
    26   12   28 1   
    27   12   29 1   
    28   13   14 1   
    29   13   15 1   
    30   13   30 1   
    31   14   31 1   
    32   15   16 1   
    33   15   32 1   
    34   16   33 1   
@<TRIPOS>SUBSTRUCTURE
     1 1KN         1 TEMP              0 ****  ****    0 ROOT
