@<TRIPOS>MOLECULE
1KN
   33    34     1     0     0
SMALL
bcc


@<TRIPOS>ATOM
      1 CAP         0.0600   -0.1580   -0.1450 c3        1 1KN      0.113700
      2 OAO         1.4750   -0.0320   -0.0610 os        1 1KN     -0.327900
      3 CAL         2.0070    0.0080    1.2140 ca        1 1KN      0.124100
      4 CAM         3.4050    0.1590    1.2670 ca        1 1KN     -0.184500
      5 CAN         4.0390    0.2060    2.5030 ca        1 1KN     -0.082000
      6 CAK         1.2570   -0.0900    2.3910 ca        1 1KN     -0.184500
      7 CAJ         1.9110   -0.0370    3.6200 ca        1 1KN     -0.082000
      8 CAI         3.3010    0.1060    3.6890 ca        1 1KN     -0.111300
      9 CAC         3.9460    0.1420    5.0490 c3        1 1KN      0.215800
     10 NAD         5.1670    0.9540    5.1000 n3        1 1KN     -0.796200
     11 CAE         6.3280    0.0770    5.2770 c3        1 1KN      0.128500
     12 CAF         7.3750    0.5980    6.2470 c3        1 1KN     -0.102100
     13 CAA         5.8360   -1.3470    5.6660 c3        1 1KN      0.083100
     14 OAH         6.1910   -1.7440    6.9710 oh        1 1KN     -0.593800
     15 CAB         4.2980   -1.3090    5.5010 c3        1 1KN      0.084100
     16 OAG         3.6590   -1.5150    6.7500 oh        1 1KN     -0.604800
     17 H1         -0.2790   -1.1180    0.3130 h1        1 1KN      0.043700
     18 H2         -0.1360   -0.1560   -1.2480 h1        1 1KN      0.043700
     19 H3         -0.4440    0.7100    0.3460 h1        1 1KN      0.043700
     20 H4          3.9760    0.2400    0.3320 ha        1 1KN      0.142500
     21 H5          5.1320    0.3320    2.5390 ha        1 1KN      0.140000
     22 H6          0.1650   -0.2050    2.3610 ha        1 1KN      0.142500
     23 H7          1.3210   -0.1120    4.5470 ha        1 1KN      0.140000
     24 H8          3.1850    0.5570    5.7780 h1        1 1KN      0.072700
     25 H9          5.1040    1.6150    5.8520 hn        1 1KN      0.361800
     26 H11         6.8050   -0.0030    4.2540 h1        1 1KN      0.068700
     27 H12         7.8380    1.5350    5.8530 hc        1 1KN      0.046033
     28 H13         6.9350    0.8150    7.2500 hc        1 1KN      0.046033
     29 H14         8.1700   -0.1770    6.3730 hc        1 1KN      0.046033
     30 H15         6.3060   -2.1220    5.0030 h1        1 1KN      0.088700
     31 H16         5.8120   -1.1000    7.5850 ho        1 1KN      0.411000
     32 H17         3.9460   -2.0690    4.7580 h1        1 1KN      0.065700
     33 H18         3.9270   -2.3920    7.0580 ho        1 1KN      0.415000
@<TRIPOS>BOND
     1    1    2 1   
     2    1   17 1   
     3    1   18 1   
     4    1   19 1   
     5    2    3 1   
     6    3    4 ar  
     7    3    6 ar  
     8    4    5 ar  
     9    4   20 1   
    10    5    8 ar  
    11    5   21 1   
    12    6    7 ar  
    13    6   22 1   
    14    7    8 ar  
    15    7   23 1   
    16    8    9 1   
    17    9   10 1   
    18    9   15 1   
    19    9   24 1   
    20   10   11 1   
    21   10   25 1   
    22   11   12 1   
    23   11   13 1   
    24   11   26 1   
    25   12   27 1   
    26   12   28 1   
    27   12   29 1   
    28   13   14 1   
    29   13   15 1   
    30   13   30 1   
    31   14   31 1   
    32   15   16 1   
    33   15   32 1   
    34   16   33 1   
@<TRIPOS>SUBSTRUCTURE
     1 1KN         1 TEMP              0 ****  ****    0 ROOT
