@<TRIPOS>MOLECULE
1KO
   46    49     1     0     0
SMALL
bcc


@<TRIPOS>ATOM
      1 N01        -0.0440   -0.0090   -0.0610 nc        1 1KO     -0.223600
      2 C02         1.3290    0.0210   -0.0620 cc        1 1KO      0.142400
      3 C03         1.8310    0.0510    1.2960 cd        1 1KO     -0.145100
      4 N04         0.7330    0.0370    2.1120 na        1 1KO     -0.028100
      5 C05        -0.4240   -0.0010    1.2640 cd        1 1KO     -0.172300
      6 C06         0.5580    0.0520    3.5100 cc        1 1KO      0.221000
      7 N07        -0.6960    0.0230    4.0630 nd        1 1KO     -0.585000
      8 C08        -1.7700   -0.0160    3.3040 cc        1 1KO      0.284200
      9 C09        -1.7430   -0.0240    1.8430 cd        1 1KO      0.252300
     10 N10        -2.8330   -0.0390    1.0660 nh        1 1KO     -0.660600
     11 C11         2.1690    0.0240   -1.2460 ca        1 1KO     -0.055800
     12 C12         1.7330    0.0960    4.3460 c         1 1KO      0.472600
     13 C13        -4.1980   -0.0520    1.5750 c3        1 1KO      0.192500
     14 C14        -4.6340   -1.4760    2.0320 c3        1 1KO      0.151800
     15 N15        -5.9670   -1.4430    2.5920 n3        1 1KO     -0.823200
     16 C16        -6.9670   -0.9120    1.6840 c3        1 1KO      0.152800
     17 C17        -6.5890    0.4580    1.1240 c3        1 1KO     -0.079400
     18 C18        -5.1990    0.4500    0.5220 c3        1 1KO     -0.091400
     19 C19         3.5010   -0.4080   -1.1570 ca        1 1KO     -0.091000
     20 C20         4.3200   -0.4040   -2.2820 ca        1 1KO     -0.126000
     21 C21         3.8090    0.0330   -3.5100 ca        1 1KO      0.038400
     22 C22         2.4820    0.4630   -3.6100 ca        1 1KO     -0.126000
     23 C23         1.6650    0.4560   -2.4820 ca        1 1KO     -0.091000
     24 CL          4.8050    0.0400   -4.8810 cl        1 1KO     -0.061400
     25 N25         1.4820    0.1240    5.8420 n4        1 1KO     -0.734400
     26 O26         2.9240    0.1150    4.0380 o         1 1KO     -0.486100
     27 H1          2.8590    0.0890    1.6650 h4        1 1KO      0.220000
     28 H2         -2.7400   -0.0490    3.8360 h4        1 1KO      0.063100
     29 H3         -2.7210   -0.0680    0.0690 hn        1 1KO      0.480800
     30 H4         -4.2420    0.6470    2.4650 h1        1 1KO      0.087700
     31 H5         -3.9340   -1.8410    2.8360 h1        1 1KO      0.040700
     32 H6         -4.5450   -2.1750    1.1490 h1        1 1KO      0.040700
     33 H7         -6.2300   -2.3580    2.9080 hn        1 1KO      0.384800
     34 H9         -7.9260   -0.8180    2.2680 h1        1 1KO      0.048200
     35 H10        -7.1590   -1.6090    0.8160 h1        1 1KO      0.048200
     36 H11        -6.6460    1.2300    1.9370 hc        1 1KO      0.065700
     37 H12        -7.3340    0.7400    0.3350 hc        1 1KO      0.065700
     38 H13        -4.9280    1.4850    0.1880 hc        1 1KO      0.061200
     39 H14        -5.1790   -0.2200   -0.3770 hc        1 1KO      0.061200
     40 H15         3.9050   -0.7620   -0.1970 ha        1 1KO      0.143000
     41 H16         5.3640   -0.7460   -2.2040 ha        1 1KO      0.158500
     42 H17         2.0800    0.8050   -4.5770 ha        1 1KO      0.158500
     43 H18         0.6210    0.7960   -2.5690 ha        1 1KO      0.143000
     44 H19         0.9640   -0.7140    6.1230 hn        1 1KO      0.466800
     45 H20         0.9260    0.9490    6.0850 hn        1 1KO      0.466800
     46 H253        2.3810    0.1560    6.3360 hn        1 1KO      0.466800
@<TRIPOS>BOND
     1    1    2 1   
     2    1    5 2   
     3    2    3 2   
     4    2   11 1   
     5    3    4 1   
     6    3   27 1   
     7    4    5 1   
     8    4    6 1   
     9    5    9 1   
    10    6    7 2   
    11    6   12 1   
    12    7    8 1   
    13    8    9 2   
    14    8   28 1   
    15    9   10 1   
    16   10   13 1   
    17   10   29 1   
    18   11   19 ar  
    19   11   23 ar  
    20   12   25 1   
    21   12   26 2   
    22   13   14 1   
    23   13   18 1   
    24   13   30 1   
    25   14   15 1   
    26   14   31 1   
    27   14   32 1   
    28   15   16 1   
    29   15   33 1   
    30   16   17 1   
    31   16   34 1   
    32   16   35 1   
    33   17   18 1   
    34   17   36 1   
    35   17   37 1   
    36   18   38 1   
    37   18   39 1   
    38   19   20 ar  
    39   19   40 1   
    40   20   21 ar  
    41   20   41 1   
    42   21   22 ar  
    43   21   24 1   
    44   22   23 ar  
    45   22   42 1   
    46   23   43 1   
    47   25   44 1   
    48   25   45 1   
    49   25   46 1   
@<TRIPOS>SUBSTRUCTURE
     1 1KO         1 TEMP              0 ****  ****    0 ROOT
