@<TRIPOS>MOLECULE
1KO
   45    38     1     0     0
SMALL
bcc


@<TRIPOS>ATOM
      1 N01         1.0610   -0.2690   -1.0160 n2        1 1KO     -0.128000
      2 C02         2.4060   -0.2330   -1.0370 c1        1 1KO     -0.060000
      3 C03         2.8470   -0.1930    0.2590 c1        1 1KO     -0.127000
      4 N04         1.7560   -0.2050    1.0760 n2        1 1KO     -0.051000
      5 C05         0.6540   -0.2520    0.3000 c1        1 1KO     -0.072000
      6 C06         1.6320   -0.1980    2.4480 c1        1 1KO     -0.040000
      7 N07         0.3880   -0.2380    3.0270 n2        1 1KO     -0.088000
      8 C08        -0.7170   -0.2850    2.2520 c1        1 1KO     -0.221000
      9 C09        -0.5970   -0.2920    0.8820 c1        1 1KO      0.148000
     10 N10        -1.7560   -0.1050    0.0240 n3        1 1KO     -0.281000
     11 C11         3.4580   -0.2420   -2.1560 c1        1 1KO     -0.030000
     12 C12         2.7610   -0.2530    3.4870 c1        1 1KO      0.374000
     13 C13        -3.0680    0.1400    0.6160 c3        1 1KO      0.013000
     14 C14        -3.8680   -1.1770    0.6190 c3        1 1KO     -0.104000
     15 N15        -5.2630   -0.9830    1.0360 n3        1 1KO     -0.297000
     16 C16        -5.9450    0.0810    0.2780 c3        1 1KO     -0.078000
     17 C17        -5.1550    1.3980    0.2730 c3        1 1KO     -0.156000
     18 C18        -3.7480    1.2100   -0.1510 c3        1 1KO     -0.163000
     19 C19         3.9450   -1.4050   -2.7500 c1        1 1KO     -0.119500
     20 C20         4.8790   -1.3220   -3.7830 c1        1 1KO     -0.119500
     21 C21         5.3220   -0.0840   -4.2190 c1        1 1KO     -0.030000
     22 C22         4.8350    1.0810   -3.6250 c1        1 1KO     -0.112500
     23 C23         3.9030    1.0000   -2.5940 c1        1 1KO     -0.112500
     24 CL          6.5290    0.0160   -5.4840 cl        1 1KO     -0.019000
     25 N25         2.8540    0.7560    4.4950 n2        1 1KO     -0.403000
     26 O26         3.6210   -1.1170    3.4080 o         1 1KO     -0.381000
     27 H1          3.7790   -0.1610    0.5470 DU        1 1KO      0.220000
     28 H2         -1.5960   -0.3140    2.6620 ha        1 1KO      0.178000
     29 H3         -1.6490   -0.0520   -0.8760 hn        1 1KO      0.240000
     30 H4         -2.9480    0.4390    1.5350 h1        1 1KO      0.119000
     31 H5         -3.8580   -1.5610   -0.2930 h1        1 1KO      0.077500
     32 H6         -3.4380   -1.8090    1.2350 h1        1 1KO      0.077500
     33 H7         -5.7240   -1.7710    0.9390 hn        1 1KO      0.165000
     34 H9         -6.0690   -0.2190   -0.6480 h1        1 1KO      0.072000
     35 H10        -6.8320    0.2420    0.6830 h1        1 1KO      0.072000
     36 H11        -5.5900    2.0250   -0.3410 hc        1 1KO      0.093000
     37 H12        -5.1670    1.7770    1.1730 hc        1 1KO      0.093000
     38 H13        -3.7330    0.9760   -1.1060 hc        1 1KO      0.091000
     39 H14        -3.2600    2.0570   -0.0220 hc        1 1KO      0.091000
     40 H15         3.6300   -2.2820   -2.4410 ha        1 1KO      0.145000
     41 H16         5.2230   -2.1440   -4.2030 ha        1 1KO      0.145000
     42 H17         5.1500    1.9600   -3.9350 ha        1 1KO      0.150000
     43 H18         3.5610    1.8170   -2.1770 ha        1 1KO      0.150000
     44 H19         2.2160    1.4160    4.5440 hn        1 1KO      0.240000
     45 H20         3.5750    0.7740    5.0590 hn        1 1KO      0.240000
@<TRIPOS>BOND
     1    1    2 1   
     2    1    5 1   
     3    2    3 1   
     4    3    4 1   
     5    4    6 1   
     6    5    9 1   
     7    6    7 1   
     8    7    8 1   
     9    8   28 1   
    10    9   10 1   
    11   10   13 1   
    12   10   29 1   
    13   11   23 1   
    14   12   26 1   
    15   13   14 1   
    16   13   18 1   
    17   13   30 1   
    18   14   15 1   
    19   14   31 1   
    20   14   32 1   
    21   15   16 1   
    22   15   33 1   
    23   16   17 1   
    24   16   34 1   
    25   16   35 1   
    26   17   18 1   
    27   17   36 1   
    28   17   37 1   
    29   18   38 1   
    30   18   39 1   
    31   19   20 1   
    32   19   40 1   
    33   20   41 1   
    34   21   22 1   
    35   22   42 1   
    36   23   43 1   
    37   25   44 1   
    38   25   45 1   
@<TRIPOS>SUBSTRUCTURE
     1 1KO         1 TEMP              0 ****  ****    0 ROOT
