@<TRIPOS>MOLECULE
1KO
   47    50     1     0     0
SMALL
bcc


@<TRIPOS>ATOM
      1 N01        -0.0090   -0.2300   -0.0900 nc        1 1KO     -0.288600
      2 C02         1.3630   -0.0260   -0.0810 cc        1 1KO      0.279400
      3 C03         1.8440    0.0420    1.2920 cd        1 1KO     -0.177100
      4 N04         0.7560   -0.1210    2.1040 na        1 1KO     -0.052100
      5 C05        -0.4030   -0.2900    1.2150 cd        1 1KO     -0.016300
      6 C06         0.5390   -0.1590    3.4730 cc        1 1KO      0.391000
      7 N07        -0.6920   -0.3470    4.0110 nd        1 1KO     -0.651000
      8 C08        -1.7630   -0.5030    3.2170 cc        1 1KO      0.428200
      9 C09        -1.6810   -0.4800    1.8040 cd        1 1KO     -0.084700
     10 N10        -2.8210   -0.6580    0.9170 n4        1 1KO     -0.625400
     11 C11         2.1910    0.0980   -1.2490 ca        1 1KO     -0.119800
     12 C12         1.7080    0.0150    4.3740 c         1 1KO      0.460600
     13 C13        -4.1560   -0.2450    1.5030 c3        1 1KO      0.110500
     14 C14        -4.8880   -1.4660    2.1330 c3        1 1KO      0.158800
     15 N15        -6.1030   -1.0100    2.7650 n3        1 1KO     -0.825200
     16 C16        -7.0200   -0.3530    1.8510 c3        1 1KO      0.145800
     17 C17        -6.3650    0.7970    1.0880 c3        1 1KO     -0.081400
     18 C18        -5.0640    0.3700    0.4310 c3        1 1KO     -0.103400
     19 C19         3.5780    0.3180   -1.1160 ca        1 1KO     -0.053000
     20 C20         4.3850    0.4380   -2.2370 ca        1 1KO     -0.135000
     21 C21         3.8220    0.3410   -3.5210 ca        1 1KO      0.084400
     22 C22         2.4440    0.1230   -3.6660 ca        1 1KO     -0.135000
     23 C23         1.6360    0.0030   -2.5420 ca        1 1KO     -0.053000
     24 CL          4.8010    0.4870   -4.8810 cl        1 1KO     -0.000400
     25 N25         1.4320   -0.0260    5.8490 n4        1 1KO     -0.728400
     26 O26         2.8720    0.1880    4.0430 o         1 1KO     -0.389100
     27 H1          2.8640    0.1920    1.6650 h4        1 1KO      0.238000
     28 H2         -2.7240   -0.6500    3.7550 h4        1 1KO      0.084100
     29 H3         -2.8620   -1.6520    0.6430 hn        1 1KO      0.475300
     30 H4         -3.9480    0.5370    2.2940 hx        1 1KO      0.121700
     31 H5         -5.0660   -2.2280    1.3170 h1        1 1KO      0.046200
     32 H6         -4.2420   -1.9430    2.9220 h1        1 1KO      0.046200
     33 H7         -6.5520   -1.7620    3.2560 hn        1 1KO      0.409800
     34 H9         -7.4580   -1.0770    1.1030 h1        1 1KO      0.069200
     35 H10        -7.8670    0.0570    2.4720 h1        1 1KO      0.069200
     36 H11        -6.1740    1.6570    1.7820 hc        1 1KO      0.083200
     37 H12        -7.0740    1.1520    0.2940 hc        1 1KO      0.083200
     38 H13        -4.5760    1.2630   -0.0410 hc        1 1KO      0.072200
     39 H14        -5.2790   -0.3810   -0.3750 hc        1 1KO      0.072200
     40 H15         4.0370    0.3970   -0.1180 ha        1 1KO      0.146000
     41 H16         5.4690    0.6100   -2.1220 ha        1 1KO      0.177000
     42 H17         2.0000    0.0470   -4.6730 ha        1 1KO      0.177000
     43 H18         0.5560   -0.1690   -2.6770 ha        1 1KO      0.146000
     44 H19         2.3130    0.1060    6.3690 hn        1 1KO      0.489467
     45 H20         0.7710    0.7200    6.1060 hn        1 1KO      0.489467
     46 H102       -2.6610   -0.1000    0.0600 hn        1 1KO      0.475300
     47 H253        1.0180   -0.9310    6.1070 hn        1 1KO      0.489467
@<TRIPOS>BOND
     1    1    2 1   
     2    1    5 2   
     3    2    3 2   
     4    2   11 1   
     5    3    4 1   
     6    3   27 1   
     7    4    5 1   
     8    4    6 1   
     9    5    9 1   
    10    6    7 2   
    11    6   12 1   
    12    7    8 1   
    13    8    9 2   
    14    8   28 1   
    15    9   10 1   
    16   10   13 1   
    17   10   29 1   
    18   10   46 1   
    19   11   19 ar  
    20   11   23 ar  
    21   12   25 1   
    22   12   26 2   
    23   13   14 1   
    24   13   18 1   
    25   13   30 1   
    26   14   15 1   
    27   14   31 1   
    28   14   32 1   
    29   15   16 1   
    30   15   33 1   
    31   16   17 1   
    32   16   34 1   
    33   16   35 1   
    34   17   18 1   
    35   17   36 1   
    36   17   37 1   
    37   18   38 1   
    38   18   39 1   
    39   19   20 ar  
    40   19   40 1   
    41   20   21 ar  
    42   20   41 1   
    43   21   22 ar  
    44   21   24 1   
    45   22   23 ar  
    46   22   42 1   
    47   23   43 1   
    48   25   44 1   
    49   25   45 1   
    50   25   47 1   
@<TRIPOS>SUBSTRUCTURE
     1 1KO         1 TEMP              0 ****  ****    0 ROOT
