@<TRIPOS>MOLECULE
1KO
   46    49     1     0     0
SMALL
bcc


@<TRIPOS>ATOM
      1 N01        -0.0450   -0.0110   -0.0620 nc        1 1KO     -0.223600
      2 C02         1.3280    0.0180   -0.0640 cc        1 1KO      0.142400
      3 C03         1.8310    0.0500    1.2940 cd        1 1KO     -0.145100
      4 N04         0.7330    0.0370    2.1110 na        1 1KO     -0.028100
      5 C05        -0.4230   -0.0010    1.2640 cd        1 1KO     -0.172300
      6 C06         0.5600    0.0530    3.5080 cc        1 1KO      0.221000
      7 N07        -0.6940    0.0260    4.0630 nd        1 1KO     -0.585000
      8 C08        -1.7680   -0.0130    3.3040 cc        1 1KO      0.284200
      9 C09        -1.7420   -0.0230    1.8440 cd        1 1KO      0.252300
     10 N10        -2.8330   -0.0380    1.0670 nu        1 1KO     -0.660600
     11 C11         2.1670    0.0190   -1.2480 ca        1 1KO     -0.055800
     12 C12         1.7360    0.0980    4.3440 c         1 1KO      0.472600
     13 C13        -4.1970   -0.0500    1.5770 c3        1 1KO      0.192500
     14 C14        -4.6340   -1.4730    2.0350 c3        1 1KO      0.151800
     15 N15        -5.9660   -1.4390    2.5960 n7        1 1KO     -0.823200
     16 C16        -6.9670   -0.9080    1.6890 c3        1 1KO      0.152800
     17 C17        -6.5890    0.4620    1.1280 c3        1 1KO     -0.079400
     18 C18        -5.1990    0.4520    0.5250 c3        1 1KO     -0.091400
     19 C19         3.4990   -0.4130   -1.1600 ca        1 1KO     -0.091000
     20 C20         4.3170   -0.4110   -2.2850 ca        1 1KO     -0.126000
     21 C21         3.8060    0.0250   -3.5130 ca        1 1KO      0.038400
     22 C22         2.4790    0.4540   -3.6130 ca        1 1KO     -0.126000
     23 C23         1.6630    0.4500   -2.4840 ca        1 1KO     -0.091000
     24 Cl          4.8010    0.0300   -4.8850 cl        1 1KO     -0.061400
     25 N25         1.4850    0.1280    5.8400 nz        1 1KO     -0.734400
     26 O26         2.9260    0.1160    4.0350 o         1 1KO     -0.486100
     27 H1          2.8600    0.0880    1.6620 h4        1 1KO      0.220000
     28 H2         -2.7380   -0.0450    3.8370 h4        1 1KO      0.063100
     29 H3         -2.7220   -0.0680    0.0700 hn        1 1KO      0.480800
     30 H4         -4.2410    0.6490    2.4670 h1        1 1KO      0.087700
     31 H5         -3.9340   -1.8380    2.8390 h1        1 1KO      0.040700
     32 H6         -4.5460   -2.1720    1.1530 h1        1 1KO      0.040700
     33 H7         -6.2300   -2.3530    2.9130 hn        1 1KO      0.384800
     34 H9         -7.9260   -0.8130    2.2730 h1        1 1KO      0.048200
     35 H10        -7.1610   -1.6050    0.8210 h1        1 1KO      0.048200
     36 H11        -7.3340    0.7430    0.3390 hc        1 1KO      0.065700
     37 H12        -6.6450    1.2340    1.9400 hc        1 1KO      0.065700
     38 H13        -4.9270    1.4870    0.1900 hc        1 1KO      0.061200
     39 H14        -5.1810   -0.2180   -0.3740 hc        1 1KO      0.061200
     40 H15         3.9040   -0.7650   -0.1990 ha        1 1KO      0.143000
     41 H16         5.3620   -0.7530   -2.2080 ha        1 1KO      0.158500
     42 H17         2.0760    0.7950   -4.5800 ha        1 1KO      0.158500
     43 H18         0.6190    0.7890   -2.5720 ha        1 1KO      0.143000
     44 H19         0.9670   -0.7090    6.1220 hn        1 1KO      0.466800
     45 H20         2.3850    0.1600    6.3330 hn        1 1KO      0.466800
     46 H253        0.9300    0.9530    6.0820 hn        1 1KO      0.466800
@<TRIPOS>BOND
     1    1    2 1   
     2    1    5 2   
     3    2    3 2   
     4    2   11 1   
     5    3    4 1   
     6    3   27 1   
     7    4    5 1   
     8    4    6 1   
     9    5    9 1   
    10    6    7 2   
    11    6   12 1   
    12    7    8 1   
    13    8    9 2   
    14    8   28 1   
    15    9   10 1   
    16   10   13 1   
    17   10   29 1   
    18   11   19 ar  
    19   11   23 ar  
    20   12   25 1   
    21   12   26 2   
    22   13   14 1   
    23   13   18 1   
    24   13   30 1   
    25   14   15 1   
    26   14   31 1   
    27   14   32 1   
    28   15   16 1   
    29   15   33 1   
    30   16   17 1   
    31   16   34 1   
    32   16   35 1   
    33   17   18 1   
    34   17   36 1   
    35   17   37 1   
    36   18   38 1   
    37   18   39 1   
    38   19   20 ar  
    39   19   40 1   
    40   20   21 ar  
    41   20   41 1   
    42   21   22 ar  
    43   21   24 1   
    44   22   23 ar  
    45   22   42 1   
    46   23   43 1   
    47   25   44 1   
    48   25   45 1   
    49   25   46 1   
@<TRIPOS>SUBSTRUCTURE
     1 1KO         1 TEMP              0 ****  ****    0 ROOT
