@<TRIPOS>MOLECULE
1KO
   45    48     1     0     0
SMALL
bcc


@<TRIPOS>ATOM
      1 N01         0.3460   -0.5200   -0.2030 nc        1 1KO     -0.268600
      2 C02         1.5140    0.2280   -0.0710 cc        1 1KO      0.092400
      3 C03         1.2110    1.6200   -0.0070 cd        1 1KO     -0.154100
      4 N04        -0.1650    1.7230   -0.1040 na        1 1KO     -0.088100
      5 C05        -0.6710    0.3870   -0.2190 cd        1 1KO     -0.096300
      6 C06        -1.0600    2.8050   -0.0890 cc        1 1KO      0.401000
      7 N07        -2.3750    2.6170   -0.1670 nd        1 1KO     -0.614000
      8 C08        -2.8900    1.3600   -0.2690 cc        1 1KO      0.244200
      9 C09        -2.1110    0.1900   -0.3220 cd        1 1KO      0.164300
     10 N10        -2.5970   -1.0790   -0.5270 nh        1 1KO     -0.725600
     11 C11         2.8480   -0.3400   -0.0080 ca        1 1KO     -0.012800
     12 C12        -0.4820    4.2030    0.0380 c         1 1KO      0.590600
     13 C13        -4.0020   -1.3880   -0.3680 c3        1 1KO      0.210500
     14 C14        -4.4760   -1.3200    1.1140 c3        1 1KO      0.132800
     15 N15        -5.8880   -1.6100    1.2390 n3        1 1KO     -0.818200
     16 C16        -6.2790   -2.8830    0.6650 c3        1 1KO      0.158800
     17 C17        -5.8190   -3.0440   -0.7830 c3        1 1KO     -0.077400
     18 C18        -4.3350   -2.7830   -0.9230 c3        1 1KO     -0.084400
     19 C19         3.9020    0.4140    0.5310 ca        1 1KO     -0.103000
     20 C20         5.1900   -0.1110    0.5910 ca        1 1KO     -0.129000
     21 C21         5.4320   -1.4020    0.1130 ca        1 1KO      0.019400
     22 C22         4.3910   -2.1660   -0.4220 ca        1 1KO     -0.129000
     23 C23         3.1050   -1.6350   -0.4820 ca        1 1KO     -0.103000
     24 CL          7.0040   -2.0470    0.1860 cl        1 1KO     -0.097400
     25 N25        -1.2710    5.2590   -0.3200 n         1 1KO     -0.643000
     26 O26         0.6870    4.3850    0.4370 o         1 1KO     -0.620100
     27 H1          1.8550    2.4970    0.1000 h4        1 1KO      0.220000
     28 H2         -3.9920    1.3290   -0.3110 h4        1 1KO      0.041100
     29 H3         -1.9640   -1.8340   -0.3710 hn        1 1KO      0.444800
     30 H4         -4.5880   -0.6240   -0.9640 h1        1 1KO      0.079700
     31 H5         -3.8360   -2.0230    1.7230 h1        1 1KO      0.038200
     32 H6         -4.3100   -0.2760    1.5030 h1        1 1KO      0.038200
     33 H7         -6.1590   -1.5690    2.2040 hn        1 1KO      0.369800
     34 H9         -5.8790   -3.7570    1.2600 h1        1 1KO      0.032700
     35 H10        -7.4040   -2.9330    0.7010 h1        1 1KO      0.032700
     36 H11        -6.0510   -4.0880   -1.1170 hc        1 1KO      0.053700
     37 H12        -6.3910   -2.3390   -1.4420 hc        1 1KO      0.053700
     38 H13        -4.0400   -2.8470   -2.0020 hc        1 1KO      0.051700
     39 H14        -3.7590   -3.5650   -0.3630 hc        1 1KO      0.051700
     40 H15         3.7120    1.4290    0.9140 ha        1 1KO      0.147500
     41 H16         6.0090    0.4890    1.0150 ha        1 1KO      0.147500
     42 H17         4.5840   -3.1830   -0.7970 ha        1 1KO      0.147500
     43 H18         2.2890   -2.2410   -0.9050 ha        1 1KO      0.147500
     44 H19        -2.2190    5.1420   -0.5750 hn        1 1KO      0.326500
     45 H20        -0.9180    6.1760   -0.1940 hn        1 1KO      0.326500
@<TRIPOS>BOND
     1    1    2 1   
     2    1    5 2   
     3    2    3 2   
     4    2   11 1   
     5    3    4 1   
     6    3   27 1   
     7    4    5 1   
     8    4    6 1   
     9    5    9 1   
    10    6    7 2   
    11    6   12 1   
    12    7    8 1   
    13    8    9 2   
    14    8   28 1   
    15    9   10 1   
    16   10   13 1   
    17   10   29 1   
    18   11   19 ar  
    19   11   23 ar  
    20   12   25 1   
    21   12   26 2   
    22   13   14 1   
    23   13   18 1   
    24   13   30 1   
    25   14   15 1   
    26   14   31 1   
    27   14   32 1   
    28   15   16 1   
    29   15   33 1   
    30   16   17 1   
    31   16   34 1   
    32   16   35 1   
    33   17   18 1   
    34   17   36 1   
    35   17   37 1   
    36   18   38 1   
    37   18   39 1   
    38   19   20 ar  
    39   19   40 1   
    40   20   21 ar  
    41   20   41 1   
    42   21   22 ar  
    43   21   24 1   
    44   22   23 ar  
    45   22   42 1   
    46   23   43 1   
    47   25   44 1   
    48   25   45 1   
@<TRIPOS>SUBSTRUCTURE
     1 1KO         1 TEMP              0 ****  ****    0 ROOT
