@<TRIPOS>MOLECULE
1KP
   18    13     1     0     0
SMALL
bcc


@<TRIPOS>ATOM
      1 CL1        -4.3870   -0.0970    0.6230 cl        1 1KP     -0.070400
      2 C4         -2.6530   -0.1060    0.4370 c1        1 1KP      0.026400
      3 C3         -1.9250   -0.0710    1.6330 c1        1 1KP     -0.044000
      4 C2         -0.5330   -0.0230    1.6010 c1        1 1KP     -0.044000
      5 C5         -1.9860   -0.0930   -0.7870 c1        1 1KP      0.026400
      6 CL         -3.0400   -0.1070   -2.1760 cl        1 1KP     -0.070400
      7 C6         -0.5930   -0.0440   -0.8210 c1        1 1KP      0.001500
      8 C1          0.1370   -0.0090    0.3770 c1        1 1KP      0.001500
      9 N1          0.3780    0.0360   -1.9590 n2        1 1KP     -0.572400
     10 C7          1.6960    0.0220   -1.4160 ce        1 1KP      0.566500
     11 O1          2.7300    0.0870   -2.0510 o         1 1KP     -0.544300
     12 C           1.5830   -0.0060    0.0330 cg        1 1KP      0.280600
     13 N           2.5730    0.0580    0.8810 n1        1 1KP     -0.308800
     14 O           3.8590    0.1620    0.4250 o         1 1KP     -0.209000
     15 H1         -2.3930   -0.0840    2.4900 ha        1 1KP      0.100000
     16 H2         -0.0260    0.0020    2.4350 ha        1 1KP      0.100000
     17 H3          0.1630    0.0790   -2.8440 hn        1 1KP      0.512400
     18 H6          4.4170    0.1940    1.1170 ho        1 1KP      0.248000
@<TRIPOS>BOND
     1    1    2 1   
     2    2    5 3   
     3    3    4 3   
     4    3   15 1   
     5    4   16 1   
     6    5    6 1   
     7    7    8 1   
     8    9   10 2   
     9    9   17 1   
    10   10   11 1   
    11   10   12 1   
    12   12   13 3   
    13   14   18 1   
@<TRIPOS>SUBSTRUCTURE
     1 1KP         1 TEMP              0 ****  ****    0 ROOT
