@<TRIPOS>MOLECULE
1KP
   18    19     1     0     0
SMALL
bcc


@<TRIPOS>ATOM
      1 CL1         3.4940   -0.9780   -0.0020 cl        1 1KP     -0.059400
      2 C4          1.8060   -0.8120   -0.0010 ca        1 1KP      0.067400
      3 C3          1.0170   -1.9630   -0.0020 ca        1 1KP     -0.161000
      4 C2         -0.3820   -1.8770   -0.0020 ca        1 1KP     -0.039000
      5 C5          1.2270    0.4740    0.0000 ca        1 1KP     -0.036600
      6 CL          2.1670    1.8820    0.0010 cl        1 1KP     -0.058400
      7 C6         -0.1670    0.5610    0.0010 ca        1 1KP      0.092600
      8 C1         -0.9720   -0.6300   -0.0000 ca        1 1KP     -0.206900
      9 N1         -0.9840    1.6980    0.0020 n         1 1KP     -0.474100
     10 C7         -2.3450    1.3210    0.0020 c         1 1KP      0.634200
     11 O1         -3.2860    2.1140    0.0030 o         1 1KP     -0.554500
     12 C          -2.3840   -0.2100    0.0010 cc        1 1KP      0.359900
     13 N          -3.5140   -0.8580    0.0000 n2        1 1KP     -0.352200
     14 O          -3.4550   -2.1630   -0.0010 oh        1 1KP     -0.340500
     15 H1          1.4960   -2.9540   -0.0030 ha        1 1KP      0.157000
     16 H2         -1.0000   -2.7890   -0.0020 ha        1 1KP      0.161000
     17 H3         -0.6520    2.6280    0.0030 hn        1 1KP      0.356500
     18 H6         -4.3930   -2.4530   -0.0010 ho        1 1KP      0.454000
@<TRIPOS>BOND
     1    1    2 1   
     2    2    3 ar  
     3    2    5 ar  
     4    3    4 ar  
     5    3   15 1   
     6    4    8 ar  
     7    4   16 1   
     8    5    6 1   
     9    5    7 ar  
    10    7    8 ar  
    11    7    9 1   
    12    8   12 1   
    13    9   10 1   
    14    9   17 1   
    15   10   11 2   
    16   10   12 1   
    17   12   13 2   
    18   13   14 1   
    19   14   18 1   
@<TRIPOS>SUBSTRUCTURE
     1 1KP         1 TEMP              0 ****  ****    0 ROOT
