@<TRIPOS>MOLECULE
1KP
   18    19     1     0     0
SMALL
bcc


@<TRIPOS>ATOM
      1 CL1        -0.0040   -0.0000   -0.0180 cl        1 1KP     -0.059400
      2 C4          1.6920   -0.0020   -0.0240 ca        1 1KP      0.067400
      3 C3          2.3690   -0.0030    1.1970 ca        1 1KP     -0.161000
      4 C2          3.7700   -0.0050    1.2440 ca        1 1KP     -0.039000
      5 C5          2.3900   -0.0030   -1.2500 ca        1 1KP     -0.036600
      6 CL          1.5880   -0.0010   -2.7400 cl        1 1KP     -0.058400
      7 C6          3.7860   -0.0040   -1.2040 ca        1 1KP      0.092600
      8 C1          4.4750   -0.0050    0.0580 ca        1 1KP     -0.206900
      9 N1          4.7070   -0.0050   -2.2590 n         1 1KP     -0.474100
     10 C7          6.0270   -0.0070   -1.7540 c         1 1KP      0.634200
     11 O1          7.0380   -0.0080   -2.4550 o         1 1KP     -0.554500
     12 C           5.9200   -0.0070   -0.2270 cc        1 1KP      0.359900
     13 N           6.9840   -0.0090    0.5250 n2        1 1KP     -0.352200
     14 O           6.8020   -0.0090    1.8190 oh        1 1KP     -0.340500
     15 H1          1.7980   -0.0030    2.1380 ha        1 1KP      0.157000
     16 H2          4.2990   -0.0060    2.2100 ha        1 1KP      0.161000
     17 H3          4.4640   -0.0040   -3.2160 hn        1 1KP      0.356500
     18 H6          7.7080   -0.0100    2.1970 ho        1 1KP      0.454000
@<TRIPOS>BOND
     1    1    2 1   
     2    2    3 ar  
     3    2    5 ar  
     4    3    4 ar  
     5    3   15 1   
     6    4    8 ar  
     7    4   16 1   
     8    5    6 1   
     9    5    7 ar  
    10    7    8 ar  
    11    7    9 1   
    12    8   12 1   
    13    9   10 1   
    14    9   17 1   
    15   10   11 2   
    16   10   12 1   
    17   12   13 2   
    18   13   14 1   
    19   14   18 1   
@<TRIPOS>SUBSTRUCTURE
     1 1KP         1 TEMP              0 ****  ****    0 ROOT
