@<TRIPOS>MOLECULE
1KR
   84    86     1     0     0
SMALL
bcc


@<TRIPOS>ATOM
      1 C16        -3.1080   -0.2110   -0.8220 c         1 1KR      0.741100
      2 O17        -2.2120    0.0520   -1.6470 o         1 1KR     -0.612000
      3 O24        -3.2320   -1.4890   -0.3310 os        1 1KR     -0.432900
      4 C41        -2.2400   -2.4290   -0.8050 c3        1 1KR      0.191700
      5 C18        -2.7060   -3.7840   -0.3910 ca        1 1KR     -0.100300
      6 C19        -3.9600   -4.2590   -0.7900 ca        1 1KR     -0.106500
      7 C20        -4.3670   -5.5430   -0.4300 ca        1 1KR     -0.138000
      8 C21        -3.5250   -6.3560    0.3280 ca        1 1KR     -0.122000
      9 C22        -2.2760   -5.8820    0.7310 ca        1 1KR     -0.138000
     10 C23        -1.8660   -4.5970    0.3780 ca        1 1KR     -0.106500
     11 N15        -4.0750    0.6400   -0.3310 n         1 1KR     -0.541900
     12 C13        -4.0280    2.0520   -0.6220 c3        1 1KR      0.048700
     13 C11        -2.9310    2.7770    0.2090 c         1 1KR      0.625100
     14 O12        -3.2310    3.4670    1.2030 o         1 1KR     -0.612100
     15 C14        -5.3630    2.7430   -0.3560 c3        1 1KR     -0.098100
     16 N29         1.7770   -0.5970    1.4010 n         1 1KR     -0.519900
     17 C28         0.6700   -0.1410    2.1660 cx        1 1KR      0.044700
     18 C27         0.8270    0.9740    3.1750 cx        1 1KR     -0.137400
     19 C26         0.0170    1.2180    1.9280 cx        1 1KR     -0.136700
     20 C25         0.5340    2.1430    0.8760 c3        1 1KR     -0.070400
     21 C9         -0.5040    3.2050    0.4560 c3        1 1KR      0.100700
     22 C8          0.2260    4.2550   -0.4010 c3        1 1KR     -0.088400
     23 C7         -0.6480    5.4570   -0.7010 c3        1 1KR     -0.037100
     24 C6          0.1150    6.5200   -1.4110 ca        1 1KR     -0.079300
     25 C1          0.4780    6.3490   -2.7530 ca        1 1KR     -0.128500
     26 C2          1.1830    7.3450   -3.4240 ca        1 1KR     -0.128000
     27 C3          1.5320    8.5230   -2.7620 ca        1 1KR     -0.133000
     28 C4          1.1720    8.7000   -1.4270 ca        1 1KR     -0.128000
     29 C5          0.4670    7.7040   -0.7530 ca        1 1KR     -0.128500
     30 N10        -1.6380    2.6210   -0.2250 n         1 1KR     -0.562900
     31 O40         4.0020   -3.5300    3.0300 o         1 1KR     -0.512100
     32 C39         3.7870   -3.6080    1.8220 c         1 1KR      0.568900
     33 C34         4.1970   -2.5310    0.8460 c3        1 1KR     -0.209700
     34 C35         5.4120   -3.0110    0.0430 c3        1 1KR     -0.049700
     35 C37         6.6050   -3.2260    0.9680 c3        1 1KR     -0.088400
     36 C38         7.6140   -4.1800    0.3810 c3        1 1KR     -0.092100
     37 C36         5.7650   -2.0270   -1.0540 c3        1 1KR     -0.095100
     38 C32         3.0230   -2.1740   -0.0760 c3        1 1KR      0.084100
     39 O33         2.7100   -3.2180   -0.9720 oh        1 1KR     -0.580800
     40 C30         1.7800   -1.8050    0.7510 c         1 1KR      0.630100
     41 O31         0.8280   -2.6130    0.8140 o         1 1KR     -0.627100
     42 H37        -2.1630   -2.3490   -1.9220 h1        1 1KR      0.073700
     43 H38        -1.2550   -2.1590   -0.3360 h1        1 1KR      0.073700
     44 H39        -4.6220   -3.6100   -1.3820 ha        1 1KR      0.146500
     45 H40        -5.3540   -5.9130   -0.7440 ha        1 1KR      0.131500
     46 H41        -3.8460   -7.3690    0.6100 ha        1 1KR      0.130000
     47 H42        -1.6130   -6.5210    1.3330 ha        1 1KR      0.131500
     48 H43        -0.8840   -4.2160    0.7050 ha        1 1KR      0.146500
     49 H36        -4.6340    0.3330    0.4320 hn        1 1KR      0.335500
     50 H32        -3.7720    2.1640   -1.7210 h1        1 1KR      0.086700
     51 H33        -5.2660    3.8170   -0.6440 hc        1 1KR      0.058033
     52 H34        -6.1760    2.2730   -0.9590 hc        1 1KR      0.058033
     53 H35        -5.6280    2.6970    0.7280 hc        1 1KR      0.058033
     54 H16         2.5370    0.0290    1.2700 hn        1 1KR      0.314500
     55 H17        -0.0100   -0.9890    2.4180 h1        1 1KR      0.121700
     56 H18         0.3060    0.8720    4.1440 hc        1 1KR      0.078200
     57 H19         1.8010    1.4830    3.2850 hc        1 1KR      0.078200
     58 H20        -1.0870    1.2470    2.0410 hc        1 1KR      0.096700
     59 H21         1.4420    2.6830    1.2560 hc        1 1KR      0.048700
     60 H22         0.8480    1.5590   -0.0300 hc        1 1KR      0.048700
     61 H23        -0.8890    3.7180    1.3900 h1        1 1KR      0.089700
     62 H24         1.1330    4.5920    0.1650 hc        1 1KR      0.048200
     63 H25        -1.5190    5.1440   -1.3370 hc        1 1KR      0.056200
     64 H26         0.2010    5.4220   -3.2770 ha        1 1KR      0.131500
     65 H27         1.4640    7.2030   -4.4780 ha        1 1KR      0.130500
     66 H28         2.0880    9.3090   -3.2930 ha        1 1KR      0.130000
     67 H29         1.4440    9.6280   -0.9030 ha        1 1KR      0.130500
     68 H30         0.1820    7.8500    0.2990 ha        1 1KR      0.131500
     69 H31        -1.4480    2.0030   -0.9830 hn        1 1KR      0.338500
     70 H1          0.5790    3.7950   -1.3610 hc        1 1KR      0.048200
     71 H3         -1.0700    5.8590    0.2600 hc        1 1KR      0.056200
     72 H2          3.2770   -4.4860    1.3660 h4        1 1KR      0.006200
     73 H4          4.4880   -1.6050    1.4150 hc        1 1KR      0.078700
     74 H5          5.1350   -3.9920   -0.4400 hc        1 1KR      0.065700
     75 H6          7.0940   -2.2370    1.1740 hc        1 1KR      0.048200
     76 H7          6.2530   -3.6300    1.9550 hc        1 1KR      0.048200
     77 H8          8.4700   -4.3110    1.0860 hc        1 1KR      0.036033
     78 H9          7.1520   -5.1810    0.1980 hc        1 1KR      0.036033
     79 H10         8.0130   -3.7960   -0.5890 hc        1 1KR      0.036033
     80 H11         4.9970   -2.0550   -1.8650 hc        1 1KR      0.040700
     81 H12         5.8290   -0.9880   -0.6500 hc        1 1KR      0.040700
     82 H13         6.7540   -2.2920   -1.5010 hc        1 1KR      0.040700
     83 H14         3.3150   -1.3100   -0.7410 h1        1 1KR      0.095700
     84 H15         2.1150   -3.8380   -0.5230 ho        1 1KR      0.426000
@<TRIPOS>BOND
     1    1    2 2   
     2    1    3 1   
     3    1   11 1   
     4    3    4 1   
     5    4    5 1   
     6    4   42 1   
     7    4   43 1   
     8    5    6 ar  
     9    5   10 ar  
    10    6    7 ar  
    11    6   44 1   
    12    7    8 ar  
    13    7   45 1   
    14    8    9 ar  
    15    8   46 1   
    16    9   10 ar  
    17    9   47 1   
    18   10   48 1   
    19   11   12 1   
    20   11   49 1   
    21   12   13 1   
    22   12   15 1   
    23   12   50 1   
    24   13   14 2   
    25   13   30 1   
    26   15   51 1   
    27   15   52 1   
    28   15   53 1   
    29   16   17 1   
    30   16   40 1   
    31   16   54 1   
    32   17   18 1   
    33   17   19 1   
    34   17   55 1   
    35   18   19 1   
    36   18   56 1   
    37   18   57 1   
    38   19   20 1   
    39   19   58 1   
    40   20   21 1   
    41   20   59 1   
    42   20   60 1   
    43   21   22 1   
    44   21   30 1   
    45   21   61 1   
    46   22   23 1   
    47   22   62 1   
    48   22   70 1   
    49   23   24 1   
    50   23   63 1   
    51   23   71 1   
    52   24   25 ar  
    53   24   29 ar  
    54   25   26 ar  
    55   25   64 1   
    56   26   27 ar  
    57   26   65 1   
    58   27   28 ar  
    59   27   66 1   
    60   28   29 ar  
    61   28   67 1   
    62   29   68 1   
    63   30   69 1   
    64   31   32 2   
    65   32   33 1   
    66   32   72 1   
    67   33   34 1   
    68   33   38 1   
    69   33   73 1   
    70   34   35 1   
    71   34   37 1   
    72   34   74 1   
    73   35   36 1   
    74   35   75 1   
    75   35   76 1   
    76   36   77 1   
    77   36   78 1   
    78   36   79 1   
    79   37   80 1   
    80   37   81 1   
    81   37   82 1   
    82   38   39 1   
    83   38   40 1   
    84   38   83 1   
    85   39   84 1   
    86   40   41 2   
@<TRIPOS>SUBSTRUCTURE
     1 1KR         1 TEMP              0 ****  ****    0 ROOT
