@<TRIPOS>MOLECULE
1KR
   84    78     1     0     0
SMALL
bcc


@<TRIPOS>ATOM
      1 C16         0.6280    0.2290    6.1770 c1        1 1KR      0.385000
      2 O17         1.8140    0.4460    6.0130 o         1 1KR     -0.406000
      3 O24         0.1220    0.0000    7.4890 o         1 1KR     -0.269000
      4 C41         1.1270   -0.0300    8.5000 c3        1 1KR      0.036000
      5 C18         0.5340   -0.6000    9.7950 c1        1 1KR     -0.121000
      6 C19         0.3820   -1.9750    9.9440 c1        1 1KR     -0.104000
      7 C20        -0.2020   -2.4900   11.0970 c1        1 1KR     -0.127333
      8 C21        -0.6340   -1.6300   12.1020 c1        1 1KR     -0.127333
      9 C22        -0.4820   -0.2560   11.9530 c1        1 1KR     -0.127333
     10 C23         0.1020    0.2590   10.8000 c1        1 1KR     -0.127333
     11 N15        -0.2740    0.2620    5.0530 n3        1 1KR     -0.308000
     12 C13         0.2180    0.0130    3.7380 c3        1 1KR      0.000000
     13 C11        -0.7740    0.5550    2.7120 c1        1 1KR      0.273000
     14 O12        -1.7410    1.1980    3.0810 o         1 1KR     -0.376000
     15 C14         0.3890   -1.4740    3.5370 c3        1 1KR     -0.217000
     16 N29         1.5000    2.0430   -2.7350 n         1 1KR     -0.330000
     17 C28         2.0300    1.8220   -1.4100 cx        1 1KR     -0.031000
     18 C27         1.7270    2.9080   -0.3900 cx        1 1KR     -0.215000
     19 C26         1.0000    1.5740   -0.3190 cx        1 1KR     -0.180000
     20 C25        -0.4720    1.5920   -0.7700 c3        1 1KR     -0.148000
     21 C9         -1.3510    1.0110    0.3350 c3        1 1KR      0.023000
     22 C8         -2.3370    0.0140   -0.2690 c3        1 1KR     -0.172000
     23 C7         -1.5610   -1.0720   -1.0460 c3        1 1KR     -0.123000
     24 C6         -2.5540   -2.1090   -1.6100 c2        1 1KR     -0.074000
     25 C1         -2.4350   -3.4490   -1.2500 c2        1 1KR     -0.127000
     26 C2         -3.2410   -4.4060   -1.8580 c1        1 1KR     -0.130000
     27 C3         -4.1670   -4.0250   -2.8250 c1        1 1KR     -0.127333
     28 C4         -4.2860   -2.6870   -3.1840 c1        1 1KR     -0.127333
     29 C5         -3.4800   -1.7290   -2.5770 c1        1 1KR     -0.129000
     30 N10        -0.5360    0.3510    1.2920 n2        1 1KR     -0.369000
     31 O40         0.4940   -0.1910   -5.0380 o         1 1KR     -0.317000
     32 C39         1.6570   -0.1070   -5.3940 c1        1 1KR      0.213000
     33 C34         2.1420    1.1340   -6.1120 c2        1 1KR     -0.171000
     34 C35         1.4340    1.2540   -7.4480 c3        1 1KR     -0.099000
     35 C37         1.3560   -0.1170   -8.1060 c3        1 1KR     -0.161000
     36 C38         0.1310   -0.1720   -9.0310 c3        1 1KR     -0.212000
     37 C36         2.2050    2.2020   -8.3460 c3        1 1KR     -0.214000
     38 C32         1.8390    2.3600   -5.2670 c3        1 1KR      0.018000
     39 O33         0.4540    2.5480   -5.1960 oh        1 1KR     -0.330000
     40 C30         2.3990    2.1590   -3.8620 c2        1 1KR      0.261000
     41 O31         3.6050    2.0700   -3.6920 o         1 1KR     -0.360000
     42 H37         1.4550    0.8830    8.6640 h1        1 1KR      0.114000
     43 H38         1.8730   -0.5970    8.2030 h1        1 1KR      0.114000
     44 H39         0.6870   -2.5820    9.2360 ha        1 1KR      0.156000
     45 H40        -0.3090   -3.4610   11.2020 ha        1 1KR      0.130833
     46 H41        -1.0460   -1.9940   12.9150 ha        1 1KR      0.130833
     47 H42        -0.7870    0.3510   12.6620 ha        1 1KR      0.130833
     48 H43         0.2090    1.2290   10.6950 ha        1 1KR      0.130833
     49 H36        -1.1690    0.4120    5.1870 hn        1 1KR      0.246000
     50 H32         1.0850    0.4610    3.6230 h1        1 1KR      0.137000
     51 H33         0.5330   -1.9070    4.4060 hc        1 1KR      0.093000
     52 H34        -0.4190   -1.8420    3.1180 hc        1 1KR      0.093000
     53 H35         1.1650   -1.6390    2.9550 hc        1 1KR      0.093000
     54 H16         0.6010    2.1630   -2.8530 hn        1 1KR      0.240000
     55 H17         2.8910    1.3600   -1.2980 h1        1 1KR      0.157000
     56 H18         2.4190    3.0540    0.2950 hc        1 1KR      0.117000
     57 H19         1.1970    3.6660   -0.7180 hc        1 1KR      0.117000
     58 H20         1.2820    0.9740    0.4040 hc        1 1KR      0.130000
     59 H21        -0.7480    2.5200   -0.9550 hc        1 1KR      0.096500
     60 H22        -0.5710    1.0540   -1.5830 hc        1 1KR      0.096500
     61 H23        -1.8480    1.7390    0.7740 h1        1 1KR      0.132000
     62 H24        -2.9450    0.4850   -0.8840 hc        1 1KR      0.096500
     63 H25        -1.0680   -0.6560   -1.7840 hc        1 1KR      0.085000
     64 H26        -1.7820   -3.7180   -0.5690 ha        1 1KR      0.129000
     65 H27        -3.1570   -5.3510   -1.6040 ha        1 1KR      0.130000
     66 H28        -4.7360   -4.7010   -3.2530 ha        1 1KR      0.130833
     67 H29        -4.9400   -2.4190   -3.8670 ha        1 1KR      0.130833
     68 H30        -3.5650   -0.7850   -2.8310 ha        1 1KR      0.149000
     69 H31         0.1060   -0.2440    1.0160 hn        1 1KR      0.225000
     70 H1         -2.8590   -0.4070    0.4500 hc        1 1KR      0.096500
     71 H3         -0.9300   -1.5180   -0.4410 hc        1 1KR      0.085000
     72 H2          2.2780   -0.8480   -5.2210 ha        1 1KR      0.115000
     73 H4          3.1130    1.0690   -6.2600 ha        1 1KR      0.130000
     74 H5          0.5250    1.6020   -7.3080 hc        1 1KR      0.101000
     75 H6          2.1710   -0.2750   -8.6320 hc        1 1KR      0.083000
     76 H7          1.2740   -0.8080   -7.4130 hc        1 1KR      0.083000
     77 H8          0.4160   -0.0300   -9.9610 hc        1 1KR      0.076667
     78 H9         -0.3020   -1.0530   -8.9510 hc        1 1KR      0.076667
     79 H10        -0.5050    0.5300   -8.7730 hc        1 1KR      0.076667
     80 H11         2.1360    1.8990   -9.2790 hc        1 1KR      0.081333
     81 H12         1.8290    3.1080   -8.2660 hc        1 1KR      0.081333
     82 H13         3.1500    2.2140   -8.0750 hc        1 1KR      0.081333
     83 H14         2.2570    3.1510   -5.6760 h1        1 1KR      0.124000
     84 H15         0.2700    3.4240   -5.2340 ho        1 1KR      0.221000
@<TRIPOS>BOND
     1    1    2 1   
     2    1   11 1   
     3    3    4 1   
     4    4    5 1   
     5    4   42 1   
     6    4   43 1   
     7    5    6 1   
     8    6   44 1   
     9    7    8 1   
    10    7   45 1   
    11    8   46 1   
    12    9   10 1   
    13    9   47 1   
    14   10   48 1   
    15   11   12 1   
    16   11   49 1   
    17   12   13 1   
    18   12   15 1   
    19   12   50 1   
    20   13   14 1   
    21   15   51 1   
    22   15   52 1   
    23   15   53 1   
    24   16   17 1   
    25   16   40 1   
    26   16   54 1   
    27   17   18 1   
    28   17   19 1   
    29   17   55 1   
    30   18   19 1   
    31   18   56 1   
    32   18   57 1   
    33   19   20 1   
    34   19   58 1   
    35   20   21 1   
    36   20   59 1   
    37   20   60 1   
    38   21   22 1   
    39   21   30 1   
    40   21   61 1   
    41   22   23 1   
    42   22   62 1   
    43   22   70 1   
    44   23   24 1   
    45   23   63 1   
    46   23   71 1   
    47   24   25 1   
    48   24   29 1   
    49   25   26 1   
    50   25   64 1   
    51   26   65 1   
    52   27   28 1   
    53   27   66 1   
    54   28   67 1   
    55   29   68 1   
    56   30   69 1   
    57   31   32 1   
    58   32   72 1   
    59   33   34 1   
    60   33   38 1   
    61   33   73 1   
    62   34   35 1   
    63   34   37 1   
    64   34   74 1   
    65   35   36 1   
    66   35   75 1   
    67   35   76 1   
    68   36   77 1   
    69   36   78 1   
    70   36   79 1   
    71   37   80 1   
    72   37   81 1   
    73   37   82 1   
    74   38   39 1   
    75   38   40 1   
    76   38   83 1   
    77   39   84 1   
    78   40   41 1   
@<TRIPOS>SUBSTRUCTURE
     1 1KR         1 TEMP              0 ****  ****    0 ROOT
