@<TRIPOS>MOLECULE
1KR
   87    89     1     0     0
SMALL
bcc


@<TRIPOS>ATOM
      1 C16        -0.9160    0.2520   -1.0440 c         1 1KR      0.655100
      2 O17        -0.2800    0.6280   -2.0320 o         1 1KR     -0.554000
      3 O24        -0.5220    0.0130    0.1790 os        1 1KR     -0.386900
      4 C41         0.9550    0.2440    0.5310 c3        1 1KR      0.257700
      5 C18         1.0360   -0.1960    1.9230 ca        1 1KR     -0.193300
      6 C19         1.3860   -1.5250    2.2250 ca        1 1KR     -0.068000
      7 C20         1.5310   -1.9210    3.5500 ca        1 1KR     -0.130000
      8 C21         1.3170   -1.0040    4.5850 ca        1 1KR     -0.039000
      9 C22         0.9580    0.3140    4.2900 ca        1 1KR     -0.130000
     10 C23         0.8120    0.7190    2.9670 ca        1 1KR     -0.068000
     11 N15        -2.4090    0.0010   -1.2110 n4        1 1KR     -0.670800
     12 C13        -2.7720   -0.2300   -2.6520 c3        1 1KR      0.090500
     13 C11        -2.4360    1.0350   -3.4680 c         1 1KR      0.533100
     14 O12        -2.8410    2.1500   -3.1720 o         1 1KR     -0.383100
     15 C14        -4.2550   -0.5400   -2.8190 c3        1 1KR     -0.161100
     16 N29         1.2400    4.3600   -7.9760 n4        1 1KR     -0.637800
     17 C28         0.9730    4.3540   -6.5370 cx        1 1KR      0.054500
     18 C27        -0.3670    4.7920   -5.9960 cx        1 1KR     -0.101400
     19 C26         0.0540    3.3550   -5.8410 cx        1 1KR     -0.130700
     20 C25        -0.6520    2.2620   -6.5740 c3        1 1KR     -0.099400
     21 C9         -1.9090    1.7710   -5.8390 c3        1 1KR      0.142500
     22 C8         -2.8200    1.0240   -6.8190 c3        1 1KR     -0.119400
     23 C7         -4.1910    0.7010   -6.2500 c3        1 1KR     -0.035100
     24 C6         -4.6060   -0.7060   -6.5070 ca        1 1KR     -0.136300
     25 C1         -3.8050   -1.7840   -6.1050 ca        1 1KR     -0.137000
     26 C2         -4.2070   -3.0940   -6.3470 ca        1 1KR     -0.102500
     27 C3         -5.4220   -3.3440   -6.9910 ca        1 1KR     -0.092000
     28 C4         -6.2270   -2.2770   -7.3900 ca        1 1KR     -0.102500
     29 C5         -5.8210   -0.9620   -7.1510 ca        1 1KR     -0.137000
     30 N10        -1.5450    0.8760   -4.6570 n4        1 1KR     -0.663800
     31 O40         0.6070    2.0310   -9.4170 o         1 1KR     -0.645100
     32 C39         1.3020    1.7740  -10.4120 c         1 1KR      0.621900
     33 C34         2.7010    2.3160  -10.5580 c3        1 1KR     -0.225700
     34 C35         3.1200    2.3640  -12.0350 c3        1 1KR     -0.066700
     35 C37         3.3090    0.9440  -12.5710 c3        1 1KR     -0.080400
     36 C38         3.0960    0.8780  -14.0620 c3        1 1KR     -0.103100
     37 C36         4.4010    3.1500  -12.2320 c3        1 1KR     -0.113100
     38 C32         2.8580    3.6860   -9.8810 c3        1 1KR      0.107100
     39 O33         2.0450    4.6820  -10.4710 oh        1 1KR     -0.633800
     40 C30         2.4650    3.5740   -8.4060 c         1 1KR      0.562100
     41 O31         3.0420    2.9160   -7.5580 o         1 1KR     -0.415100
     42 H37         1.1130    1.3390    0.3730 h1        1 1KR      0.087700
     43 H38         1.5270   -0.3830   -0.1970 h1        1 1KR      0.087700
     44 H39         1.5650   -2.2470    1.4140 ha        1 1KR      0.139000
     45 H40         1.8210   -2.9590    3.7880 ha        1 1KR      0.170500
     46 H41         1.4380   -1.3210    5.6350 ha        1 1KR      0.174000
     47 H42         0.7950    1.0350    5.1090 ha        1 1KR      0.170500
     48 H43         0.5370    1.7600    2.7390 ha        1 1KR      0.139000
     49 H36        -2.9250    0.8140   -0.8380 hn        1 1KR      0.497300
     50 H32        -2.1560   -1.1170   -2.9990 hx        1 1KR      0.136700
     51 H33        -4.8920    0.3540   -2.6010 hc        1 1KR      0.117367
     52 H34        -4.5680   -1.3840   -2.1510 hc        1 1KR      0.117367
     53 H35        -4.4440   -0.8690   -3.8800 hc        1 1KR      0.117367
     54 H16         1.3710    5.3370   -8.2900 hn        1 1KR      0.484800
     55 H17         1.9030    4.6440   -5.9840 hx        1 1KR      0.160700
     56 H18        -0.3690    5.4630   -5.1130 hc        1 1KR      0.122200
     57 H19        -1.1920    5.0390   -6.6930 hc        1 1KR      0.122200
     58 H20         0.4250    3.0360   -4.8420 hc        1 1KR      0.097700
     59 H21        -0.9970    2.6180   -7.5880 hc        1 1KR      0.103200
     60 H22         0.0580    1.4140   -6.7790 hc        1 1KR      0.103200
     61 H23        -2.4590    2.6650   -5.4100 hx        1 1KR      0.130700
     62 H24        -2.3110    0.0940   -7.1940 hc        1 1KR      0.101200
     63 H25        -4.9470    1.4030   -6.7010 hc        1 1KR      0.049700
     64 H26        -2.8380   -1.6020   -5.6140 ha        1 1KR      0.107000
     65 H27        -3.5670   -3.9370   -6.0430 ha        1 1KR      0.161500
     66 H28        -5.7400   -4.3810   -7.1870 ha        1 1KR      0.172000
     67 H29        -7.1860   -2.4700   -7.9010 ha        1 1KR      0.161500
     68 H30        -6.4640   -0.1290   -7.4760 ha        1 1KR      0.107000
     69 H31        -1.5660   -0.1020   -4.9770 hn        1 1KR      0.478800
     70 H1         -2.9550    1.6900   -7.7170 hc        1 1KR      0.101200
     71 H3         -4.2180    0.8950   -5.1410 hc        1 1KR      0.049700
     72 H2          0.9290    1.1140  -11.2280 h4        1 1KR      0.070200
     73 H4          3.3920    1.5930  -10.0260 hc        1 1KR      0.124700
     74 H5          2.2940    2.8650  -12.6150 hc        1 1KR      0.065700
     75 H6          2.5970    0.2380  -12.0690 hc        1 1KR      0.047700
     76 H7          4.3460    0.5920  -12.3220 hc        1 1KR      0.047700
     77 H8          2.0550    1.1790  -14.3320 hc        1 1KR      0.055033
     78 H9          3.8070    1.5500  -14.6010 hc        1 1KR      0.055033
     79 H10         3.2650   -0.1670  -14.4230 hc        1 1KR      0.055033
     80 H11         4.7680    3.0110  -13.2810 hc        1 1KR      0.057033
     81 H12         5.2020    2.7950  -11.5390 hc        1 1KR      0.057033
     82 H13         4.2420    4.2440  -12.0740 hc        1 1KR      0.057033
     83 H14         3.9470    3.9990   -9.8920 h1        1 1KR      0.134700
     84 H15         2.3860    4.8550  -11.3640 ho        1 1KR      0.481000
     85 H152       -2.6810   -0.8260   -0.6540 hn        1 1KR      0.497300
     86 H292        0.4450    3.9670   -8.5090 hn        1 1KR      0.484800
     87 H102       -0.5860    1.0990   -4.3430 hn        1 1KR      0.478800
@<TRIPOS>BOND
     1    1    2 2   
     2    1    3 1   
     3    1   11 1   
     4    3    4 1   
     5    4    5 1   
     6    4   42 1   
     7    4   43 1   
     8    5    6 ar  
     9    5   10 ar  
    10    6    7 ar  
    11    6   44 1   
    12    7    8 ar  
    13    7   45 1   
    14    8    9 ar  
    15    8   46 1   
    16    9   10 ar  
    17    9   47 1   
    18   10   48 1   
    19   11   12 1   
    20   11   49 1   
    21   11   85 1   
    22   12   13 1   
    23   12   15 1   
    24   12   50 1   
    25   13   14 2   
    26   13   30 1   
    27   15   51 1   
    28   15   52 1   
    29   15   53 1   
    30   16   17 1   
    31   16   40 1   
    32   16   54 1   
    33   16   86 1   
    34   17   18 1   
    35   17   19 1   
    36   17   55 1   
    37   18   19 1   
    38   18   56 1   
    39   18   57 1   
    40   19   20 1   
    41   19   58 1   
    42   20   21 1   
    43   20   59 1   
    44   20   60 1   
    45   21   22 1   
    46   21   30 1   
    47   21   61 1   
    48   22   23 1   
    49   22   62 1   
    50   22   70 1   
    51   23   24 1   
    52   23   63 1   
    53   23   71 1   
    54   24   25 ar  
    55   24   29 ar  
    56   25   26 ar  
    57   25   64 1   
    58   26   27 ar  
    59   26   65 1   
    60   27   28 ar  
    61   27   66 1   
    62   28   29 ar  
    63   28   67 1   
    64   29   68 1   
    65   30   69 1   
    66   30   87 1   
    67   31   32 2   
    68   32   33 1   
    69   32   72 1   
    70   33   34 1   
    71   33   38 1   
    72   33   73 1   
    73   34   35 1   
    74   34   37 1   
    75   34   74 1   
    76   35   36 1   
    77   35   75 1   
    78   35   76 1   
    79   36   77 1   
    80   36   78 1   
    81   36   79 1   
    82   37   80 1   
    83   37   81 1   
    84   37   82 1   
    85   38   39 1   
    86   38   40 1   
    87   38   83 1   
    88   39   84 1   
    89   40   41 2   
@<TRIPOS>SUBSTRUCTURE
     1 1KR         1 TEMP              0 ****  ****    0 ROOT
