@<TRIPOS>MOLECULE
1KS
   62    63     1     0     0
SMALL
bcc


@<TRIPOS>ATOM
      1 F1         -0.9520    1.7880   -0.5150 f         1 1KS     -0.063000
      2 C1          0.2860    1.2640   -0.6100 ca        1 1KS      0.152000
      3 O1          4.5960   -1.3300   -0.1350 o         1 1KS     -0.168000
      4 N1          5.0280   -0.1220   -2.1100 n4        1 1KS     -0.013000
      5 C10         6.3780    0.2940   -1.7370 c2        1 1KS     -0.246000
      6 C11        11.2910    0.8770   -0.9580 c3        1 1KS     -0.271000
      7 C12        10.2240    0.9980   -1.9690 c1        1 1KS     -0.101000
      8 C13         7.5190   -1.9420   -1.4040 c3        1 1KS     -0.226000
      9 C14         7.4450   -0.4750   -1.4750 c2        1 1KS     -0.033000
     10 C15         9.4710    1.6470   -4.1670 c2        1 1KS      0.084000
     11 C16         9.6700    2.6960   -5.1970 c2        1 1KS     -0.014000
     12 C17         8.6660    2.7350   -6.2510 c2        1 1KS     -0.133000
     13 C18         8.7590    3.6560   -7.2550 c2        1 1KS     -0.044000
     14 C19         9.9400    4.5260   -7.3770 c3        1 1KS     -0.219000
     15 C2          1.4120    2.1070   -0.5030 ca        1 1KS     -0.126000
     16 F2          3.5680    3.7510    0.0650 f         1 1KS     -0.150667
     17 N2         10.4680    1.5130   -3.1640 nh        1 1KS     -0.161000
     18 C20        10.9230    4.4490   -6.3120 c1        1 1KS     -0.058000
     19 C21        10.6760    3.6340   -5.1850 c2        1 1KS     -0.182000
     20 C22         7.5530    1.7950   -6.1150 c2        1 1KS      0.022000
     21 C23         6.4780    1.8030   -7.1470 c2        1 1KS     -0.025000
     22 C24         6.7530    1.4130   -8.4030 c2        1 1KS     -0.193000
     23 C25         4.3320    1.2180   -4.6070 c1        1 1KS      0.019000
     24 C3          2.6920    1.5690   -0.6080 ca        1 1KS     -0.089000
     25 N3          7.4760    0.9330   -5.1080 n2        1 1KS     -0.085000
     26 C4          3.8780    2.5290   -0.4650 c3        1 1KS      0.457000
     27 F4          4.4910    2.8170   -1.6650 f         1 1KS     -0.150667
     28 N4          8.3940    0.8440   -4.1780 n2        1 1KS     -0.069000
     29 C5          2.8640    0.1940   -0.8220 ca        1 1KS     -0.142000
     30 N5          4.6960    1.6800   -5.6300 n2        1 1KS     -0.197000
     31 C6          1.7400   -0.6420   -0.9050 ca        1 1KS     -0.053000
     32 N6          5.1970    2.3290   -6.6910 n3        1 1KS     -0.030000
     33 C7          0.4560   -0.1200   -0.8070 ca        1 1KS     -0.140000
     34 C8          4.1820   -0.4770   -0.9070 c2        1 1KS      0.301000
     35 C9          5.0190   -1.2500   -3.0800 c3        1 1KS     -0.183000
     36 H1          6.4550    1.4010   -1.7200 hx        1 1KS      0.185000
     37 H2          8.4170    0.0720   -1.3240 ha        1 1KS      0.230000
     38 H3         12.3100    1.2340   -1.2540 hc        1 1KS      0.109000
     39 H4         11.3620   -0.2050   -0.6730 hc        1 1KS      0.109000
     40 H5         10.9630    1.4510   -0.0520 hc        1 1KS      0.109000
     41 H6          6.6320   -2.3790   -0.8780 hc        1 1KS      0.106333
     42 H7         11.3700    1.8530   -3.4550 hn        1 1KS      0.198000
     43 H8          8.4380   -2.2580   -0.8480 hc        1 1KS      0.106333
     44 H9          7.5800   -2.3730   -2.4370 hc        1 1KS      0.106333
     45 H10         7.9420    3.7830   -7.9850 ha        1 1KS      0.150000
     46 H11        10.4950    4.2740   -8.3370 hc        1 1KS      0.194500
     47 H12         1.2660    3.1880   -0.3270 ha        1 1KS      0.192000
     48 H13         9.6280    5.6090   -7.5050 hc        1 1KS      0.194500
     49 H14        11.3590    3.7630   -4.3300 ha        1 1KS      0.161000
     50 H15         7.7770    1.1330   -8.6930 ha        1 1KS      0.145500
     51 H16         6.0090    1.3550   -9.2080 ha        1 1KS      0.145500
     52 H17         3.9380    1.5840   -8.3170 h1        1 1KS      0.108000
     53 H18         3.3170    3.0310   -7.3890 h1        1 1KS      0.108000
     54 H19         4.7350    3.2240   -8.5180 h1        1 1KS      0.108000
     55 H20         1.8750   -1.7290   -1.0370 ha        1 1KS      0.166000
     56 H21        -0.4260   -0.7780   -0.8740 ha        1 1KS      0.183000
     57 H22         5.2310   -2.2140   -2.5480 hx        1 1KS      0.140667
     58 H23         4.0130   -1.2910   -3.5770 hx        1 1KS      0.140667
     59 H24         5.8110   -1.0600   -3.8560 hx        1 1KS      0.140667
     60 C26         4.2360    2.5300   -7.7920 c3        1 1KS     -0.148000
     61 F3          4.8980    2.0540    0.3210 f         1 1KS     -0.150667
     62 H111        4.5880    0.6940   -2.5990 hn        1 1KS      0.290000
@<TRIPOS>BOND
     1    1    2 1   
     2    2   15 1   
     3    2   33 1   
     4    3   34 1   
     5    4    5 1   
     6    4   34 1   
     7    4   35 1   
     8    4   62 1   
     9    5    9 1   
    10    5   36 1   
    11    6    7 1   
    12    6   38 1   
    13    6   39 1   
    14    6   40 1   
    15    7   17 1   
    16    8    9 1   
    17    8   41 1   
    18    8   43 1   
    19    8   44 1   
    20    9   37 1   
    21   10   11 1   
    22   10   17 1   
    23   10   28 1   
    24   11   12 1   
    25   11   19 1   
    26   12   13 1   
    27   12   20 1   
    28   13   14 1   
    29   13   45 1   
    30   14   18 1   
    31   14   46 1   
    32   14   48 1   
    33   15   24 1   
    34   15   47 1   
    35   16   26 1   
    36   17   42 1   
    37   18   19 1   
    38   19   49 1   
    39   20   21 1   
    40   20   25 1   
    41   21   22 1   
    42   21   32 1   
    43   22   50 1   
    44   22   51 1   
    45   23   30 1   
    46   24   26 1   
    47   24   29 1   
    48   25   28 1   
    49   26   27 1   
    50   26   61 1   
    51   29   31 1   
    52   29   34 1   
    53   30   32 1   
    54   31   33 1   
    55   31   55 1   
    56   32   60 1   
    57   33   56 1   
    58   35   57 1   
    59   35   58 1   
    60   35   59 1   
    61   52   60 1   
    62   53   60 1   
    63   54   60 1   
@<TRIPOS>SUBSTRUCTURE
     1 1KS         1 TEMP              0 ****  ****    0 ROOT
