@<TRIPOS>MOLECULE
1KS
   62    63     1     0     0
SMALL
bcc


@<TRIPOS>ATOM
      1 F1          1.0300   -1.4500    0.2720 f         1 1KS     -0.072000
      2 C1          1.9500   -0.5190   -0.0560 ca        1 1KS      0.128000
      3 O1          5.8410    2.1220   -1.8730 o         1 1KS     -0.475000
      4 N1          4.6690    3.7190   -0.7150 n         1 1KS     -0.340000
      5 C10         8.4470   -2.8280    0.0700 c1        1 1KS     -0.248000
      6 C11         8.2310    0.5140   -1.0410 c3        1 1KS     -0.284000
      7 C12         7.7410    0.6170   -2.4300 c2        1 1KS      0.228000
      8 C13         8.5120   -4.0980   -2.2260 c3        1 1KS     -0.125000
      9 C14         8.4750   -3.3980   -0.9830 c1        1 1KS     -0.157000
     10 C15         7.8940    1.4510   -4.7210 c2        1 1KS      0.030000
     11 C16         8.3060    2.6200   -5.4930 c2        1 1KS     -0.216000
     12 C17         8.2170    2.4500   -6.9910 c3        1 1KS     -0.138000
     13 C18         8.1730    3.6640   -7.8050 c1        1 1KS      0.026000
     14 C19         8.3260    4.9830   -7.1900 c3        1 1KS     -0.248000
     15 C2          2.7850    0.0200    0.9450 ca        1 1KS     -0.124000
     16 F2          4.6230    0.8330    2.8740 f         1 1KS     -0.158667
     17 N2          8.3160    1.3610   -3.3530 n3        1 1KS     -0.105000
     18 C20         8.3200    4.9390   -5.7500 c1        1 1KS     -0.004000
     19 C21         8.6730    3.8460   -4.9760 c2        1 1KS     -0.106000
     20 C22         7.1600    1.4260   -7.3650 c2        1 1KS      0.054000
     21 C23         6.7200    1.3690   -8.7470 c2        1 1KS     -0.095000
     22 C24         7.5780    1.7480   -9.9520 c3        1 1KS     -0.198000
     23 C25         6.6320    1.4140  -11.1010 c1        1 1KS     -0.133000
     24 C3          3.7310    0.9830    0.6020 ca        1 1KS     -0.114000
     25 N3          6.7020    0.5450   -6.4800 n2        1 1KS     -0.070000
     26 C4          4.6200    1.5540    1.7090 c3        1 1KS      0.465000
     27 F4          4.2830    2.8290    2.0900 f         1 1KS     -0.158667
     28 N4          7.1260    0.4850   -5.2420 n2        1 1KS     -0.048000
     29 C5          3.8580    1.4140   -0.7250 ca        1 1KS     -0.116000
     30 N5          5.4850    0.9760  -10.6230 n2        1 1KS     -0.175000
     31 C6          3.0310    0.8700   -1.7130 ca        1 1KS     -0.071000
     32 N6          5.5360    0.9320   -9.2310 n3        1 1KS      0.080000
     33 C7          2.0770   -0.0900   -1.3910 ca        1 1KS     -0.139000
     34 C8          4.8670    2.4370   -1.1410 c2        1 1KS      0.367000
     35 C9          5.5380    4.8040   -1.0560 c3        1 1KS     -0.084000
     36 H1          8.4280   -2.3680    1.0260 ha        1 1KS      0.227000
     37 H2          6.8240    0.0330   -2.6940 h4        1 1KS      0.227000
     38 H3          8.3290   -0.5760   -0.7670 hc        1 1KS      0.159667
     39 H4          7.4450    0.9690   -0.3700 hc        1 1KS      0.159667
     40 H5          9.2050    1.0270   -0.8500 hc        1 1KS      0.159667
     41 H6          9.1110    1.9380   -3.1290 hn        1 1KS      0.274000
     42 H7          7.6270   -3.8330   -2.8610 hc        1 1KS      0.102667
     43 H8          9.4470   -3.8500   -2.7940 hc        1 1KS      0.102667
     44 H9          8.4960   -5.2050   -2.0450 hc        1 1KS      0.102667
     45 H10         9.2190    1.9920   -7.3340 hc        1 1KS      0.205000
     46 H11         9.2730    5.4590   -7.6050 hc        1 1KS      0.217500
     47 H12         2.6800   -0.3260    1.9880 ha        1 1KS      0.186000
     48 H13         7.4910    5.6510   -7.5810 hc        1 1KS      0.217500
     49 H14         9.0430    3.9980   -3.9510 ha        1 1KS      0.165000
     50 H15         8.5070    1.1330  -10.0090 hc        1 1KS      0.172000
     51 H16         7.8390    2.8380   -9.9510 hc        1 1KS      0.172000
     52 H17         4.2640    1.1150   -7.5510 h1        1 1KS      0.127667
     53 H18         3.4990    0.4110   -9.0620 h1        1 1KS      0.127667
     54 H19         4.6690   -0.5970   -8.0750 h1        1 1KS      0.127667
     55 H20         3.1360    1.2080   -2.7570 ha        1 1KS      0.160000
     56 H21         1.4190   -0.5150   -2.1660 ha        1 1KS      0.175000
     57 H22         6.1260    4.5560   -1.9790 h1        1 1KS      0.095333
     58 H23         4.9220    5.7240   -1.2480 h1        1 1KS      0.095333
     59 H24         6.2510    5.0140   -0.2140 h1        1 1KS      0.095333
     60 C26         4.4310    0.4420   -8.4330 c3        1 1KS     -0.124000
     61 F3          5.9510    1.6420    1.3690 f         1 1KS     -0.158667
     62 H111        3.9250    3.9080   -0.0790 hn        1 1KS      0.253000
@<TRIPOS>BOND
     1    1    2 1   
     2    2   15 1   
     3    2   33 1   
     4    3   34 1   
     5    4   34 1   
     6    4   35 1   
     7    4   62 1   
     8    5    9 1   
     9    5   36 1   
    10    6    7 1   
    11    6   38 1   
    12    6   39 1   
    13    6   40 1   
    14    7   17 1   
    15    7   37 1   
    16    8    9 1   
    17    8   42 1   
    18    8   43 1   
    19    8   44 1   
    20   10   11 1   
    21   10   17 1   
    22   10   28 1   
    23   11   12 1   
    24   11   19 1   
    25   12   13 1   
    26   12   20 1   
    27   12   45 1   
    28   13   14 1   
    29   14   18 1   
    30   14   46 1   
    31   14   48 1   
    32   15   24 1   
    33   15   47 1   
    34   16   26 1   
    35   17   41 1   
    36   18   19 1   
    37   19   49 1   
    38   20   21 1   
    39   20   25 1   
    40   21   22 1   
    41   21   32 1   
    42   22   23 1   
    43   22   50 1   
    44   22   51 1   
    45   23   30 1   
    46   24   26 1   
    47   24   29 1   
    48   25   28 1   
    49   26   27 1   
    50   26   61 1   
    51   29   31 1   
    52   29   34 1   
    53   30   32 1   
    54   31   33 1   
    55   31   55 1   
    56   32   60 1   
    57   33   56 1   
    58   35   57 1   
    59   35   58 1   
    60   35   59 1   
    61   52   60 1   
    62   53   60 1   
    63   54   60 1   
@<TRIPOS>SUBSTRUCTURE
     1 1KS         1 TEMP              0 ****  ****    0 ROOT
