@<TRIPOS>MOLECULE
1KS
   62    60     1     0     0
SMALL
bcc


@<TRIPOS>ATOM
      1 F1          5.7980    1.6370    4.6370 f         1 1KS     -0.071000
      2 C1          5.3610    1.6400    3.3610 ca        1 1KS      0.132000
      3 O1          4.6510    1.1420   -1.6260 o         1 1KS     -0.469000
      4 N1          2.7620    2.2520   -0.9580 ns        1 1KS     -0.345000
      5 C10         9.2220   -3.0810   -1.0010 c1        1 1KS     -0.252000
      6 C11         6.2100   -1.6620   -2.2200 c3        1 1KS     -0.273000
      7 C12         6.5900   -0.9950   -3.4850 c2        1 1KS      0.145000
      8 C13         8.7750   -5.4270   -2.0900 c3        1 1KS     -0.125000
      9 C14         9.0120   -4.1480   -1.5010 c1        1 1KS     -0.150000
     10 C15         6.9820    0.9710   -4.8480 c2        1 1KS     -0.117000
     11 C16         6.4990    2.2690   -5.1400 c2        1 1KS      0.082000
     12 C17         6.9430    2.8480   -6.3680 c2        1 1KS     -0.052000
     13 C18         6.5030    4.2100   -6.6460 c2        1 1KS     -0.134000
     14 C19         5.2440    4.5440   -6.9790 c2        1 1KS     -0.113000
     15 C2          6.2560    1.9510    2.3170 ca        1 1KS     -0.129000
     16 F2          7.9860    2.8200    0.3240 f         1 1KS     -0.165333
     17 N2          6.6080    0.3070   -3.6390 nu        1 1KS     -0.047000
     18 C20         5.0360    4.1930   -4.7120 c1        1 1KS      0.235000
     19 C21         5.6010    3.0440   -4.3260 c2        1 1KS     -0.479000
     20 C22         7.8040    2.1040   -7.1860 c2        1 1KS      0.020000
     21 C23         8.3060    2.6190   -8.4820 c2        1 1KS     -0.028000
     22 C24         9.6300    2.6720   -8.7220 c2        1 1KS     -0.188000
     23 C25         5.1990    1.8720   -9.7660 c1        1 1KS      0.101000
     24 C3          5.8010    1.9530    1.0000 ca        1 1KS     -0.093000
     25 N3          8.2240    0.8340   -6.7950 n2        1 1KS     -0.006000
     26 C4          6.8110    2.2590   -0.1060 c3        1 1KS      0.475000
     27 F4          6.3690    3.1180   -1.0820 f         1 1KS     -0.165333
     28 N4          7.8530    0.3100   -5.7230 n2        1 1KS     -0.019000
     29 C5          4.4610    1.6610    0.7070 ca        1 1KS     -0.107000
     30 N5          6.2390    2.4170   -9.5990 n2        1 1KS     -0.277000
     31 C6          3.5830    1.3450    1.7500 ca        1 1KS     -0.082000
     32 N6          7.3250    3.1590   -9.3920 n7        1 1KS     -0.127000
     33 C7          4.0190    1.3300    3.0710 ca        1 1KS     -0.137000
     34 C8          3.9680    1.6600   -0.7040 c2        1 1KS      0.368000
     35 C9          2.1700    2.2940   -2.2610 c3        1 1KS     -0.085000
     36 H1          9.4430   -2.1530   -0.5380 ha        1 1KS      0.224000
     37 H2          6.8800   -1.6550   -4.3380 h4        1 1KS      0.208000
     38 H3          7.1090   -2.2170   -1.8250 hc        1 1KS      0.154000
     39 H4          5.8470   -0.9500   -1.4320 hc        1 1KS      0.154000
     40 H5          5.4030   -2.4110   -2.4340 hc        1 1KS      0.154000
     41 H6          6.3390    0.9230   -2.8710 hn        1 1KS      0.312000
     42 H7          7.7280   -5.7700   -1.8890 hc        1 1KS      0.103333
     43 H8          9.4820   -6.1860   -1.6610 hc        1 1KS      0.103333
     44 H9          8.9330   -5.3890   -3.1990 hc        1 1KS      0.103333
     45 H10         7.2970    4.9760   -6.5600 ha        1 1KS      0.168000
     46 H11         4.9580    5.5940   -7.1480 ha        1 1KS      0.147000
     47 H12         7.3060    2.1930    2.5550 ha        1 1KS      0.184000
     48 H13         4.4490    3.8050   -7.1630 ha        1 1KS      0.147000
     49 H14         5.3490    2.6970   -3.2990 ha        1 1KS      0.206000
     50 H15        10.3680    2.3770   -7.9640 ha        1 1KS      0.139500
     51 H16        10.0430    3.0330   -9.6750 ha        1 1KS      0.139500
     52 H17         7.8680    3.8950  -12.7960 ha        1 1KS      0.055000
     53 H18         7.7840    3.3700  -10.3250 hn        1 1KS      0.265000
     54 H19         9.5830    3.8930  -12.1350 ha        1 1KS      0.055000
     55 H20         2.5330    1.0880    1.5360 ha        1 1KS      0.157000
     56 H21         3.3270    1.0790    3.8910 ha        1 1KS      0.176000
     57 H22         2.9500    2.1170   -3.0490 h1        1 1KS      0.096667
     58 H23         1.3770    1.5030   -2.3530 h1        1 1KS      0.096667
     59 H24         1.7020    3.3020   -2.4250 h1        1 1KS      0.096667
     60 C26         8.5170    3.7400  -11.9250 c1        1 1KS     -0.043000
     61 F3          7.2180    1.1500   -0.8150 f         1 1KS     -0.165333
     62 H111        2.2560    2.6640   -0.2080 hn        1 1KS      0.244000
@<TRIPOS>BOND
     1    1    2 1   
     2    2   15 1   
     3    2   33 1   
     4    3   34 1   
     5    4   34 1   
     6    4   35 1   
     7    4   62 1   
     8    5    9 1   
     9    5   36 1   
    10    6    7 1   
    11    6   38 1   
    12    6   39 1   
    13    6   40 1   
    14    7   17 1   
    15    7   37 1   
    16    8    9 1   
    17    8   42 1   
    18    8   43 1   
    19    8   44 1   
    20   10   11 1   
    21   10   17 1   
    22   10   28 1   
    23   11   12 1   
    24   11   19 1   
    25   12   13 1   
    26   12   20 1   
    27   13   14 1   
    28   13   45 1   
    29   14   46 1   
    30   14   48 1   
    31   15   24 1   
    32   15   47 1   
    33   16   26 1   
    34   17   41 1   
    35   18   19 1   
    36   19   49 1   
    37   20   21 1   
    38   20   25 1   
    39   21   22 1   
    40   21   32 1   
    41   22   50 1   
    42   22   51 1   
    43   23   30 1   
    44   24   26 1   
    45   24   29 1   
    46   25   28 1   
    47   26   27 1   
    48   26   61 1   
    49   29   31 1   
    50   29   34 1   
    51   30   32 1   
    52   31   33 1   
    53   31   55 1   
    54   32   53 1   
    55   33   56 1   
    56   35   57 1   
    57   35   58 1   
    58   35   59 1   
    59   52   60 1   
    60   54   60 1   
@<TRIPOS>SUBSTRUCTURE
     1 1KS         1 TEMP              0 ****  ****    0 ROOT
