@<TRIPOS>MOLECULE
1KS
   61    55     1     0     0
SMALL
bcc


@<TRIPOS>ATOM
      1 F1         -4.7020   -3.8960   -0.7480 f         1 1KS     -0.092000
      2 C1         -3.6510   -4.7280   -0.8280 c2        1 1KS      0.101000
      3 O1         -1.5380   -3.4850    0.1070 o         1 1KS     -0.327000
      4 N1          0.3060   -3.4290   -1.2370 n         1 1KS     -0.308000
      5 C10         0.4880   -1.7830   -1.0370 c3        1 1KS      0.018000
      6 C11         0.9170   -1.6120    0.2390 c3        1 1KS     -0.197500
      7 C12         1.5570   -0.2280    0.4400 c3        1 1KS     -0.059000
      8 C13         1.7990    0.0310   -1.9650 c3        1 1KS     -0.059000
      9 C14         1.1730   -1.3320   -2.1880 c3        1 1KS     -0.197500
     10 C15         1.8750    2.1050   -0.4960 c1        1 1KS      0.051000
     11 C16         2.3610    3.2620    0.1320 c2        1 1KS     -0.057000
     12 C17         1.4900    4.2120    0.5720 c1        1 1KS     -0.035000
     13 C18         1.9810    5.4000    1.1720 c1        1 1KS     -0.115000
     14 C19         3.3510    5.5950    1.3110 c1        1 1KS     -0.118500
     15 C2         -2.9630   -4.9270    0.3740 c2        1 1KS     -0.131000
     16 F2         -2.2810   -5.9150    2.5570 f         1 1KS     -0.159667
     17 N2          1.1380    0.8500   -0.7070 n2        1 1KS     -0.213000
     18 C20         4.2400    4.6260    0.8620 c1        1 1KS     -0.118500
     19 C21         3.7600    3.4620    0.2740 c1        1 1KS     -0.100000
     20 C22         0.1090    4.0300    0.3960 c1        1 1KS     -0.013000
     21 C23        -1.2150    4.7190    0.7530 c1        1 1KS     -0.038000
     22 C24        -1.8610    5.6640   -0.0040 c1        1 1KS     -0.215000
     23 C25        -2.9460    6.1020    0.7040 c1        1 1KS     -0.180000
     24 C26        -2.1800    3.9620    3.1470 c3        1 1KS     -0.062000
     25 C3         -1.6380   -5.3480    0.3540 c1        1 1KS     -0.108000
     26 F3         -0.9610   -4.1750    2.2740 f         1 1KS     -0.159667
     27 N3         -0.3580    2.9070   -0.2140 n1        1 1KS     -0.036000
     28 C4         -1.2480   -5.4090    1.8370 c2        1 1KS      0.466000
     29 F4         -0.1660   -6.2020    1.9850 f         1 1KS     -0.159667
     30 N4          0.5320    1.9340   -0.6650 n1        1 1KS     -0.104000
     31 C5         -0.9950   -5.5730   -0.8630 c2        1 1KS     -0.072000
     32 N5         -2.9720    5.4390    1.8810 n2        1 1KS     -0.070000
     33 C6         -1.6790   -5.3760   -2.0580 c1        1 1KS     -0.082000
     34 N6         -1.8940    4.5790    1.9100 n3        1 1KS     -0.092000
     35 C7         -3.0120   -4.9520   -2.0390 c1        1 1KS     -0.141000
     36 C8         -0.7590   -4.1050   -0.5910 c2        1 1KS      0.330000
     37 C9          1.1810   -4.1450   -2.1080 c3        1 1KS     -0.085000
     38 H1         -0.4110   -1.3870   -1.0800 h1        1 1KS      0.143000
     39 H2          0.1530   -1.7040    0.8500 hc        1 1KS      0.097250
     40 H3          1.5800   -2.3050    0.4490 hc        1 1KS      0.097250
     41 H4          1.2800    0.1220    1.3160 h1        1 1KS      0.100750
     42 H5          2.5380   -0.3290    0.4360 h1        1 1KS      0.100750
     43 H6          2.7650   -0.0880   -1.7930 h1        1 1KS      0.100750
     44 H7          1.6880    0.5630   -2.7780 h1        1 1KS      0.100750
     45 H8          1.8810   -1.9780   -2.4140 hc        1 1KS      0.097250
     46 H9          0.5410   -1.2750   -2.9350 hc        1 1KS      0.097250
     47 H10         1.3600    6.0770    1.4850 ha        1 1KS      0.157000
     48 H11         3.6910    6.4220    1.7280 ha        1 1KS      0.139500
     49 H12        -3.4270   -4.8240    1.2220 ha        1 1KS      0.173000
     50 H13         5.2180    4.7650    0.9610 ha        1 1KS      0.139500
     51 H14         4.3910    2.7720   -0.0450 ha        1 1KS      0.153000
     52 H15        -1.5910    5.9720   -0.9000 DU        1 1KS      0.173000
     53 H16        -3.5890    6.7750    0.4100 DU        1 1KS      0.173000
     54 H17        -2.8360    3.2440    3.0110 h1        1 1KS      0.106333
     55 H18        -1.3500    3.5820    3.5260 h1        1 1KS      0.106333
     56 H19        -2.5430    4.6190    3.7580 h1        1 1KS      0.106333
     57 H20        -1.2240   -5.5350   -2.9190 ha        1 1KS      0.161000
     58 H21        -3.5010   -4.8110   -2.8920 ha        1 1KS      0.162000
     59 H22         2.0610   -4.2490   -1.6770 h1        1 1KS      0.083667
     60 H23         0.7990   -5.0390   -2.2980 h1        1 1KS      0.083667
     61 H24         1.2860   -3.6450   -2.9530 h1        1 1KS      0.083667
@<TRIPOS>BOND
     1    1    2 1   
     2    2   15 1   
     3    2   35 1   
     4    3   36 1   
     5    4    5 1   
     6    4   36 1   
     7    4   37 1   
     8    5    6 1   
     9    5    9 1   
    10    5   38 1   
    11    6    7 1   
    12    6   39 1   
    13    6   40 1   
    14    7   17 1   
    15    7   41 1   
    16    7   42 1   
    17    8    9 1   
    18    8   17 1   
    19    8   43 1   
    20    8   44 1   
    21    9   45 1   
    22    9   46 1   
    23   10   11 1   
    24   10   30 1   
    25   11   12 1   
    26   11   19 1   
    27   12   13 1   
    28   13   47 1   
    29   14   18 1   
    30   14   48 1   
    31   15   25 1   
    32   15   49 1   
    33   16   28 1   
    34   18   50 1   
    35   19   51 1   
    36   20   27 1   
    37   21   22 1   
    38   21   34 1   
    39   22   23 1   
    40   23   32 1   
    41   24   34 1   
    42   24   54 1   
    43   24   55 1   
    44   24   56 1   
    45   25   31 1   
    46   26   28 1   
    47   28   29 1   
    48   31   33 1   
    49   31   36 1   
    50   32   34 1   
    51   33   57 1   
    52   35   58 1   
    53   37   59 1   
    54   37   60 1   
    55   37   61 1   
@<TRIPOS>SUBSTRUCTURE
     1 1KS         1 TEMP              0 ****  ****    0 ROOT
