@<TRIPOS>MOLECULE
1KS
   61    65     1     0     0
SMALL
bcc


@<TRIPOS>ATOM
      1 F1         -7.5760   -3.1990    0.9740 f         1 1KS     -0.126900
      2 C1         -6.6680   -2.2020    0.8640 ca        1 1KS      0.136900
      3 O1         -4.2470    2.1700    0.7650 o         1 1KS     -0.574100
      4 N1         -2.4790    0.7340    0.4040 n         1 1KS     -0.455800
      5 C10        -1.5720    1.8470    0.1360 c3        1 1KS      0.097700
      6 C11        -0.8960    1.8040   -1.2410 c3        1 1KS     -0.090900
      7 C12         0.3830    0.9750   -1.2990 c3        1 1KS      0.174800
      8 C13         0.7470    1.2450    1.0900 c3        1 1KS      0.174800
      9 C14        -0.5240    2.0740    1.2350 c3        1 1KS     -0.090900
     10 C15         2.6150    0.7310   -0.3390 ca        1 1KS      0.574200
     11 C16         3.7630    1.4560    0.1860 ca        1 1KS     -0.122300
     12 C17         5.0320    0.8270    0.0670 ca        1 1KS     -0.102300
     13 C18         6.1890    1.5060    0.5240 ca        1 1KS     -0.115000
     14 C19         6.0830    2.7560    1.0890 ca        1 1KS     -0.111000
     15 C2         -6.4470   -1.5930   -0.3840 ca        1 1KS     -0.129000
     16 F2         -5.8590   -0.6390   -2.9110 f         1 1KS     -0.230300
     17 N2          1.3260    1.3390   -0.2470 nh        1 1KS     -0.726300
     18 C20         4.8220    3.3810    1.2090 ca        1 1KS     -0.124000
     19 C21         3.6840    2.7480    0.7640 ca        1 1KS     -0.098000
     20 C22         5.0660   -0.4740   -0.5570 ca        1 1KS      0.424800
     21 C23         6.3190   -1.2160   -0.6400 cc        1 1KS     -0.170800
     22 C24         7.2750   -1.4450    0.3700 cd        1 1KS     -0.280300
     23 C25         8.2750   -2.2690   -0.2540 cd        1 1KS      0.286200
     24 C3         -5.5090   -0.5660   -0.4960 ca        1 1KS     -0.111300
     25 N3          3.9410   -1.0350   -1.0550 nb        1 1KS     -0.304000
     26 C4         -5.3190    0.0790   -1.8710 c3        1 1KS      0.688200
     27 F4         -5.8840    1.3230   -1.9960 f         1 1KS     -0.230300
     28 N4          2.7900   -0.4770   -0.9520 nb        1 1KS     -0.368000
     29 C5         -4.7910   -0.1420    0.6280 ca        1 1KS     -0.092600
     30 N5          7.9400   -2.5190   -1.5480 nc        1 1KS     -0.501800
     31 C6         -5.0190   -0.7520    1.8680 ca        1 1KS     -0.085000
     32 N6          6.7780   -1.9000   -1.7850 na        1 1KS      0.120400
     33 C7         -5.9490   -1.7770    1.9970 ca        1 1KS     -0.140000
     34 C8         -3.8300    1.0100    0.5830 c         1 1KS      0.657700
     35 C9         -2.0460   -0.6050    0.1200 c3        1 1KS      0.067300
     36 H1         -2.2210    2.7830    0.1370 h1        1 1KS      0.092700
     37 H2         -1.6040    1.4010   -2.0130 hc        1 1KS      0.062200
     38 H3         -0.6580    2.8650   -1.5200 hc        1 1KS      0.062200
     39 H4          0.1130   -0.1210   -1.2630 h1        1 1KS      0.047950
     40 H5          0.8880    1.1660   -2.2880 h1        1 1KS      0.047950
     41 H6          1.5110    1.6290    1.8250 h1        1 1KS      0.047950
     42 H7          0.5290    0.1720    1.3670 h1        1 1KS      0.047950
     43 H8         -0.2520    3.1630    1.2010 hc        1 1KS      0.062200
     44 H9         -0.9590    1.8650    2.2470 hc        1 1KS      0.062200
     45 H10         7.1720    1.0210    0.4090 ha        1 1KS      0.157000
     46 H11         6.9810    3.2840    1.4440 ha        1 1KS      0.141000
     47 H12        -7.0180   -1.9320   -1.2640 ha        1 1KS      0.174000
     48 H13         4.7620    4.3850    1.6560 ha        1 1KS      0.140000
     49 H14         2.7080    3.2540    0.8370 ha        1 1KS      0.155000
     50 H15         7.2550   -1.0950    1.3960 ha        1 1KS      0.166000
     51 H16         9.1880   -2.6670    0.1900 h4        1 1KS      0.044100
     52 H17         5.2230   -2.7000   -2.9560 h1        1 1KS      0.065700
     53 H18         5.6700   -0.9550   -3.2930 h1        1 1KS      0.065700
     54 H19         6.7680   -2.3080   -3.8600 h1        1 1KS      0.065700
     55 H20        -4.4590   -0.4060    2.7520 ha        1 1KS      0.158000
     56 H21        -6.1310   -2.2540    2.9720 ha        1 1KS      0.162000
     57 H22        -0.9850   -0.7340    0.4590 h1        1 1KS      0.047700
     58 H23        -2.6840   -1.3460    0.6720 h1        1 1KS      0.047700
     59 H24        -2.1070   -0.8250   -0.9820 h1        1 1KS      0.047700
     60 C26         6.0740   -1.9720   -3.0450 c3        1 1KS      0.037600
     61 F3         -4.0090    0.2550   -2.2470 f         1 1KS     -0.230300
@<TRIPOS>BOND
     1    1    2 1   
     2    2   15 ar  
     3    2   33 ar  
     4    3   34 2   
     5    4    5 1   
     6    4   34 1   
     7    4   35 1   
     8    5    6 1   
     9    5    9 1   
    10    5   36 1   
    11    6    7 1   
    12    6   37 1   
    13    6   38 1   
    14    7   17 1   
    15    7   39 1   
    16    7   40 1   
    17    8    9 1   
    18    8   17 1   
    19    8   41 1   
    20    8   42 1   
    21    9   43 1   
    22    9   44 1   
    23   10   11 ar  
    24   10   17 1   
    25   10   28 ar  
    26   11   12 ar  
    27   11   19 ar  
    28   12   13 ar  
    29   12   20 ar  
    30   13   14 ar  
    31   13   45 1   
    32   14   18 ar  
    33   14   46 1   
    34   15   24 ar  
    35   15   47 1   
    36   16   26 1   
    37   18   19 ar  
    38   18   48 1   
    39   19   49 1   
    40   20   21 1   
    41   20   25 ar  
    42   21   22 2   
    43   21   32 1   
    44   22   23 1   
    45   22   50 1   
    46   23   30 2   
    47   23   51 1   
    48   24   26 1   
    49   24   29 ar  
    50   25   28 ar  
    51   26   27 1   
    52   26   61 1   
    53   29   31 ar  
    54   29   34 1   
    55   30   32 1   
    56   31   33 ar  
    57   31   55 1   
    58   32   60 1   
    59   33   56 1   
    60   35   57 1   
    61   35   58 1   
    62   35   59 1   
    63   52   60 1   
    64   53   60 1   
    65   54   60 1   
@<TRIPOS>SUBSTRUCTURE
     1 1KS         1 TEMP              0 ****  ****    0 ROOT
