@<TRIPOS>MOLECULE
1KT
   70    74     1     0     0
SMALL
bcc


@<TRIPOS>ATOM
      1 O3         -0.9880   -3.9750   -0.2690 o         1 1KT     -0.628500
      2 C11        -1.1670   -2.8400    0.2080 c         1 1KT      0.685500
      3 C12         0.0600   -1.9600    0.5330 c3        1 1KT      0.038700
      4 N10        -2.4430   -2.3700    0.5170 n         1 1KT     -0.438800
      5 C9         -3.5620   -2.9440   -0.2040 c3        1 1KT      0.077000
      6 C8         -3.9890   -2.0850   -1.3960 c3        1 1KT     -0.071100
      7 C7         -4.2350   -0.6840   -0.9590 ca        1 1KT     -0.003300
      8 C6         -5.0900    0.1140   -1.7180 ca        1 1KT     -0.187000
      9 C5         -5.4110    1.4050   -1.2700 ca        1 1KT      0.166100
     10 O2         -6.2490    2.1170   -2.1030 os        1 1KT     -0.322900
     11 C27        -6.5490    3.4510   -1.7090 c3        1 1KT      0.112700
     12 C4         -4.9240    1.8810   -0.0480 ca        1 1KT     -0.277000
     13 C3         -4.0670    1.0630    0.6970 ca        1 1KT      0.169100
     14 O1         -3.6010    1.4180    1.9510 os        1 1KT     -0.337900
     15 C26        -3.9250    2.7270    2.4060 c3        1 1KT      0.113700
     16 C2         -3.6530   -0.2030    0.2260 ca        1 1KT     -0.163300
     17 C1         -2.6760   -1.0250    1.0360 c3        1 1KT      0.160000
     18 C16        -1.3630   -0.2000    1.3140 c3        1 1KT      0.097700
     19 C15        -0.9220   -0.4240    2.7740 c3        1 1KT     -0.091400
     20 C14        -0.4310   -1.8360    3.0170 c3        1 1KT     -0.084400
     21 C13         0.5450   -2.3020    1.9540 c3        1 1KT     -0.089400
     22 N17        -0.2930   -0.5630    0.4010 n         1 1KT     -0.455800
     23 C18         0.3560    0.3510   -0.3960 c         1 1KT      0.596100
     24 O4          0.0490    1.5590   -0.3910 o         1 1KT     -0.594100
     25 C19         1.4660   -0.1540   -1.3140 c         1 1KT      0.525700
     26 O5          1.1870   -0.7790   -2.3380 o         1 1KT     -0.485100
     27 C20         2.8440    0.1720   -0.9020 ca        1 1KT     -0.120600
     28 C21         3.8800   -0.6660   -1.3280 ca        1 1KT     -0.178500
     29 C25         3.1090    1.2970   -0.1170 ca        1 1KT     -0.178500
     30 C24         4.4270    1.5770    0.2630 ca        1 1KT      0.123100
     31 O8          4.7960    2.6720    1.0180 os        1 1KT     -0.311400
     32 C30         3.7390    3.5210    1.4570 c3        1 1KT      0.108700
     33 C23         5.4850    0.7290   -0.1300 ca        1 1KT      0.075100
     34 O7          6.7690    0.8910    0.3480 os        1 1KT     -0.310900
     35 C29         7.4490    2.0310   -0.1830 c3        1 1KT      0.115700
     36 C22         5.1970   -0.3880   -0.9470 ca        1 1KT      0.123100
     37 O6          6.2890   -1.1410   -1.3200 os        1 1KT     -0.311400
     38 C28         6.0100   -2.3250   -2.0630 c3        1 1KT      0.108700
     39 H1          0.8640   -2.2390   -0.2100 h1        1 1KT      0.096700
     40 H2         -3.2850   -3.9760   -0.5600 h1        1 1KT      0.072200
     41 H3         -4.4230   -3.0340    0.5170 h1        1 1KT      0.072200
     42 H4         -3.1970   -2.1000   -2.1920 hc        1 1KT      0.070200
     43 H5         -4.9220   -2.5220   -1.8400 hc        1 1KT      0.070200
     44 H6         -5.5210   -0.2570   -2.6580 ha        1 1KT      0.154000
     45 H7         -7.1190    3.4580   -0.7480 h1        1 1KT      0.045700
     46 H8         -5.6160    4.0570   -1.6160 h1        1 1KT      0.045700
     47 H9         -7.1860    3.8320   -2.5470 h1        1 1KT      0.045700
     48 H10        -5.2120    2.8750    0.3180 ha        1 1KT      0.145000
     49 H11        -3.4070    2.7900    3.3970 h1        1 1KT      0.047033
     50 H12        -3.5290    3.5010    1.7050 h1        1 1KT      0.047033
     51 H13        -5.0290    2.8370    2.5340 h1        1 1KT      0.047033
     52 H14        -3.1710   -1.1770    2.0500 h1        1 1KT      0.072700
     53 H15        -1.5930    0.8970    1.1710 h1        1 1KT      0.113700
     54 H16        -0.1070    0.3070    3.0190 hc        1 1KT      0.054700
     55 H17        -1.7910   -0.1940    3.4440 hc        1 1KT      0.054700
     56 H18         0.0680   -1.8870    4.0210 hc        1 1KT      0.051700
     57 H19        -1.3080   -2.5350    3.0480 hc        1 1KT      0.051700
     58 H20         0.6790   -3.4130    2.0160 hc        1 1KT      0.062700
     59 H21         1.5450   -1.8230    2.1200 hc        1 1KT      0.062700
     60 H22         3.6430   -1.5270   -1.9720 ha        1 1KT      0.164500
     61 H23         2.2820    1.9600    0.1840 ha        1 1KT      0.164500
     62 H24         3.0220    2.9570    2.1010 h1        1 1KT      0.049367
     63 H25         4.2730    4.3060    2.0510 h1        1 1KT      0.049367
     64 H26         3.2110    3.9760    0.5840 h1        1 1KT      0.049367
     65 H27         6.9030    2.9690    0.0810 h1        1 1KT      0.045367
     66 H28         8.4470    1.9940    0.3210 h1        1 1KT      0.045367
     67 H29         7.5590    1.9350   -1.2900 h1        1 1KT      0.045367
     68 H30         7.0220   -2.7810   -2.2050 h1        1 1KT      0.049367
     69 H31         5.3460   -3.0100   -1.4830 h1        1 1KT      0.049367
     70 H32         5.5500   -2.0710   -3.0490 h1        1 1KT      0.049367
@<TRIPOS>BOND
     1    1    2 2   
     2    2    3 1   
     3    2    4 1   
     4    3   21 1   
     5    3   22 1   
     6    3   39 1   
     7    4    5 1   
     8    4   17 1   
     9    5    6 1   
    10    5   40 1   
    11    5   41 1   
    12    6    7 1   
    13    6   42 1   
    14    6   43 1   
    15    7    8 ar  
    16    7   16 ar  
    17    8    9 ar  
    18    8   44 1   
    19    9   10 1   
    20    9   12 ar  
    21   10   11 1   
    22   11   45 1   
    23   11   46 1   
    24   11   47 1   
    25   12   13 ar  
    26   12   48 1   
    27   13   14 1   
    28   13   16 ar  
    29   14   15 1   
    30   15   49 1   
    31   15   50 1   
    32   15   51 1   
    33   16   17 1   
    34   17   18 1   
    35   17   52 1   
    36   18   19 1   
    37   18   22 1   
    38   18   53 1   
    39   19   20 1   
    40   19   54 1   
    41   19   55 1   
    42   20   21 1   
    43   20   56 1   
    44   20   57 1   
    45   21   58 1   
    46   21   59 1   
    47   22   23 1   
    48   23   24 2   
    49   23   25 1   
    50   25   26 2   
    51   25   27 1   
    52   27   28 ar  
    53   27   29 ar  
    54   28   36 ar  
    55   28   60 1   
    56   29   30 ar  
    57   29   61 1   
    58   30   31 1   
    59   30   33 ar  
    60   31   32 1   
    61   32   62 1   
    62   32   63 1   
    63   32   64 1   
    64   33   34 1   
    65   33   36 ar  
    66   34   35 1   
    67   35   65 1   
    68   35   66 1   
    69   35   67 1   
    70   36   37 1   
    71   37   38 1   
    72   38   68 1   
    73   38   69 1   
    74   38   70 1   
@<TRIPOS>SUBSTRUCTURE
     1 1KT         1 TEMP              0 ****  ****    0 ROOT
