@<TRIPOS>MOLECULE
1KT
   70    74     1     0     0
SMALL
bcc


@<TRIPOS>ATOM
      1 O3         -0.1520   -0.5610    0.0410 o         1 1KT     -0.628500
      2 C11         1.0670   -0.3240   -0.0400 c         1 1KT      0.685500
      3 C12         1.8880   -0.1700    1.2590 c3        1 1KT      0.038700
      4 N10         1.6940   -0.1300   -1.2700 n         1 1KT     -0.438800
      5 C9          1.0820   -0.7320   -2.4380 c3        1 1KT      0.077000
      6 C8          1.7140   -2.0770   -2.7990 c3        1 1KT     -0.071100
      7 C7          3.1910   -1.9340   -2.9240 ca        1 1KT     -0.003300
      8 C6          3.8880   -2.8470   -3.7140 ca        1 1KT     -0.187000
      9 C5          5.2640   -2.6720   -3.9230 ca        1 1KT      0.166100
     10 O2          5.8620   -3.6400   -4.7040 os        1 1KT     -0.322900
     11 C27         7.2680   -3.5270   -4.8880 c3        1 1KT      0.112700
     12 C4          5.9360   -1.5670   -3.3900 ca        1 1KT     -0.277000
     13 C3          5.2150   -0.6630   -2.5990 ca        1 1KT      0.169100
     14 O1          5.7770    0.4980   -2.0970 os        1 1KT     -0.337900
     15 C26         7.1730    0.6770   -2.3070 c3        1 1KT      0.113700
     16 C2          3.8500   -0.8650   -2.2960 ca        1 1KT     -0.163300
     17 C1          3.1310    0.1050   -1.3860 c3        1 1KT      0.160000
     18 C16         3.8820    0.2240   -0.0070 c3        1 1KT      0.097700
     19 C15         3.9220    1.7040    0.4240 c3        1 1KT     -0.091400
     20 C14         2.5520    2.2320    0.7970 c3        1 1KT     -0.084400
     21 C13         1.8020    1.2950    1.7230 c3        1 1KT     -0.089400
     22 N17         3.2540   -0.5850    1.0230 n         1 1KT     -0.455800
     23 C18         3.9320   -1.5430    1.7410 c         1 1KT      0.596100
     24 O4          5.1370   -1.7860    1.5370 o         1 1KT     -0.594100
     25 C19         3.1610   -2.3290    2.7990 c         1 1KT      0.525700
     26 O5          2.3670   -3.2090    2.4620 o         1 1KT     -0.485100
     27 C20         3.4470   -1.9770    4.2020 ca        1 1KT     -0.120600
     28 C21         2.4570   -2.2140    5.1610 ca        1 1KT     -0.178500
     29 C25         4.6810   -1.4310    4.5660 ca        1 1KT     -0.178500
     30 C24         4.9210   -1.1020    5.9050 ca        1 1KT      0.123100
     31 O8          6.1110   -0.5800    6.3700 os        1 1KT     -0.311400
     32 C30         7.1160   -0.3330    5.3910 c3        1 1KT      0.108700
     33 C23         3.9250   -1.3050    6.8860 ca        1 1KT      0.075100
     34 O7          4.0730   -0.8560    8.1820 os        1 1KT     -0.310900
     35 C29         5.0210   -1.5990    8.9520 c3        1 1KT      0.115700
     36 C22         2.6950   -1.8830    6.4990 ca        1 1KT      0.123100
     37 O6          1.7930   -2.0850    7.5220 os        1 1KT     -0.311400
     38 C28         0.5120   -2.5770    7.1390 c3        1 1KT      0.108700
     39 H1          1.4000   -0.8340    2.0320 h1        1 1KT      0.096700
     40 H2          1.2110   -0.0160   -3.2980 h1        1 1KT      0.072200
     41 H3         -0.0210   -0.8700   -2.2500 h1        1 1KT      0.072200
     42 H4          1.4740   -2.8460   -2.0160 hc        1 1KT      0.070200
     43 H5          1.2760   -2.4330   -3.7680 hc        1 1KT      0.070200
     44 H6          3.3710   -3.6980   -4.1810 ha        1 1KT      0.154000
     45 H7          7.5230   -4.4320   -5.4970 h1        1 1KT      0.045700
     46 H8          7.5160   -2.5930   -5.4490 h1        1 1KT      0.045700
     47 H9          7.8000   -3.5490   -3.9070 h1        1 1KT      0.045700
     48 H10         7.0030   -1.4120   -3.5910 ha        1 1KT      0.145000
     49 H11         7.7530   -0.1620   -1.8520 h1        1 1KT      0.047033
     50 H12         7.3970    0.7680   -3.3970 h1        1 1KT      0.047033
     51 H13         7.3910    1.6400   -1.7790 h1        1 1KT      0.047033
     52 H14         3.2280    1.1230   -1.8850 h1        1 1KT      0.072700
     53 H15         4.9430   -0.1390   -0.1450 h1        1 1KT      0.113700
     54 H16         4.3540    2.3040   -0.4190 hc        1 1KT      0.054700
     55 H17         4.6170    1.8050    1.2990 hc        1 1KT      0.054700
     56 H18         1.9490    2.3940   -0.1360 hc        1 1KT      0.051700
     57 H19         2.6630    3.2300    1.2960 hc        1 1KT      0.051700
     58 H20         0.7180    1.5810    1.7630 hc        1 1KT      0.062700
     59 H21         2.2180    1.3710    2.7600 hc        1 1KT      0.062700
     60 H22         1.5070   -2.6740    4.8480 ha        1 1KT      0.164500
     61 H23         5.4580   -1.2790    3.7990 ha        1 1KT      0.164500
     62 H24         7.9570    0.0970    5.9920 h1        1 1KT      0.049367
     63 H25         7.4280   -1.2850    4.8970 h1        1 1KT      0.049367
     64 H26         6.7560    0.4050    4.6330 h1        1 1KT      0.049367
     65 H27         6.0350   -1.5350    8.4880 h1        1 1KT      0.045367
     66 H28         4.6960   -2.6620    9.0460 h1        1 1KT      0.045367
     67 H29         5.0030   -1.0870    9.9470 h1        1 1KT      0.045367
     68 H30        -0.0470   -2.6130    8.1090 h1        1 1KT      0.049367
     69 H31         0.0150   -1.8780    6.4240 h1        1 1KT      0.049367
     70 H32         0.5990   -3.5980    6.6960 h1        1 1KT      0.049367
@<TRIPOS>BOND
     1    1    2 2   
     2    2    3 1   
     3    2    4 1   
     4    3   21 1   
     5    3   22 1   
     6    3   39 1   
     7    4    5 1   
     8    4   17 1   
     9    5    6 1   
    10    5   40 1   
    11    5   41 1   
    12    6    7 1   
    13    6   42 1   
    14    6   43 1   
    15    7    8 ar  
    16    7   16 ar  
    17    8    9 ar  
    18    8   44 1   
    19    9   10 1   
    20    9   12 ar  
    21   10   11 1   
    22   11   45 1   
    23   11   46 1   
    24   11   47 1   
    25   12   13 ar  
    26   12   48 1   
    27   13   14 1   
    28   13   16 ar  
    29   14   15 1   
    30   15   49 1   
    31   15   50 1   
    32   15   51 1   
    33   16   17 1   
    34   17   18 1   
    35   17   52 1   
    36   18   19 1   
    37   18   22 1   
    38   18   53 1   
    39   19   20 1   
    40   19   54 1   
    41   19   55 1   
    42   20   21 1   
    43   20   56 1   
    44   20   57 1   
    45   21   58 1   
    46   21   59 1   
    47   22   23 1   
    48   23   24 2   
    49   23   25 1   
    50   25   26 2   
    51   25   27 1   
    52   27   28 ar  
    53   27   29 ar  
    54   28   36 ar  
    55   28   60 1   
    56   29   30 ar  
    57   29   61 1   
    58   30   31 1   
    59   30   33 ar  
    60   31   32 1   
    61   32   62 1   
    62   32   63 1   
    63   32   64 1   
    64   33   34 1   
    65   33   36 ar  
    66   34   35 1   
    67   35   65 1   
    68   35   66 1   
    69   35   67 1   
    70   36   37 1   
    71   37   38 1   
    72   38   68 1   
    73   38   69 1   
    74   38   70 1   
@<TRIPOS>SUBSTRUCTURE
     1 1KT         1 TEMP              0 ****  ****    0 ROOT
