@<TRIPOS>MOLECULE
1KT
   70    74     1     0     0
SMALL
bcc


@<TRIPOS>ATOM
      1 O3         -0.1540   -0.5510    0.0500 o         1 1KT     -0.628500
      2 C11         1.0650   -0.3160   -0.0330 c         1 1KT      0.685500
      3 C12         1.8890   -0.1680    1.2660 c3        1 1KT      0.038700
      4 N10         1.6900   -0.1190   -1.2630 n         1 1KT     -0.438800
      5 C9          1.0750   -0.7160   -2.4320 c3        1 1KT      0.077000
      6 C8          1.7050   -2.0600   -2.7990 c3        1 1KT     -0.071100
      7 C7          3.1820   -1.9190   -2.9260 ca        1 1KT     -0.003300
      8 C6          3.8760   -2.8300   -3.7210 ca        1 1KT     -0.187000
      9 C5          5.2530   -2.6560   -3.9310 ca        1 1KT      0.166100
     10 O2          5.8470   -3.6220   -4.7170 os        1 1KT     -0.322900
     11 C27         7.2530   -3.5100   -4.9030 c3        1 1KT      0.112700
     12 C4          5.9260   -1.5530   -3.3960 ca        1 1KT     -0.277000
     13 C3          5.2090   -0.6510   -2.6010 ca        1 1KT      0.169100
     14 O1          5.7720    0.5070   -2.0950 os        1 1KT     -0.337900
     15 C26         7.1680    0.6850   -2.3070 c3        1 1KT      0.113700
     16 C2          3.8440   -0.8520   -2.2960 ca        1 1KT     -0.163300
     17 C1          3.1270    0.1150   -1.3810 c3        1 1KT      0.160000
     18 C16         3.8810    0.2290   -0.0030 c3        1 1KT      0.097700
     19 C15         3.9240    1.7060    0.4330 c3        1 1KT     -0.091400
     20 C14         2.5560    2.2350    0.8100 c3        1 1KT     -0.084400
     21 C13         1.8050    1.2960    1.7340 c3        1 1KT     -0.089400
     22 N17         3.2540   -0.5840    1.0260 n         1 1KT     -0.455800
     23 C18         3.9310   -1.5450    1.7390 c         1 1KT      0.596100
     24 O4          5.1360   -1.7890    1.5320 o         1 1KT     -0.594100
     25 C19         3.1620   -2.3340    2.7960 c         1 1KT      0.525700
     26 O5          2.3660   -3.2110    2.4570 o         1 1KT     -0.485100
     27 C20         3.4510   -1.9870    4.1990 ca        1 1KT     -0.120600
     28 C21         2.4620   -2.2260    5.1590 ca        1 1KT     -0.178500
     29 C25         4.6860   -1.4450    4.5620 ca        1 1KT     -0.178500
     30 C24         4.9300   -1.1200    5.9020 ca        1 1KT      0.123100
     31 O8          6.1210   -0.6010    6.3670 os        1 1KT     -0.311400
     32 C30         7.1240   -0.3520    5.3860 c3        1 1KT      0.108700
     33 C23         3.9360   -1.3250    6.8840 ca        1 1KT      0.075100
     34 O7          4.0860   -0.8800    8.1820 os        1 1KT     -0.310900
     35 C29         5.0350   -1.6270    8.9470 c3        1 1KT      0.115700
     36 C22         2.7030   -1.8990    6.4980 ca        1 1KT      0.123100
     37 O6          1.8040   -2.1040    7.5220 os        1 1KT     -0.311400
     38 C28         0.5200   -2.5920    7.1400 c3        1 1KT      0.108700
     39 H1          1.4010   -0.8330    2.0370 h1        1 1KT      0.096700
     40 H2         -0.0270   -0.8530   -2.2430 h1        1 1KT      0.072200
     41 H3          1.2040    0.0030   -3.2900 h1        1 1KT      0.072200
     42 H4          1.4650   -2.8310   -2.0180 hc        1 1KT      0.070200
     43 H5          1.2650   -2.4130   -3.7680 hc        1 1KT      0.070200
     44 H6          3.3580   -3.6780   -4.1890 ha        1 1KT      0.154000
     45 H7          7.5060   -4.4130   -5.5150 h1        1 1KT      0.045700
     46 H8          7.5020   -2.5750   -5.4610 h1        1 1KT      0.045700
     47 H9          7.7870   -3.5360   -3.9220 h1        1 1KT      0.045700
     48 H10         6.9930   -1.3990   -3.5980 ha        1 1KT      0.145000
     49 H11         7.3910    0.7800   -3.3980 h1        1 1KT      0.047033
     50 H12         7.3890    1.6460   -1.7760 h1        1 1KT      0.047033
     51 H13         7.7480   -0.1560   -1.8560 h1        1 1KT      0.047033
     52 H14         3.2250    1.1350   -1.8760 h1        1 1KT      0.072700
     53 H15         4.9410   -0.1360   -0.1440 h1        1 1KT      0.113700
     54 H16         4.3550    2.3090   -0.4080 hc        1 1KT      0.054700
     55 H17         4.6200    1.8030    1.3070 hc        1 1KT      0.054700
     56 H18         2.6680    3.2320    1.3130 hc        1 1KT      0.051700
     57 H19         1.9510    2.4010   -0.1210 hc        1 1KT      0.051700
     58 H20         0.7230    1.5840    1.7780 hc        1 1KT      0.062700
     59 H21         2.2240    1.3680    2.7720 hc        1 1KT      0.062700
     60 H22         1.5110   -2.6830    4.8470 ha        1 1KT      0.164500
     61 H23         5.4620   -1.2910    3.7950 ha        1 1KT      0.164500
     62 H24         7.4340   -1.3020    4.8890 h1        1 1KT      0.049367
     63 H25         7.9680    0.0750    5.9870 h1        1 1KT      0.049367
     64 H26         6.7640    0.3890    4.6320 h1        1 1KT      0.049367
     65 H27         5.0200   -1.1190    9.9440 h1        1 1KT      0.045367
     66 H28         6.0480   -1.5640    8.4820 h1        1 1KT      0.045367
     67 H29         4.7080   -2.6910    9.0380 h1        1 1KT      0.045367
     68 H30         0.6050   -3.6120    6.6930 h1        1 1KT      0.049367
     69 H31         0.0240   -1.8890    6.4280 h1        1 1KT      0.049367
     70 H32        -0.0360   -2.6300    8.1110 h1        1 1KT      0.049367
@<TRIPOS>BOND
     1    1    2 2   
     2    2    3 1   
     3    2    4 1   
     4    3   21 1   
     5    3   22 1   
     6    3   39 1   
     7    4    5 1   
     8    4   17 1   
     9    5    6 1   
    10    5   40 1   
    11    5   41 1   
    12    6    7 1   
    13    6   42 1   
    14    6   43 1   
    15    7    8 ar  
    16    7   16 ar  
    17    8    9 ar  
    18    8   44 1   
    19    9   10 1   
    20    9   12 ar  
    21   10   11 1   
    22   11   45 1   
    23   11   46 1   
    24   11   47 1   
    25   12   13 ar  
    26   12   48 1   
    27   13   14 1   
    28   13   16 ar  
    29   14   15 1   
    30   15   49 1   
    31   15   50 1   
    32   15   51 1   
    33   16   17 1   
    34   17   18 1   
    35   17   52 1   
    36   18   19 1   
    37   18   22 1   
    38   18   53 1   
    39   19   20 1   
    40   19   54 1   
    41   19   55 1   
    42   20   21 1   
    43   20   56 1   
    44   20   57 1   
    45   21   58 1   
    46   21   59 1   
    47   22   23 1   
    48   23   24 2   
    49   23   25 1   
    50   25   26 2   
    51   25   27 1   
    52   27   28 ar  
    53   27   29 ar  
    54   28   36 ar  
    55   28   60 1   
    56   29   30 ar  
    57   29   61 1   
    58   30   31 1   
    59   30   33 ar  
    60   31   32 1   
    61   32   62 1   
    62   32   63 1   
    63   32   64 1   
    64   33   34 1   
    65   33   36 ar  
    66   34   35 1   
    67   35   65 1   
    68   35   66 1   
    69   35   67 1   
    70   36   37 1   
    71   37   38 1   
    72   38   68 1   
    73   38   69 1   
    74   38   70 1   
@<TRIPOS>SUBSTRUCTURE
     1 1KT         1 TEMP              0 ****  ****    0 ROOT
