@<TRIPOS>MOLECULE
1KT
   70    63     1     0     0
SMALL
bcc


@<TRIPOS>ATOM
      1 O3         -4.3390    2.8570   -0.9200 o         1 1KT     -0.354000
      2 C11        -3.2420    2.3120   -0.9230 c1        1 1KT      0.296000
      3 C12        -2.4640    2.5470   -0.0660 c3        1 1KT      0.005000
      4 N10        -2.8310    1.8200   -1.9130 n2        1 1KT     -0.303000
      5 C9         -3.7280    1.4570   -2.9290 c3        1 1KT     -0.037000
      6 C8         -3.5540    0.1730   -3.5070 c3        1 1KT     -0.157000
      7 C7         -2.0660   -0.3300   -3.6610 c2        1 1KT      0.011000
      8 C6         -1.7370   -1.3930   -4.4940 c1        1 1KT     -0.232000
      9 C5         -0.3790   -1.6790   -4.7720 c1        1 1KT      0.000000
     10 O2         -0.0400   -2.7610   -5.6520 o         1 1KT     -0.214750
     11 C27        -0.4980   -4.0360   -5.2050 c3        1 1KT     -0.071500
     12 C4          0.6560   -0.8770   -4.1970 c1        1 1KT     -0.197500
     13 C3          0.3260    0.2080   -3.3480 c1        1 1KT      0.117000
     14 O1          1.3260    1.0780   -2.9140 os        1 1KT     -0.226000
     15 C26         2.5190    1.0440   -3.7180 c3        1 1KT     -0.077000
     16 C2         -1.0050    0.4930   -3.0710 c2        1 1KT     -0.156000
     17 C1         -1.4340    1.7110   -2.1850 c3        1 1KT      0.081000
     18 C16        -0.4180    1.6740   -0.7720 c3        1 1KT      0.027000
     19 C15         0.1480    3.1750   -0.4760 c3        1 1KT     -0.174000
     20 C14        -0.7620    4.1140   -0.9700 c3        1 1KT     -0.163000
     21 C13        -2.0000    4.0440   -0.1970 c3        1 1KT     -0.168000
     22 N17        -0.9150    1.3990   -0.0710 n3        1 1KT     -0.312000
     23 C18        -0.6140    0.3250    0.8580 c1        1 1KT      0.287000
     24 O4         -1.3850    0.0710    1.7590 o         1 1KT     -0.357000
     25 C19         0.7450   -0.3810    0.7950 c1        1 1KT      0.270000
     26 O5          1.3090   -0.5180   -0.2730 o         1 1KT     -0.240000
     27 C20         1.3490   -0.9820    2.0570 c1        1 1KT      0.000000
     28 C21         2.4160   -0.3640    2.6700 c1        1 1KT     -0.110000
     29 C25         0.8010   -2.1270    2.6080 c1        1 1KT     -0.197500
     30 C24         1.3280   -2.6550    3.7830 c1        1 1KT      0.046000
     31 O8          0.9130   -3.9110    4.2230 o         1 1KT     -0.214750
     32 C30        -0.2200   -3.8790    5.0450 c3        1 1KT     -0.071500
     33 C23         2.4000   -2.0350    4.3990 c1        1 1KT      0.027000
     34 O7          3.0370   -2.6570    5.4910 o         1 1KT     -0.214750
     35 C29         2.4990   -2.3050    6.7430 c3        1 1KT     -0.071500
     36 C22         2.9460   -0.8910    3.8460 c1        1 1KT      0.067000
     37 O6          4.0870   -0.3440    4.3900 o         1 1KT     -0.214750
     38 C28         3.8400    0.6100    5.3760 c3        1 1KT     -0.071500
     39 H1         -2.9170    2.4420    0.7940 h1        1 1KT      0.161000
     40 H2         -4.6360    1.4850   -2.5450 h1        1 1KT      0.111000
     41 H3         -3.6370    2.1180   -3.6500 h1        1 1KT      0.111000
     42 H4         -4.0280   -0.4760   -2.9360 hc        1 1KT      0.106500
     43 H5         -3.9500    0.1990   -4.4060 hc        1 1KT      0.106500
     44 H6         -2.4360   -1.9090   -4.9170 ha        1 1KT      0.142000
     45 H7         -0.8870   -3.9490   -4.3130 h1        1 1KT      0.087917
     46 H8          0.2620   -4.6670   -5.1730 h1        1 1KT      0.087917
     47 H9         -1.1780   -4.3760   -5.8270 h1        1 1KT      0.087917
     48 H10         1.5980   -1.0780   -4.3910 ha        1 1KT      0.164000
     49 H11         2.3920    1.6010   -4.5170 h1        1 1KT      0.088667
     50 H12         3.2700    1.3870   -3.2000 h1        1 1KT      0.088667
     51 H13         2.7060    0.1120   -3.9930 h1        1 1KT      0.088667
     52 H14        -1.1900    2.5140   -2.6820 h1        1 1KT      0.112000
     53 H15         0.3320    1.0540   -0.9160 h1        1 1KT      0.131000
     54 H16         1.0140    3.2920   -0.9200 hc        1 1KT      0.096500
     55 H17         0.2550    3.2990    0.4940 hc        1 1KT      0.096500
     56 H18        -0.9540    3.9200   -1.9180 hc        1 1KT      0.090000
     57 H19        -0.3820    5.0040   -0.8920 hc        1 1KT      0.090000
     58 H20        -2.6920    4.5600   -0.6470 hc        1 1KT      0.100500
     59 H21        -1.8470    4.4150    0.6950 hc        1 1KT      0.100500
     60 H22         2.8000    0.4400    2.2810 ha        1 1KT      0.166000
     61 H23         0.0770   -2.5880    2.1500 ha        1 1KT      0.164000
     62 H24        -0.2890   -3.0040    5.4710 h1        1 1KT      0.087917
     63 H25        -0.1430   -4.5720    5.7350 h1        1 1KT      0.087917
     64 H26        -1.0240   -4.0440    4.5020 h1        1 1KT      0.087917
     65 H27         3.2260   -2.1410    7.3760 h1        1 1KT      0.087917
     66 H28         1.9560   -1.4930    6.6490 h1        1 1KT      0.087917
     67 H29         1.9360   -3.0380    7.0740 h1        1 1KT      0.087917
     68 H30         4.4860    1.3460    5.2890 h1        1 1KT      0.087917
     69 H31         3.9320    0.1980    6.2560 h1        1 1KT      0.087917
     70 H32         2.9290    0.9600    5.2710 h1        1 1KT      0.087917
@<TRIPOS>BOND
     1    1    2 1   
     2    2    3 1   
     3    3   21 1   
     4    3   22 1   
     5    3   39 1   
     6    4    5 1   
     7    4   17 1   
     8    5    6 1   
     9    5   40 1   
    10    5   41 1   
    11    6    7 1   
    12    6   42 1   
    13    6   43 1   
    14    7    8 1   
    15    7   16 1   
    16    8   44 1   
    17    9   12 1   
    18   10   11 1   
    19   11   45 1   
    20   11   46 1   
    21   11   47 1   
    22   12   48 1   
    23   13   14 1   
    24   13   16 1   
    25   14   15 1   
    26   15   49 1   
    27   15   50 1   
    28   15   51 1   
    29   16   17 1   
    30   17   18 1   
    31   17   52 1   
    32   18   19 1   
    33   18   22 1   
    34   18   53 1   
    35   19   20 1   
    36   19   54 1   
    37   19   55 1   
    38   20   21 1   
    39   20   56 1   
    40   20   57 1   
    41   21   58 1   
    42   21   59 1   
    43   22   23 1   
    44   23   24 1   
    45   25   26 1   
    46   27   29 1   
    47   28   36 1   
    48   28   60 1   
    49   29   61 1   
    50   30   33 1   
    51   31   32 1   
    52   32   62 1   
    53   32   63 1   
    54   32   64 1   
    55   33   36 1   
    56   34   35 1   
    57   35   65 1   
    58   35   66 1   
    59   35   67 1   
    60   37   38 1   
    61   38   68 1   
    62   38   69 1   
    63   38   70 1   
@<TRIPOS>SUBSTRUCTURE
     1 1KT         1 TEMP              0 ****  ****    0 ROOT
