@<TRIPOS>MOLECULE
1KT
   70    74     1     0     0
SMALL
bcc


@<TRIPOS>ATOM
      1 O3         -0.1500   -0.5630    0.0350 o         1 1KT     -0.628500
      2 C11         1.0700   -0.3260   -0.0440 c         1 1KT      0.685500
      3 C12         1.8890   -0.1720    1.2560 c3        1 1KT      0.038700
      4 N10         1.6980   -0.1310   -1.2730 n         1 1KT     -0.438800
      5 C9          1.0880   -0.7330   -2.4420 c3        1 1KT      0.077000
      6 C8          1.7220   -2.0780   -2.8030 c3        1 1KT     -0.071100
      7 C7          3.1980   -1.9340   -2.9250 ca        1 1KT     -0.003300
      8 C6          3.8970   -2.8470   -3.7150 ca        1 1KT     -0.187000
      9 C5          5.2740   -2.6720   -3.9210 ca        1 1KT      0.166100
     10 O2          5.8730   -3.6390   -4.7010 os        1 1KT     -0.322900
     11 C27         7.2790   -3.5260   -4.8820 c3        1 1KT      0.112700
     12 C4          5.9440   -1.5660   -3.3870 ca        1 1KT     -0.277000
     13 C3          5.2220   -0.6620   -2.5970 ca        1 1KT      0.169100
     14 O1          5.7820    0.4990   -2.0940 os        1 1KT     -0.337900
     15 C26         7.1790    0.6780   -2.3010 c3        1 1KT      0.113700
     16 C2          3.8570   -0.8650   -2.2960 ca        1 1KT     -0.163300
     17 C1          3.1350    0.1050   -1.3870 c3        1 1KT      0.160000
     18 C16         3.8840    0.2240   -0.0070 c3        1 1KT      0.097700
     19 C15         3.9230    1.7040    0.4240 c3        1 1KT     -0.091400
     20 C14         2.5520    2.2310    0.7950 c3        1 1KT     -0.084400
     21 C13         1.8010    1.2940    1.7200 c3        1 1KT     -0.089400
     22 N17         3.2560   -0.5860    1.0220 n         1 1KT     -0.455800
     23 C18         3.9320   -1.5430    1.7420 c         1 1KT      0.596100
     24 O4          5.1380   -1.7850    1.5400 o         1 1KT     -0.594100
     25 C19         3.1600   -2.3310    2.7980 c         1 1KT      0.525700
     26 O5          2.3680   -3.2110    2.4590 o         1 1KT     -0.485100
     27 C20         3.4430   -1.9780    4.2010 ca        1 1KT     -0.120600
     28 C21         2.4520   -2.2190    5.1580 ca        1 1KT     -0.178000
     29 C25         4.6750   -1.4290    4.5670 ca        1 1KT     -0.178000
     30 C24         4.9110   -1.0990    5.9070 ca        1 1KT      0.123100
     31 O8          6.0980   -0.5730    6.3750 os        1 1KT     -0.311400
     32 C30         7.1040   -0.3220    5.3970 c3        1 1KT      0.108700
     33 C23         3.9140   -1.3050    6.8860 ca        1 1KT      0.075100
     34 O7          4.0580   -0.8570    8.1830 os        1 1KT     -0.310900
     35 C29         5.0080   -1.5960    8.9540 c3        1 1KT      0.115700
     36 C22         2.6860   -1.8870    6.4970 ca        1 1KT      0.123100
     37 O6          1.7840   -2.0930    7.5180 os        1 1KT     -0.311400
     38 C28         0.5050   -2.5890    7.1330 c3        1 1KT      0.108700
     39 H1          1.3990   -0.8360    2.0280 h1        1 1KT      0.096700
     40 H2         -0.0150   -0.8720   -2.2560 h1        1 1KT      0.072200
     41 H3          1.2190   -0.0170   -3.3020 h1        1 1KT      0.072200
     42 H4          1.4800   -2.8470   -2.0210 hc        1 1KT      0.070200
     43 H5          1.2850   -2.4340   -3.7730 hc        1 1KT      0.070200
     44 H6          3.3810   -3.6980   -4.1820 ha        1 1KT      0.154000
     45 H7          7.5290   -2.5930   -5.4430 h1        1 1KT      0.045700
     46 H8          7.8090   -3.5480   -3.8990 h1        1 1KT      0.045700
     47 H9          7.5360   -4.4310   -5.4900 h1        1 1KT      0.045700
     48 H10         7.0110   -1.4100   -3.5860 ha        1 1KT      0.145000
     49 H11         7.4050    0.7690   -3.3920 h1        1 1KT      0.047033
     50 H12         7.7580   -0.1610   -1.8450 h1        1 1KT      0.047033
     51 H13         7.3960    1.6410   -1.7730 h1        1 1KT      0.047033
     52 H14         3.2330    1.1230   -1.8860 h1        1 1KT      0.072700
     53 H15         4.9460   -0.1390   -0.1430 h1        1 1KT      0.113700
     54 H16         4.3560    2.3040   -0.4170 hc        1 1KT      0.054700
     55 H17         4.6160    1.8050    1.3000 hc        1 1KT      0.054700
     56 H18         1.9510    2.3930   -0.1390 hc        1 1KT      0.051700
     57 H19         2.6610    3.2290    1.2940 hc        1 1KT      0.051700
     58 H20         2.2160    1.3700    2.7580 hc        1 1KT      0.062700
     59 H21         0.7170    1.5790    1.7590 hc        1 1KT      0.062700
     60 H22         1.5040   -2.6810    4.8440 ha        1 1KT      0.164500
     61 H23         5.4520   -1.2740    3.8020 ha        1 1KT      0.164500
     62 H24         7.4200   -1.2720    4.9030 h1        1 1KT      0.049367
     63 H25         7.9430    0.1110    6.0000 h1        1 1KT      0.049367
     64 H26         6.7430    0.4150    4.6390 h1        1 1KT      0.049367
     65 H27         6.0220   -1.5300    8.4920 h1        1 1KT      0.045367
     66 H28         4.6860   -2.6610    9.0470 h1        1 1KT      0.045367
     67 H29         4.9860   -1.0850    9.9490 h1        1 1KT      0.045367
     68 H30         0.0070   -1.8910    6.4170 h1        1 1KT      0.049367
     69 H31        -0.0550   -2.6270    8.1020 h1        1 1KT      0.049367
     70 H32         0.5960   -3.6100    6.6890 h1        1 1KT      0.049367
@<TRIPOS>BOND
     1    1    2 2   
     2    2    3 1   
     3    2    4 1   
     4    3   21 1   
     5    3   22 1   
     6    3   39 1   
     7    4    5 1   
     8    4   17 1   
     9    5    6 1   
    10    5   40 1   
    11    5   41 1   
    12    6    7 1   
    13    6   42 1   
    14    6   43 1   
    15    7    8 ar  
    16    7   16 ar  
    17    8    9 ar  
    18    8   44 1   
    19    9   10 1   
    20    9   12 ar  
    21   10   11 1   
    22   11   45 1   
    23   11   46 1   
    24   11   47 1   
    25   12   13 ar  
    26   12   48 1   
    27   13   14 1   
    28   13   16 ar  
    29   14   15 1   
    30   15   49 1   
    31   15   50 1   
    32   15   51 1   
    33   16   17 1   
    34   17   18 1   
    35   17   52 1   
    36   18   19 1   
    37   18   22 1   
    38   18   53 1   
    39   19   20 1   
    40   19   54 1   
    41   19   55 1   
    42   20   21 1   
    43   20   56 1   
    44   20   57 1   
    45   21   58 1   
    46   21   59 1   
    47   22   23 1   
    48   23   24 2   
    49   23   25 1   
    50   25   26 2   
    51   25   27 1   
    52   27   28 ar  
    53   27   29 ar  
    54   28   36 ar  
    55   28   60 1   
    56   29   30 ar  
    57   29   61 1   
    58   30   31 1   
    59   30   33 ar  
    60   31   32 1   
    61   32   62 1   
    62   32   63 1   
    63   32   64 1   
    64   33   34 1   
    65   33   36 ar  
    66   34   35 1   
    67   35   65 1   
    68   35   66 1   
    69   35   67 1   
    70   36   37 1   
    71   37   38 1   
    72   38   68 1   
    73   38   69 1   
    74   38   70 1   
@<TRIPOS>SUBSTRUCTURE
     1 1KT         1 TEMP              0 ****  ****    0 ROOT
