@<TRIPOS>MOLECULE
1KU
   65    61     1     0     0
SMALL
bcc


@<TRIPOS>ATOM
      1 C          -0.7310    0.0860    2.5810 c1        1 1KU      0.290000
      2 N           0.9210    1.3550    2.2290 n3        1 1KU     -0.813000
      3 O          -1.4360    0.3250    3.5510 o         1 1KU     -0.366000
      4 CA          0.5460    0.1860    2.8320 c2        1 1KU      0.041000
      5 CB          0.7030    0.2720    4.3550 c3        1 1KU     -0.162000
      6 CAA        -3.2470   -4.1070   -6.1150 c3        1 1KU     -0.074500
      7 OAB        -4.0180   -3.7560   -4.9360 os        1 1KU     -0.212000
      8 CAC        -3.2520   -3.7390   -3.7240 c2        1 1KU      0.038500
      9 CAD        -2.7140   -2.5540   -3.2670 c1        1 1KU     -0.148500
     10 CAE        -3.1210   -4.9010   -2.9670 c2        1 1KU      0.038500
     11 OAF        -3.6030   -6.1580   -3.4930 os        1 1KU     -0.212000
     12 CAG        -2.6090   -7.1220   -3.6430 c3        1 1KU     -0.074500
     13 CAH        -2.4500   -4.8680   -1.7540 c1        1 1KU     -0.148500
     14 CAI        -1.9100   -3.6780   -1.2950 c1        1 1KU     -0.177000
     15 CAJ        -2.0420   -2.5160   -2.0530 c1        1 1KU      0.049000
     16 OAK        -1.4110   -1.2910   -1.6170 os        1 1KU     -0.211000
     17 CAL        -1.3890   -1.1240   -0.1980 c3        1 1KU     -0.047000
     18 CAM        -0.5900    0.1180    0.1530 c3        1 1KU     -0.061000
     19 NAN        -1.0710    0.6720    1.4970 n3        1 1KU     -0.321000
     20 CAQ        -1.8230    1.3200    1.5210 c3        1 1KU     -0.014000
     21 CAR        -1.1270    2.8680    2.1380 c3        1 1KU     -0.187000
     22 CAS         0.6590    2.5130    2.6450 c3        1 1KU      0.042000
     23 CAT         0.7850    2.6210    4.1560 c3        1 1KU     -0.169000
     24 CAU         1.6580    1.4280    4.7930 c3        1 1KU     -0.151000
     25 SAY         1.8280    1.2400    0.8230 s4        1 1KU      2.062800
     26 OAZ         2.7600    0.1500    0.8890 o         1 1KU     -0.529400
     27 OBA         1.0210    0.8470   -0.2880 o         1 1KU     -0.529400
     28 CBB         2.6830    2.8280    0.4980 c1        1 1KU     -0.818000
     29 CBC         3.0610    4.0560    1.1100 c2        1 1KU      0.039000
     30 CBD         3.9860    4.8960    0.4780 c1        1 1KU     -0.357000
     31 SBE         4.5110    6.2910    0.8190 s         1 1KU      0.456000
     32 CBF         5.4310    6.7290   -0.3230 c1        1 1KU     -0.278000
     33 NBG         5.4650    5.6810   -1.2870 n2        1 1KU     -0.098000
     34 CBH         4.5490    4.5150   -0.7830 c1        1 1KU     -0.006000
     35 CBI         4.1710    3.2930   -1.3890 c1        1 1KU     -0.098000
     36 CBJ         3.2470    2.4540   -0.7580 c1        1 1KU     -0.035000
     37 HA          1.0540   -0.6010    2.4540 h4        1 1KU      0.131000
     38 HB         -0.1380    0.4120    4.7370 hc        1 1KU      0.095000
     39 HBA         1.0440   -0.5350    4.6680 hc        1 1KU      0.095000
     40 HAA        -2.9630   -3.2850   -6.5790 h1        1 1KU      0.082833
     41 HAAA       -2.4600   -4.6160   -5.8480 h1        1 1KU      0.082833
     42 HAAB       -3.7870   -4.6380   -6.7040 h1        1 1KU      0.082833
     43 HAD        -2.8050   -1.7670   -3.7840 ha        1 1KU      0.153000
     44 HAG        -1.9930   -7.0340   -2.9600 h1        1 1KU      0.082833
     45 HAGA       -3.0380   -8.0800   -3.6070 h1        1 1KU      0.082833
     46 HAGB       -2.1770   -7.0020   -4.4740 h1        1 1KU      0.082833
     47 HAH        -2.3570   -5.7000   -1.2140 ha        1 1KU      0.153000
     48 HAI        -1.4450   -3.6530   -0.4560 ha        1 1KU      0.171000
     49 HAL        -0.9780   -1.8990    0.2130 h1        1 1KU      0.101500
     50 HALA       -2.3190   -1.0260    0.1370 h1        1 1KU      0.101500
     51 HAM        -0.7120    0.7610   -0.5070 h1        1 1KU      0.113500
     52 HAMA        0.3630   -0.1130    0.2150 h1        1 1KU      0.113500
     53 HAQ        -2.1760    1.4440    0.6410 h1        1 1KU      0.086000
     54 HAQA       -2.4970    1.0170    2.1020 h1        1 1KU      0.086000
     55 HAR        -1.6480    3.1830    2.9230 hc        1 1KU      0.105000
     56 HARA       -1.1450    3.5600    1.4170 hc        1 1KU      0.105000
     57 HAS         1.2580    3.1580    2.2190 h1        1 1KU      0.103000
     58 HAT        -0.1550    2.6000    4.5690 hc        1 1KU      0.088000
     59 HATA        1.2320    3.5190    4.3860 hc        1 1KU      0.088000
     60 HAU         2.5570    1.3550    4.3620 hc        1 1KU      0.089500
     61 HAUA        1.7190    1.5010    5.7650 hc        1 1KU      0.089500
     62 HBC         2.6660    4.3190    1.9370 ha        1 1KU      0.163000
     63 HBF         5.8670    7.5560   -0.3910 DU        1 1KU      0.198000
     64 HBI         4.5580    3.0350   -2.2500 ha        1 1KU      0.161000
     65 HBJ         3.0320    1.5970   -1.1470 ha        1 1KU      0.155000
@<TRIPOS>BOND
     1    1    3 1   
     2    1   19 1   
     3    2    4 1   
     4    2   22 1   
     5    2   25 1   
     6    4    5 1   
     7    4   37 1   
     8    5   24 1   
     9    5   38 1   
    10    5   39 1   
    11    6    7 1   
    12    6   40 1   
    13    6   41 1   
    14    6   42 1   
    15    7    8 1   
    16    8    9 1   
    17    8   10 1   
    18    9   43 1   
    19   10   11 1   
    20   10   13 1   
    21   11   12 1   
    22   12   44 1   
    23   12   45 1   
    24   12   46 1   
    25   13   47 1   
    26   14   15 1   
    27   14   48 1   
    28   15   16 1   
    29   16   17 1   
    30   17   18 1   
    31   17   49 1   
    32   17   50 1   
    33   18   19 1   
    34   18   51 1   
    35   18   52 1   
    36   19   20 1   
    37   20   21 1   
    38   20   53 1   
    39   20   54 1   
    40   21   22 1   
    41   21   55 1   
    42   21   56 1   
    43   22   23 1   
    44   22   57 1   
    45   23   24 1   
    46   23   58 1   
    47   23   59 1   
    48   24   60 1   
    49   24   61 1   
    50   25   26 1   
    51   25   27 1   
    52   28   29 1   
    53   28   36 1   
    54   29   30 1   
    55   29   62 1   
    56   31   32 1   
    57   32   33 1   
    58   33   34 1   
    59   34   35 1   
    60   35   64 1   
    61   36   65 1   
@<TRIPOS>SUBSTRUCTURE
     1 1KU         1 TEMP              0 ****  ****    0 ROOT
