@<TRIPOS>MOLECULE
1KU
   65    65     1     0     0
SMALL
bcc


@<TRIPOS>ATOM
      1 C          -0.0710   -0.0010    0.3190 c2        1 1KU      0.264000
      2 N           1.8640    0.5850   -1.1090 n3        1 1KU     -0.738000
      3 O          -0.8380   -0.6940    1.0150 o         1 1KU     -0.405000
      4 CA          1.0740   -0.3150   -0.3880 c2        1 1KU     -0.400000
      5 CB          4.1310   -0.3570    1.1790 c2        1 1KU     -0.216000
      6 CAA        -2.8150    6.9750    5.3410 c3        1 1KU     -0.080000
      7 CAC        -3.0510    4.6340    5.6720 ca        1 1KU      0.072000
      8 CAD        -2.6030    4.3590    4.3830 ca        1 1KU     -0.201000
      9 CAE        -3.4200    3.5710    6.5430 ca        1 1KU      0.065000
     10 OAF        -3.8580    3.9090    7.7930 oh        1 1KU     -0.262000
     11 CAG        -4.4100    1.3800    9.2810 c1        1 1KU     -0.040000
     12 CAH        -3.3250    2.2520    6.0960 ca        1 1KU     -0.172000
     13 CAI        -2.8700    1.9660    4.8070 ca        1 1KU     -0.186000
     14 CAJ        -2.5140    3.0180    3.9640 ca        1 1KU      0.056000
     15 OAK        -2.0130    2.8500    2.6800 os        1 1KU     -0.246000
     16 CAL        -2.2660    1.5700    2.0890 c3        1 1KU     -0.031000
     17 CAM        -1.9310    1.7180    0.6040 c3        1 1KU     -0.109000
     18 NAN        -0.5100    1.5110    0.2240 n4        1 1KU     -0.069000
     19 CAQ         0.4160    2.4110    0.9600 c3        1 1KU     -0.118000
     20 CAR         1.8760    1.9820    0.9610 c3        1 1KU     -0.174000
     21 CAS         2.4660    1.7160   -0.4280 c3        1 1KU      0.058000
     22 CAT         4.0030    1.6680   -0.3220 c3        1 1KU     -0.149000
     23 CAU         4.6050    0.7920    0.7070 c2        1 1KU     -0.171000
     24 SAY         1.9560    0.3910   -2.7140 s6        1 1KU      2.811000
     25 OAZ         3.0820    1.0860   -3.2260 o         1 1KU     -0.920000
     26 OBA         1.8290   -0.9400   -3.1320 o         1 1KU     -0.920000
     27 CBB         0.5710    1.3000   -3.2710 c2        1 1KU     -0.678000
     28 CBC         0.7440    2.5260   -3.8040 c2        1 1KU      0.033000
     29 CBD        -0.2820    3.4020   -4.3470 c2        1 1KU     -0.268000
     30 SBE         0.0430    5.0110   -3.9290 sh        1 1KU      0.165000
     31 CBF        -3.1860    4.2130   -6.1970 c1        1 1KU      0.162000
     32 NBG        -2.2990    3.6260   -5.6720 n2        1 1KU     -0.320000
     33 CBH        -1.3010    2.8970   -5.0900 c2        1 1KU      0.019000
     34 CBI        -1.7180    0.0850   -3.0830 c1        1 1KU     -0.167000
     35 CBJ        -0.6690    0.6610   -3.1640 c1        1 1KU     -0.140000
     36 HA          3.1750   -0.7990    0.8670 ha        1 1KU      0.121500
     37 HB          1.4090   -1.3650   -0.3620 h4        1 1KU      0.185000
     38 HBA         4.6850   -0.9430    1.9250 ha        1 1KU      0.121500
     39 HAA        -1.7380    6.9050    5.0520 h1        1 1KU      0.083000
     40 HAAA       -2.9950    7.8830    5.9720 h1        1 1KU      0.083000
     41 HAAB       -3.4640    6.9920    4.4320 h1        1 1KU      0.083000
     42 HAD        -2.3130    5.1570    3.6880 ha        1 1KU      0.150000
     43 HAG        -4.0540    3.0770    8.2840 ho        1 1KU      0.256000
     44 HAGA       -4.3910    0.3290    8.9590 ha        1 1KU      0.034500
     45 HAGB       -4.6710    1.4920   10.3420 ha        1 1KU      0.034500
     46 HAH        -3.6110    1.4340    6.7760 ha        1 1KU      0.145000
     47 HAI        -2.7970    0.9200    4.4800 ha        1 1KU      0.142000
     48 HAL        -1.6400    0.7840    2.5900 h1        1 1KU      0.118000
     49 HALA       -3.3530    1.3110    2.1870 h1        1 1KU      0.118000
     50 HAM        -2.5260    0.9370    0.0480 hx        1 1KU      0.128000
     51 HAMA       -2.2370    2.7480    0.2640 hx        1 1KU      0.128000
     52 HAQ        -0.4470    1.7430   -0.7740 hn        1 1KU      0.220000
     53 HAQA        0.0750    2.4680    2.0350 hx        1 1KU      0.123000
     54 HAR         0.3200    3.4410    0.5120 hx        1 1KU      0.123000
     55 HARA        2.4600    2.8160    1.4330 hc        1 1KU      0.122500
     56 HAS         2.0060    1.0670    1.6010 hc        1 1KU      0.122500
     57 HAT         2.2370    2.6260   -1.0750 h1        1 1KU      0.064000
     58 HATA        4.4320    1.3850   -1.3260 hc        1 1KU      0.107000
     59 HAU         4.3300    2.7270   -0.1190 hc        1 1KU      0.107000
     60 HAUA        5.5840    1.1630    1.0640 ha        1 1KU      0.113000
     61 HBC         1.7740    2.9490   -3.8460 ha        1 1KU      0.180000
     62 HBF        -0.9210    5.6550   -4.5640 hs        1 1KU      0.031000
     63 HBI        -1.3690    1.8020   -5.2780 h4        1 1KU      0.181000
     64 HBJ        -2.6280   -0.4550   -3.0000 ha        1 1KU      0.234000
     65 OAB        -3.1780    5.9020    6.2020 os        1 1KU     -0.182000
@<TRIPOS>BOND
     1    1    3 1   
     2    1    4 1   
     3    1   18 1   
     4    2    4 1   
     5    2   21 1   
     6    2   24 1   
     7    4   37 1   
     8    5   23 1   
     9    5   36 1   
    10    5   38 1   
    11    6   39 1   
    12    6   40 1   
    13    6   41 1   
    14    6   65 1   
    15    7    8 1   
    16    7    9 1   
    17    7   65 1   
    18    8   14 1   
    19    8   42 1   
    20    9   10 1   
    21    9   12 1   
    22   10   43 1   
    23   11   44 1   
    24   11   45 1   
    25   12   13 1   
    26   12   46 1   
    27   13   14 1   
    28   13   47 1   
    29   14   15 1   
    30   15   16 1   
    31   16   17 1   
    32   16   48 1   
    33   16   49 1   
    34   17   18 1   
    35   17   50 1   
    36   17   51 1   
    37   18   19 1   
    38   18   52 1   
    39   19   20 1   
    40   19   53 1   
    41   19   54 1   
    42   20   21 1   
    43   20   55 1   
    44   20   56 1   
    45   21   22 1   
    46   21   57 1   
    47   22   23 1   
    48   22   58 1   
    49   22   59 1   
    50   23   60 1   
    51   24   25 1   
    52   24   26 1   
    53   24   27 1   
    54   27   28 1   
    55   27   35 1   
    56   28   29 1   
    57   28   61 1   
    58   29   30 1   
    59   29   33 1   
    60   30   62 1   
    61   31   32 1   
    62   32   33 1   
    63   33   63 1   
    64   34   35 1   
    65   34   64 1   
@<TRIPOS>SUBSTRUCTURE
     1 1KU         1 TEMP              0 ****  ****    0 ROOT
