@<TRIPOS>MOLECULE
1KU
   65    69     1     0     0
SMALL
bcc


@<TRIPOS>ATOM
      1 C          -0.8030    1.6240   -1.5270 c         1 1KU      0.675500
      2 N          -2.1430    2.1770    0.5310 n3        1 1KU     -0.803500
      3 O          -0.7600    1.8090   -2.7630 o         1 1KU     -0.657500
      4 CA         -1.5590    2.6780   -0.6840 c3        1 1KU      0.181500
      5 CB         -0.5820    3.8540   -0.4610 c3        1 1KU     -0.078400
      6 CAA         5.5220   -2.7530    2.7440 c3        1 1KU      0.109700
      7 CAC         5.7940   -1.5660    0.7030 ca        1 1KU      0.135100
      8 CAD         4.4190   -1.5020    0.5020 ca        1 1KU     -0.213000
      9 CAE         6.6840   -0.9960   -0.2510 ca        1 1KU      0.072100
     10 OAF         8.0270   -1.1160    0.0540 os        1 1KU     -0.303900
     11 CAG         8.9280   -0.5630   -0.8970 c3        1 1KU      0.110700
     12 CAH         6.1720   -0.3750   -1.3860 ca        1 1KU     -0.145000
     13 CAI         4.7910   -0.3060   -1.5960 ca        1 1KU     -0.204000
     14 CAJ         3.9260   -0.8660   -0.6560 ca        1 1KU      0.128100
     15 OAK         2.5460   -0.8560   -0.7510 os        1 1KU     -0.343900
     16 CAL         2.0070   -0.2610   -1.9370 c3        1 1KU      0.108400
     17 CAM         0.4830   -0.4190   -1.8430 c3        1 1KU      0.086000
     18 NAN        -0.1790    0.5240   -0.9670 n         1 1KU     -0.460800
     19 CAQ        -0.1650    0.1930    0.4390 c3        1 1KU      0.106000
     20 CAR         0.0350    1.3480    1.4130 c3        1 1KU     -0.106400
     21 CAS        -1.2300    2.1890    1.6590 c3        1 1KU      0.234500
     22 CAT        -0.8170    3.6270    2.0380 c3        1 1KU     -0.093400
     23 CAU        -0.8350    4.5700    0.8490 c3        1 1KU     -0.074400
     24 SAY        -3.7360    1.8420    0.6870 sy        1 1KU      1.509200
     25 OAZ        -4.0770    1.8290    2.0580 o         1 1KU     -0.647800
     26 OBA        -4.4840    2.6940   -0.1500 o         1 1KU     -0.647800
     27 CBB        -3.8740    0.2630    0.0990 ca        1 1KU     -0.369500
     28 CBC        -3.6970   -0.8270    0.9480 ca        1 1KU      0.037000
     29 CBD        -3.8570   -2.1230    0.4670 ca        1 1KU     -0.129100
     30 SBE        -3.7160   -3.6170    1.2530 ss        1 1KU     -0.009100
     31 CBF        -4.0980   -4.4410   -0.2100 cc        1 1KU      0.367100
     32 NBG        -4.3320   -3.6920   -1.2680 nd        1 1KU     -0.524100
     33 CBH        -4.2030   -2.3380   -0.9130 ca        1 1KU      0.135400
     34 CBI        -4.3860   -1.2320   -1.7650 ca        1 1KU     -0.096000
     35 CBJ        -4.2210    0.0410   -1.2500 ca        1 1KU     -0.028000
     36 HA         -2.4030    3.0430   -1.3520 h1        1 1KU      0.103700
     37 HB          0.4740    3.4780   -0.4820 hc        1 1KU      0.059200
     38 HBA        -0.7010    4.5670   -1.3170 hc        1 1KU      0.059200
     39 HAA         6.2230   -3.1690    3.5120 h1        1 1KU      0.045033
     40 HAAA        4.8490   -1.9860    3.1970 h1        1 1KU      0.045033
     41 HAAB        4.9230   -3.5700    2.2720 h1        1 1KU      0.045033
     42 HAD         3.7070   -1.9330    1.2170 ha        1 1KU      0.153000
     43 HAG         9.9340   -0.7790   -0.4550 h1        1 1KU      0.043033
     44 HAGA        8.8180   -1.0660   -1.8890 h1        1 1KU      0.043033
     45 HAGB        8.7710    0.5380   -0.9990 h1        1 1KU      0.043033
     46 HAH         6.8460    0.0700   -2.1330 ha        1 1KU      0.142000
     47 HAI         4.4130    0.1890   -2.5000 ha        1 1KU      0.142000
     48 HAL         2.3170    0.8140   -1.9980 h1        1 1KU      0.052200
     49 HALA        2.3800   -0.8170   -2.8370 h1        1 1KU      0.052200
     50 HAM         0.0750   -0.2970   -2.8890 h1        1 1KU      0.076700
     51 HAMA        0.2540   -1.4640   -1.4870 h1        1 1KU      0.076700
     52 HAQ        -1.1250   -0.3470    0.6950 h1        1 1KU      0.052700
     53 HAQA        0.6890   -0.5330    0.6050 h1        1 1KU      0.052700
     54 HAR         0.3530    0.9160    2.3980 hc        1 1KU      0.060200
     55 HARA        0.8700    2.0050    1.0530 hc        1 1KU      0.060200
     56 HAS        -1.7800    1.7380    2.5410 h1        1 1KU      0.073700
     57 HAT        -1.5200    4.0120    2.8220 hc        1 1KU      0.052700
     58 HATA        0.2050    3.5990    2.4960 hc        1 1KU      0.052700
     59 HAU        -0.0560    5.3650    0.9890 hc        1 1KU      0.050700
     60 HAUA       -1.8290    5.0880    0.7980 hc        1 1KU      0.050700
     61 HBC        -3.4510   -0.6560    2.0120 ha        1 1KU      0.157000
     62 HBF        -4.1460   -5.5350   -0.2610 h5        1 1KU      0.067800
     63 HBI        -4.6590   -1.3870   -2.8210 ha        1 1KU      0.164000
     64 HBJ        -4.3800    0.9180   -1.9050 ha        1 1KU      0.164000
     65 OAB         6.3980   -2.1560    1.7930 os        1 1KU     -0.300900
@<TRIPOS>BOND
     1    1    3 2   
     2    1    4 1   
     3    1   18 1   
     4    2    4 1   
     5    2   21 1   
     6    2   24 1   
     7    4    5 1   
     8    4   36 1   
     9    5   23 1   
    10    5   37 1   
    11    5   38 1   
    12    6   39 1   
    13    6   40 1   
    14    6   41 1   
    15    6   65 1   
    16    7    8 ar  
    17    7    9 ar  
    18    7   65 1   
    19    8   14 ar  
    20    8   42 1   
    21    9   10 1   
    22    9   12 ar  
    23   10   11 1   
    24   11   43 1   
    25   11   44 1   
    26   11   45 1   
    27   12   13 ar  
    28   12   46 1   
    29   13   14 ar  
    30   13   47 1   
    31   14   15 1   
    32   15   16 1   
    33   16   17 1   
    34   16   48 1   
    35   16   49 1   
    36   17   18 1   
    37   17   50 1   
    38   17   51 1   
    39   18   19 1   
    40   19   20 1   
    41   19   52 1   
    42   19   53 1   
    43   20   21 1   
    44   20   54 1   
    45   20   55 1   
    46   21   22 1   
    47   21   56 1   
    48   22   23 1   
    49   22   57 1   
    50   22   58 1   
    51   23   59 1   
    52   23   60 1   
    53   24   25 2   
    54   24   26 2   
    55   24   27 1   
    56   27   28 ar  
    57   27   35 ar  
    58   28   29 ar  
    59   28   61 1   
    60   29   30 1   
    61   29   33 ar  
    62   30   31 1   
    63   31   32 2   
    64   31   62 1   
    65   32   33 1   
    66   33   34 ar  
    67   34   35 ar  
    68   34   63 1   
    69   35   64 1   
@<TRIPOS>SUBSTRUCTURE
     1 1KU         1 TEMP              0 ****  ****    0 ROOT
