@<TRIPOS>MOLECULE
1KU
   65    66     1     0     0
SMALL
bcc


@<TRIPOS>ATOM
      1 C          -0.1610    0.3060    0.1080 c2        1 1KU      0.260000
      2 N           1.9230    0.8670   -1.1190 n3        1 1KU     -0.753000
      3 O          -1.0380   -0.4030    0.6430 o         1 1KU     -0.410000
      4 CA          1.0160   -0.0250   -0.5320 c2        1 1KU     -0.412000
      5 CB          4.0630   -0.3610    1.1130 c2        1 1KU     -0.214000
      6 CAA        -2.4050    6.7250    5.9830 c3        1 1KU     -0.069000
      7 CAC        -2.9940    4.4190    5.8980 ca        1 1KU      0.036000
      8 CAD        -2.4930    4.2820    4.6050 ca        1 1KU     -0.197000
      9 CAE        -3.5680    3.3120    6.5620 ca        1 1KU      0.024000
     10 OAF        -4.0850    3.3920    7.8400 oh        1 1KU     -0.281000
     11 CAG        -4.9570    1.1270    8.4450 c1        1 1KU     -0.033000
     12 CAH        -3.6370    2.0670    5.9290 ca        1 1KU     -0.105000
     13 CAI        -3.1340    1.9190    4.6380 ca        1 1KU     -0.190000
     14 CAJ        -2.5690    3.0200    3.9870 ca        1 1KU      0.075000
     15 OAK        -2.0150    2.9730    2.7180 os        1 1KU     -0.243000
     16 CAL        -2.3430    1.8120    1.9430 c3        1 1KU     -0.031000
     17 CAM        -1.9010    2.1200    0.5120 c3        1 1KU     -0.113000
     18 NAN        -0.4770    1.8440    0.1860 nx        1 1KU     -0.061000
     19 CAQ         0.4600    2.5630    1.0870 c3        1 1KU     -0.116000
     20 CAR         1.8910    2.0530    1.0780 c3        1 1KU     -0.173000
     21 CAS         2.5190    1.9160   -0.3130 c3        1 1KU      0.060000
     22 CAT         4.0510    1.8310   -0.1470 c3        1 1KU     -0.160000
     23 CAU         4.6050    0.8010    0.7590 c2        1 1KU     -0.174000
     24 SAY         2.3570    0.5450   -2.6490 s6        1 1KU      2.858000
     25 OAZ         3.3420    1.4700   -3.0810 o         1 1KU     -0.930500
     26 OBA         2.6760   -0.8090   -2.8420 o         1 1KU     -0.930500
     27 CBB         0.9670    0.8750   -3.5710 c2        1 1KU     -0.771000
     28 CBC         0.9150    2.0650   -4.4430 c2        1 1KU     -0.034000
     29 CBD        -0.2890    2.6400   -4.6970 c2        1 1KU     -0.325000
     30 SBE        -0.3220    4.1550   -5.4440 sh        1 1KU      0.201000
     31 CBF        -2.6170    3.1070   -2.1650 c1        1 1KU      0.101000
     32 NBG        -2.1830    2.6170   -3.1470 n2        1 1KU     -0.328000
     33 CBH        -1.6250    1.9930   -4.2830 c3        1 1KU      0.147000
     34 CBI        -1.4050    0.4790   -4.1540 c2        1 1KU     -0.192000
     35 CBJ        -0.2010    0.2500   -3.6790 c1        1 1KU      0.115000
     36 HA          3.0760   -0.7080    0.7770 ha        1 1KU      0.122000
     37 HB          1.2950   -1.0930   -0.5350 h4        1 1KU      0.183000
     38 HBA         4.5920   -1.0600    1.7760 ha        1 1KU      0.122000
     39 HAA        -1.3300    6.5340    5.7440 h1        1 1KU      0.087333
     40 HAAA       -2.9730    6.9820    5.0560 h1        1 1KU      0.087333
     41 HAAB       -2.5030    7.5370    6.7470 h1        1 1KU      0.087333
     42 HAD        -2.0440    5.1240    4.0630 ha        1 1KU      0.152000
     43 HAG        -3.9600    4.2960    8.1620 ho        1 1KU      0.243000
     44 HAGA       -4.2270    1.3030    9.2490 ha        1 1KU      0.014500
     45 HAGB       -5.8510    1.7550    8.5780 ha        1 1KU      0.014500
     46 HAH        -4.0910    1.2100    6.4680 ha        1 1KU      0.197000
     47 HAI        -3.1850    0.9340    4.1530 ha        1 1KU      0.152000
     48 HAL        -3.4540    1.6530    1.9460 h1        1 1KU      0.120000
     49 HALA       -1.8250    0.9100    2.3660 h1        1 1KU      0.120000
     50 HAM        -2.5190    1.4710   -0.1750 hx        1 1KU      0.139000
     51 HAMA       -2.1100    3.2060    0.2870 hx        1 1KU      0.139000
     52 HAQ        -0.3280    2.2030   -0.7620 hn        1 1KU      0.215000
     53 HAQA        0.0700    2.4760    2.1430 hx        1 1KU      0.121000
     54 HAR         0.4390    3.6540    0.8000 hx        1 1KU      0.121000
     55 HARA        1.9480    1.0650    1.6120 hc        1 1KU      0.120500
     56 HAS         2.5010    2.7920    1.6650 hc        1 1KU      0.120500
     57 HAT         2.3300    2.8880   -0.8740 h1        1 1KU      0.071000
     58 HATA        4.5290    1.7030   -1.1610 hc        1 1KU      0.107500
     59 HAU         4.3750    2.8410    0.2300 hc        1 1KU      0.107500
     60 HAUA        5.6130    1.0660    1.1330 ha        1 1KU      0.114000
     61 HBC         1.8740    2.4960   -4.7780 ha        1 1KU      0.190000
     62 HBF        -1.6060    4.2400   -5.7420 hs        1 1KU      0.011000
     63 HBI        -2.3570    2.1070   -5.1450 h1        1 1KU      0.134000
     64 HBJ        -2.1430   -0.2160   -4.5560 ha        1 1KU      0.188000
     65 OAB        -2.9830    5.5950    6.6270 os        1 1KU     -0.230000
@<TRIPOS>BOND
     1    1    3 1   
     2    1    4 1   
     3    1   18 1   
     4    2    4 1   
     5    2   21 1   
     6    2   24 1   
     7    4   37 1   
     8    5   23 1   
     9    5   36 1   
    10    5   38 1   
    11    6   39 1   
    12    6   40 1   
    13    6   41 1   
    14    6   65 1   
    15    7    8 1   
    16    7    9 1   
    17    7   65 1   
    18    8   14 1   
    19    8   42 1   
    20    9   10 1   
    21    9   12 1   
    22   10   43 1   
    23   11   44 1   
    24   11   45 1   
    25   12   13 1   
    26   12   46 1   
    27   13   14 1   
    28   13   47 1   
    29   14   15 1   
    30   15   16 1   
    31   16   17 1   
    32   16   48 1   
    33   16   49 1   
    34   17   18 1   
    35   17   50 1   
    36   17   51 1   
    37   18   19 1   
    38   18   52 1   
    39   19   20 1   
    40   19   53 1   
    41   19   54 1   
    42   20   21 1   
    43   20   55 1   
    44   20   56 1   
    45   21   22 1   
    46   21   57 1   
    47   22   23 1   
    48   22   58 1   
    49   22   59 1   
    50   23   60 1   
    51   24   25 1   
    52   24   26 1   
    53   24   27 1   
    54   27   28 1   
    55   27   35 1   
    56   28   29 1   
    57   28   61 1   
    58   29   30 1   
    59   29   33 1   
    60   30   62 1   
    61   31   32 1   
    62   32   33 1   
    63   33   34 1   
    64   33   63 1   
    65   34   35 1   
    66   34   64 1   
@<TRIPOS>SUBSTRUCTURE
     1 1KU         1 TEMP              0 ****  ****    0 ROOT
