@<TRIPOS>MOLECULE
1KV
   63    66     1     0     0
SMALL
bcc


@<TRIPOS>ATOM
      1 CAB         5.8040    2.8730    1.3030 c3        1 1KV      0.115700
      2 OAS         5.2920    1.5780    1.5620 os        1 1KV     -0.416600
      3 CBB         5.0810    0.7990    0.3830 c3        1 1KV      0.122100
      4 CAH         6.3980    0.1770   -0.0730 c3        1 1KV     -0.101400
      5 CAG         6.1950   -0.7330   -1.2610 c3        1 1KV     -0.105400
      6 CAZ         5.1660   -1.8120   -0.9410 c3        1 1KV      0.140100
      7 OAR         4.8610   -2.5660   -2.1190 os        1 1KV     -0.420600
      8 CAA         5.7870   -3.6050   -2.3790 c3        1 1KV      0.116700
      9 CAO         3.8470   -1.1930   -0.4910 c3        1 1KV     -0.093400
     10 CBA         4.0700   -0.3210    0.7570 c3        1 1KV      0.106700
     11 NAQ         2.8290    0.2020    1.2780 n         1 1KV     -0.545900
     12 C           2.2440   -0.2990    2.4170 c         1 1KV      0.661100
     13 O           2.6630   -1.3290    2.9830 o         1 1KV     -0.617100
     14 CA          1.0490    0.4530    3.0200 c3        1 1KV      0.093800
     15 N           0.1060    0.9630    2.0400 n3        1 1KV     -0.738600
     16 CAK        -0.7720    1.9780    2.6070 c3        1 1KV      0.165800
     17 CAM        -1.8020    2.5110    1.5920 c3        1 1KV      0.166300
     18 CAJ        -0.6390   -0.1000    1.3780 c3        1 1KV      0.165800
     19 CAL        -1.6650    0.4360    0.3620 c3        1 1KV      0.166300
     20 NBD        -2.5460    1.4470    0.9320 n3        1 1KV     -0.730600
     21 CAP        -3.4980    1.9780   -0.0370 c3        1 1KV      0.217100
     22 CAW        -4.4610    0.9550   -0.5690 ca        1 1KV     -0.090300
     23 CAF        -4.6380    0.8640   -1.9670 ca        1 1KV     -0.111000
     24 CAY        -5.5710   -0.0500   -2.4080 ca        1 1KV      0.052100
     25 OAU        -5.9470   -0.3450   -3.7150 os        1 1KV     -0.335900
     26 CAI        -6.9580   -1.3770   -3.6340 c3        1 1KV      0.321200
     27 OAT        -7.1710   -1.6820   -2.2370 os        1 1KV     -0.333900
     28 CAX        -6.3140   -0.8620   -1.5110 ca        1 1KV      0.056100
     29 CAE        -6.1430   -0.7780   -0.1450 ca        1 1KV     -0.116000
     30 CAD        -5.1950    0.1560    0.3090 ca        1 1KV     -0.109000
     31 H1          5.1080    3.4530    0.6480 h1        1 1KV      0.033033
     32 H2          5.8780    3.3470    2.3140 h1        1 1KV      0.033033
     33 H3          6.8140    2.8150    0.8260 h1        1 1KV      0.033033
     34 H4          4.6560    1.4440   -0.4350 h1        1 1KV      0.040700
     35 H5          7.1170    0.9940   -0.3430 hc        1 1KV      0.053700
     36 H6          6.8460   -0.3940    0.7830 hc        1 1KV      0.053700
     37 H7          5.8430   -0.1430   -2.1470 hc        1 1KV      0.051200
     38 H8          7.1680   -1.2120   -1.5410 hc        1 1KV      0.051200
     39 H9          5.5630   -2.4950   -0.1380 h1        1 1KV      0.046700
     40 H10         5.4010   -4.0930   -3.3090 h1        1 1KV      0.032700
     41 H11         6.8110   -3.1910   -2.5520 h1        1 1KV      0.032700
     42 H12         5.8110   -4.3370   -1.5340 h1        1 1KV      0.032700
     43 H13         3.4170   -0.5840   -1.3270 hc        1 1KV      0.063200
     44 H14         3.1200   -2.0130   -0.2580 hc        1 1KV      0.063200
     45 H15         4.5430   -0.9610    1.5640 h1        1 1KV      0.095700
     46 H16         2.5010    1.0560    0.8960 hn        1 1KV      0.321500
     47 H17         0.5670   -0.2550    3.7570 h1        1 1KV      0.065700
     48 H18         1.4760    1.3210    3.6000 h1        1 1KV      0.065700
     49 H20        -1.3250    1.5910    3.5130 h1        1 1KV      0.043700
     50 H21        -0.1350    2.8460    2.9340 h1        1 1KV      0.043700
     51 H22        -2.5370    3.1500    2.1560 h1        1 1KV      0.040700
     52 H23        -1.2680    3.1720    0.8480 h1        1 1KV      0.040700
     53 H24         0.1010   -0.7410    0.8210 h1        1 1KV      0.043700
     54 H25        -1.1760   -0.7570    2.1230 h1        1 1KV      0.043700
     55 H26        -1.1110    0.8270   -0.5410 h1        1 1KV      0.040700
     56 H27        -2.3070   -0.4270    0.0290 h1        1 1KV      0.040700
     57 H29        -4.1010    2.7760    0.4880 h1        1 1KV      0.041200
     58 H30        -2.9680    2.4730   -0.9060 h1        1 1KV      0.041200
     59 H31        -4.0640    1.4880   -2.6650 ha        1 1KV      0.154000
     60 H32        -7.9100   -0.9780   -4.0610 h2        1 1KV      0.071700
     61 H33        -6.5740   -2.2940   -4.1450 h2        1 1KV      0.071700
     62 H34        -6.7130   -1.4040    0.5530 ha        1 1KV      0.156000
     63 H35        -5.0270    0.2530    1.3940 ha        1 1KV      0.153000
@<TRIPOS>BOND
     1    1    2 1   
     2    1   31 1   
     3    1   32 1   
     4    1   33 1   
     5    2    3 1   
     6    3    4 1   
     7    3   10 1   
     8    3   34 1   
     9    4    5 1   
    10    4   35 1   
    11    4   36 1   
    12    5    6 1   
    13    5   37 1   
    14    5   38 1   
    15    6    7 1   
    16    6    9 1   
    17    6   39 1   
    18    7    8 1   
    19    8   40 1   
    20    8   41 1   
    21    8   42 1   
    22    9   10 1   
    23    9   43 1   
    24    9   44 1   
    25   10   11 1   
    26   10   45 1   
    27   11   12 1   
    28   11   46 1   
    29   12   13 2   
    30   12   14 1   
    31   14   15 1   
    32   14   47 1   
    33   14   48 1   
    34   15   16 1   
    35   15   18 1   
    36   16   17 1   
    37   16   49 1   
    38   16   50 1   
    39   17   20 1   
    40   17   51 1   
    41   17   52 1   
    42   18   19 1   
    43   18   53 1   
    44   18   54 1   
    45   19   20 1   
    46   19   55 1   
    47   19   56 1   
    48   20   21 1   
    49   21   22 1   
    50   21   57 1   
    51   21   58 1   
    52   22   23 ar  
    53   22   30 ar  
    54   23   24 ar  
    55   23   59 1   
    56   24   25 1   
    57   24   28 ar  
    58   25   26 1   
    59   26   27 1   
    60   26   60 1   
    61   26   61 1   
    62   27   28 1   
    63   28   29 ar  
    64   29   30 ar  
    65   29   62 1   
    66   30   63 1   
@<TRIPOS>SUBSTRUCTURE
     1 1KV         1 TEMP              0 ****  ****    0 ROOT
