@<TRIPOS>MOLECULE
1KV
   63    63     1     0     0
SMALL
bcc


@<TRIPOS>ATOM
      1 CAB        -5.1450   -3.9790    0.1790 c3        1 1KV     -0.075000
      2 OAS        -3.7180   -4.0210    0.3140 os        1 1KV     -0.276000
      3 CBB        -3.2690   -3.9840    1.6380 c3        1 1KV      0.004000
      4 CAH        -3.2980   -5.4150    2.2130 c3        1 1KV     -0.178000
      5 CAG        -2.6610   -5.5030    3.5680 c3        1 1KV     -0.184000
      6 CAZ        -1.2810   -4.9010    3.5920 c3        1 1KV      0.028000
      7 OAR        -0.8430   -4.8520    4.8950 os        1 1KV     -0.277000
      8 CAA         0.0010   -5.9470    5.2650 c3        1 1KV     -0.073000
      9 CAO        -1.2540   -3.4500    3.0000 c3        1 1KV     -0.165000
     10 CBA        -1.8820   -3.3720    1.6640 c3        1 1KV      0.018000
     11 NAQ        -1.9800   -1.9440    1.2650 n3        1 1KV     -0.344000
     12 C          -1.0630   -1.4110    0.3670 c1        1 1KV      0.301000
     13 O          -0.1860   -2.1120   -0.0900 o         1 1KV     -0.366000
     14 CA         -1.1300    0.0930   -0.0100 c2        1 1KV     -0.096000
     15 N           0.1590    0.5060   -0.6620 n3        1 1KV     -0.263000
     16 CAK         0.8180    1.4660    0.1650 c3        1 1KV     -0.076500
     17 CAM         2.0630    2.0580   -0.5050 c3        1 1KV     -0.069000
     18 CAJ        -0.1120    1.0160   -2.0050 c3        1 1KV     -0.076500
     19 CAL         1.1280    1.5940   -2.6580 c3        1 1KV     -0.069000
     20 NBD         1.7940    2.5580   -1.8190 n3        1 1KV     -0.256000
     21 CAP         3.0470    2.9790   -2.4480 c3        1 1KV     -0.027000
     22 CAW         3.0380    4.4690   -2.6170 c2        1 1KV     -0.084000
     23 CAF         3.3020    5.0230   -3.8570 c2        1 1KV     -0.111000
     24 CAY         3.4210    6.4240   -3.9950 c1        1 1KV      0.006000
     25 OAU         3.7570    7.2460   -5.1130 o         1 1KV     -0.219000
     26 CAI         3.6770    8.5820   -4.7060 c3        1 1KV      0.099000
     27 OAT         3.4760    8.5960   -3.2950 os        1 1KV     -0.217000
     28 CAX         3.2710    7.2560   -2.8710 c2        1 1KV      0.011000
     29 CAE         3.0010    6.6810   -1.5990 c1        1 1KV     -0.116000
     30 CAD         2.8860    5.3140   -1.4710 c1        1 1KV     -0.109000
     31 H1         -5.5260   -3.4220    0.8910 h1        1 1KV      0.072667
     32 H2         -5.5110   -4.9040    0.2480 h1        1 1KV      0.072667
     33 H3         -5.3650   -3.6220   -0.6440 h1        1 1KV      0.072667
     34 H4         -3.8710   -3.4230    2.1610 h1        1 1KV      0.081000
     35 H5         -4.2880   -5.7300    2.2830 hc        1 1KV      0.093000
     36 H6         -2.8660   -5.9550    1.6580 hc        1 1KV      0.093000
     37 H7         -3.1720   -5.0750    4.1550 hc        1 1KV      0.091000
     38 H8         -2.6010   -6.4470    3.8290 hc        1 1KV      0.091000
     39 H9         -0.6710   -5.4720    3.0730 h1        1 1KV      0.085000
     40 H10         0.8990   -5.9130    4.6940 h1        1 1KV      0.072333
     41 H11         0.2210   -5.8830    6.2340 h1        1 1KV      0.072333
     42 H12        -0.4770   -6.8150    5.0870 h1        1 1KV      0.072333
     43 H13        -1.7390   -2.8390    3.6200 hc        1 1KV      0.102500
     44 H14        -0.2880   -3.1440    2.9250 hc        1 1KV      0.102500
     45 H15        -1.3080   -3.8510    1.0110 h1        1 1KV      0.139000
     46 H16        -2.6800   -1.4540    1.5310 hn        1 1KV      0.227000
     47 H17        -1.8830    0.2470   -0.6370 h4        1 1KV      0.105500
     48 H18        -1.2660    0.6250    0.8020 h4        1 1KV      0.105500
     49 H20         1.0760    1.0520    0.9640 h1        1 1KV      0.086500
     50 H21         0.2110    2.1720    0.3650 h1        1 1KV      0.086500
     51 H22         2.7270    1.3850   -0.5650 h1        1 1KV      0.078500
     52 H23         2.3840    2.7520    0.0200 h1        1 1KV      0.078500
     53 H24        -0.4550    0.2810   -2.5650 h1        1 1KV      0.086500
     54 H25        -0.7450    1.6660   -1.9510 h1        1 1KV      0.086500
     55 H26         1.7450    0.8690   -2.8490 h1        1 1KV      0.078500
     56 H27         0.8700    2.0350   -3.5150 h1        1 1KV      0.078500
     57 H29         3.1320    2.5590   -3.3030 h1        1 1KV      0.080000
     58 H30         3.8280    2.7120   -1.8600 h1        1 1KV      0.080000
     59 H31         3.4920    4.4320   -4.6290 ha        1 1KV      0.154000
     60 H32         2.9240    9.0040   -5.1390 h2        1 1KV      0.111000
     61 H33         4.5500    9.0480   -4.9220 h2        1 1KV      0.111000
     62 H34         2.8960    7.2460   -0.8290 ha        1 1KV      0.156000
     63 H35         2.7400    4.8970   -0.5440 ha        1 1KV      0.154000
@<TRIPOS>BOND
     1    1    2 1   
     2    1   31 1   
     3    1   32 1   
     4    1   33 1   
     5    2    3 1   
     6    3    4 1   
     7    3   10 1   
     8    3   34 1   
     9    4    5 1   
    10    4   35 1   
    11    4   36 1   
    12    5    6 1   
    13    5   37 1   
    14    5   38 1   
    15    6    7 1   
    16    6    9 1   
    17    6   39 1   
    18    7    8 1   
    19    8   40 1   
    20    8   41 1   
    21    8   42 1   
    22    9   10 1   
    23    9   43 1   
    24    9   44 1   
    25   10   11 1   
    26   10   45 1   
    27   11   12 1   
    28   11   46 1   
    29   12   13 1   
    30   14   15 1   
    31   14   47 1   
    32   14   48 1   
    33   15   16 1   
    34   15   18 1   
    35   16   17 1   
    36   16   49 1   
    37   16   50 1   
    38   17   20 1   
    39   17   51 1   
    40   17   52 1   
    41   18   19 1   
    42   18   53 1   
    43   18   54 1   
    44   19   20 1   
    45   19   55 1   
    46   19   56 1   
    47   20   21 1   
    48   21   22 1   
    49   21   57 1   
    50   21   58 1   
    51   22   23 1   
    52   22   30 1   
    53   23   24 1   
    54   23   59 1   
    55   24   28 1   
    56   25   26 1   
    57   26   27 1   
    58   26   60 1   
    59   26   61 1   
    60   27   28 1   
    61   28   29 1   
    62   29   62 1   
    63   30   63 1   
@<TRIPOS>SUBSTRUCTURE
     1 1KV         1 TEMP              0 ****  ****    0 ROOT
