@<TRIPOS>MOLECULE
1KV
   64    67     1     0     0
SMALL
bcc


@<TRIPOS>ATOM
      1 CAB         4.5870   -1.4070   -0.4180 c3        1 1KV      0.116700
      2 OAS         4.4680   -0.0740    0.0670 os        1 1KV     -0.459600
      3 CBB         3.8900    0.0250    1.3670 c3        1 1KV      0.127100
      4 CAH         4.7870   -0.5610    2.4500 c3        1 1KV     -0.104400
      5 CAG         4.2060   -0.3290    3.8250 c3        1 1KV     -0.118400
      6 CAZ         3.9540    1.1530    4.0810 c3        1 1KV      0.151100
      7 OAR         3.2190    1.3360    5.2890 os        1 1KV     -0.413600
      8 CAA         4.0220    1.2980    6.4600 c3        1 1KV      0.111700
      9 CAO         3.0650    1.7540    2.9890 c3        1 1KV     -0.113400
     10 CBA         3.7240    1.5470    1.6280 c3        1 1KV      0.133500
     11 NAQ         2.9450    2.1970    0.5150 n4        1 1KV     -0.666800
     12 C           2.8940    3.6950    0.6530 c         1 1KV      0.533100
     13 O           1.8620    4.1540    1.1190 o         1 1KV     -0.421100
     14 CA          4.1170    4.5050    0.2250 c3        1 1KV      0.117800
     15 N           4.8160    3.9140   -0.8870 n3        1 1KV     -0.779600
     16 CAK         6.2430    3.7230   -0.6460 c3        1 1KV      0.168800
     17 CAM         6.9740    3.0940   -1.8500 c3        1 1KV      0.167300
     18 CAJ         4.5290    4.5660   -2.1620 c3        1 1KV      0.168800
     19 CAL         5.2790    3.9200   -3.3430 c3        1 1KV      0.167300
     20 NBD         6.7060    3.8040   -3.0900 n3        1 1KV     -0.731600
     21 CAP         7.4520    3.2470   -4.2150 c3        1 1KV      0.222100
     22 CAW         7.3200    4.0430   -5.4800 ca        1 1KV     -0.110300
     23 CAF         6.8280    3.3970   -6.6360 ca        1 1KV     -0.113000
     24 CAY         6.7740    4.1570   -7.7840 ca        1 1KV      0.057100
     25 OAU         6.3390    3.7850   -9.0500 os        1 1KV     -0.331900
     26 CAI         6.5000    4.9440   -9.9050 c3        1 1KV      0.320200
     27 OAT         7.0240    6.0220   -9.0920 os        1 1KV     -0.326900
     28 CAX         7.1890    5.5160   -7.8100 ca        1 1KV      0.069100
     29 CAE         7.6710    6.1500   -6.6830 ca        1 1KV     -0.116000
     30 CAD         7.7290    5.3770   -5.5090 ca        1 1KV     -0.108000
     31 H1          5.3640   -1.9620    0.1620 h1        1 1KV      0.055367
     32 H2          4.9120   -1.2760   -1.4820 h1        1 1KV      0.055367
     33 H3          3.6050   -1.9380   -0.3640 h1        1 1KV      0.055367
     34 H4          2.8860   -0.4860    1.3750 h1        1 1KV      0.063700
     35 H5          4.8940   -1.6640    2.2720 hc        1 1KV      0.072700
     36 H6          5.8100   -0.1090    2.3720 hc        1 1KV      0.072700
     37 H7          3.2400   -0.8900    3.9410 hc        1 1KV      0.075700
     38 H8          4.9140   -0.7240    4.6010 hc        1 1KV      0.075700
     39 H9          4.9320    1.7090    4.1310 h1        1 1KV      0.047700
     40 H10         3.2910    1.4710    7.2910 h1        1 1KV      0.048033
     41 H11         4.5130    0.3000    6.5700 h1        1 1KV      0.048033
     42 H12         4.7920    2.1080    6.4370 h1        1 1KV      0.048033
     43 H13         2.0590    1.2580    3.0290 hc        1 1KV      0.084200
     44 H14         2.9130    2.8450    3.2000 hc        1 1KV      0.084200
     45 H15         4.7500    2.0240    1.6090 hx        1 1KV      0.109700
     46 H16         1.9900    1.8200    0.5170 hn        1 1KV      0.471800
     47 H17         4.7680    4.5810    1.1470 h1        1 1KV      0.108200
     48 H18         3.7170    5.5410   -0.0020 h1        1 1KV      0.108200
     49 H20         6.3560    3.0240    0.2290 h1        1 1KV      0.049450
     50 H21         6.7460    4.6990   -0.3870 h1        1 1KV      0.049450
     51 H22         8.0790    3.1550   -1.6400 h1        1 1KV      0.052200
     52 H23         6.6920    2.0020   -1.9150 h1        1 1KV      0.052200
     53 H24         4.7860    5.6640   -2.1260 h1        1 1KV      0.049450
     54 H25         3.4240    4.4720   -2.3580 h1        1 1KV      0.049450
     55 H26         4.8070    2.9190   -3.5700 h1        1 1KV      0.052200
     56 H27         5.1390    4.5830   -4.2430 h1        1 1KV      0.052200
     57 H29         7.1480    2.1760   -4.4140 h1        1 1KV      0.047200
     58 H30         8.5410    3.2420   -3.9150 h1        1 1KV      0.047200
     59 H31         6.5140    2.3460   -6.6230 ha        1 1KV      0.153000
     60 H32         7.2460    4.7010  -10.7000 h2        1 1KV      0.080700
     61 H33         5.4940    5.2450  -10.2890 h2        1 1KV      0.080700
     62 H34         7.9980    7.1980   -6.6990 ha        1 1KV      0.163000
     63 H35         8.1120    5.8440   -4.5890 ha        1 1KV      0.147000
     64 HAQ2        3.4040    1.9400   -0.3750 hn        1 1KV      0.471800
@<TRIPOS>BOND
     1    1    2 1   
     2    1   31 1   
     3    1   32 1   
     4    1   33 1   
     5    2    3 1   
     6    3    4 1   
     7    3   10 1   
     8    3   34 1   
     9    4    5 1   
    10    4   35 1   
    11    4   36 1   
    12    5    6 1   
    13    5   37 1   
    14    5   38 1   
    15    6    7 1   
    16    6    9 1   
    17    6   39 1   
    18    7    8 1   
    19    8   40 1   
    20    8   41 1   
    21    8   42 1   
    22    9   10 1   
    23    9   43 1   
    24    9   44 1   
    25   10   11 1   
    26   10   45 1   
    27   11   12 1   
    28   11   46 1   
    29   11   64 1   
    30   12   13 2   
    31   12   14 1   
    32   14   15 1   
    33   14   47 1   
    34   14   48 1   
    35   15   16 1   
    36   15   18 1   
    37   16   17 1   
    38   16   49 1   
    39   16   50 1   
    40   17   20 1   
    41   17   51 1   
    42   17   52 1   
    43   18   19 1   
    44   18   53 1   
    45   18   54 1   
    46   19   20 1   
    47   19   55 1   
    48   19   56 1   
    49   20   21 1   
    50   21   22 1   
    51   21   57 1   
    52   21   58 1   
    53   22   23 ar  
    54   22   30 ar  
    55   23   24 ar  
    56   23   59 1   
    57   24   25 1   
    58   24   28 ar  
    59   25   26 1   
    60   26   27 1   
    61   26   60 1   
    62   26   61 1   
    63   27   28 1   
    64   28   29 ar  
    65   29   30 ar  
    66   29   62 1   
    67   30   63 1   
@<TRIPOS>SUBSTRUCTURE
     1 1KV         1 TEMP              0 ****  ****    0 ROOT
