@<TRIPOS>MOLECULE
1KV
   64    67     1     0     0
SMALL
bcc


@<TRIPOS>ATOM
      1 CAB         5.2250   -0.9580   -0.2370 c3        1 1KV      0.115700
      2 OAS         4.9350    0.2970    0.3690 os        1 1KV     -0.463600
      3 CBB         4.0760    0.2140    1.5070 c3        1 1KV      0.126100
      4 CAH         4.7660   -0.4370    2.7000 c3        1 1KV     -0.103400
      5 CAG         3.8910   -0.3850    3.9300 c3        1 1KV     -0.118400
      6 CAZ         3.4850    1.0460    4.2660 c3        1 1KV      0.151100
      7 OAR         2.5020    1.0550    5.2990 os        1 1KV     -0.413600
      8 CAA         3.0470    0.9670    6.6080 c3        1 1KV      0.111700
      9 CAO         2.8010    1.7160    3.0710 c3        1 1KV     -0.113400
     10 CBA         3.7380    1.6850    1.8660 c3        1 1KV      0.133500
     11 NAQ         3.1500    2.4100    0.6810 n4        1 1KV     -0.672800
     12 C           3.3000    3.9040    0.8130 c         1 1KV      0.533100
     13 O           2.4000    4.4880    1.3950 o         1 1KV     -0.421100
     14 CA          4.5650    4.5430    0.2360 c3        1 1KV      0.122800
     15 N           4.9890    3.9160   -0.9880 n3        1 1KV     -0.782600
     16 CAK         6.2670    3.2210   -0.8820 c3        1 1KV      0.167800
     17 CAM         6.7070    2.5600   -2.2040 c3        1 1KV      0.168800
     18 CAJ         4.8820    4.7810   -2.1580 c3        1 1KV      0.167800
     19 CAL         5.3280    4.0820   -3.4570 c3        1 1KV      0.168800
     20 NBD         6.6430    3.4750   -3.3320 n3        1 1KV     -0.732600
     21 CAP         7.1190    2.8610   -4.5670 c3        1 1KV      0.222100
     22 CAW         7.2190    3.8180   -5.7190 ca        1 1KV     -0.110300
     23 CAF         6.4980    3.5320   -6.8990 ca        1 1KV     -0.113000
     24 CAY         6.6640    4.4140   -7.9450 ca        1 1KV      0.057100
     25 OAU         6.0860    4.3800   -9.2080 os        1 1KV     -0.331900
     26 CAI         6.5960    5.5260   -9.9320 c3        1 1KV      0.320200
     27 OAT         7.4820    6.2500   -9.0440 os        1 1KV     -0.326900
     28 CAX         7.5120    5.5510   -7.8460 ca        1 1KV      0.070100
     29 CAE         8.2180    5.8330   -6.6950 ca        1 1KV     -0.116000
     30 CAD         8.0520    4.9330   -5.6260 ca        1 1KV     -0.108000
     31 H1          5.7810   -0.6810   -1.1690 h1        1 1KV      0.055033
     32 H2          4.2830   -1.5060   -0.4840 h1        1 1KV      0.055033
     33 H3          5.8700   -1.5730    0.4370 h1        1 1KV      0.055033
     34 H4          3.1410   -0.3530    1.2380 h1        1 1KV      0.065700
     35 H5          5.7450    0.0760    2.8890 hc        1 1KV      0.073200
     36 H6          4.9920   -1.5060    2.4460 hc        1 1KV      0.073200
     37 H7          2.9670   -1.0030    3.7800 hc        1 1KV      0.075200
     38 H8          4.4460   -0.8250    4.8010 hc        1 1KV      0.075200
     39 H9          4.3870    1.6430    4.5780 h1        1 1KV      0.049700
     40 H10         3.6050    0.0090    6.7400 h1        1 1KV      0.048367
     41 H11         2.1470    0.9950    7.2740 h1        1 1KV      0.048367
     42 H12         3.7180    1.8370    6.8140 h1        1 1KV      0.048367
     43 H13         2.5370    2.7720    3.3430 hc        1 1KV      0.086700
     44 H14         1.8460    1.1700    2.8500 hc        1 1KV      0.086700
     45 H15         4.7090    2.2140    2.1090 hx        1 1KV      0.106700
     46 H16         3.6410    2.0840   -0.1680 hn        1 1KV      0.472300
     47 H17         5.3400    4.4750    1.0570 h1        1 1KV      0.107700
     48 H18         4.3020    5.6360    0.0950 h1        1 1KV      0.107700
     49 H20         7.0840    3.9200   -0.5390 h1        1 1KV      0.052200
     50 H21         6.1500    2.4030   -0.1150 h1        1 1KV      0.052200
     51 H22         7.7780    2.2350   -2.0760 h1        1 1KV      0.050450
     52 H23         6.0810    1.6340   -2.3690 h1        1 1KV      0.050450
     53 H24         3.8020    5.0760   -2.2750 h1        1 1KV      0.052200
     54 H25         5.4920    5.7210   -2.0240 h1        1 1KV      0.052200
     55 H26         4.5410    3.3280   -3.7530 h1        1 1KV      0.050450
     56 H27         5.3830    4.8650   -4.2660 h1        1 1KV      0.050450
     57 H29         6.4660    1.9860   -4.8650 h1        1 1KV      0.046200
     58 H30         8.1530    2.4570   -4.3560 h1        1 1KV      0.046200
     59 H31         5.8480    2.6520   -6.9830 ha        1 1KV      0.153000
     60 H32         5.7380    6.1910  -10.1980 h2        1 1KV      0.080700
     61 H33         7.1880    5.1610  -10.8070 h2        1 1KV      0.080700
     62 H34         8.8780    6.7060   -6.6150 ha        1 1KV      0.163000
     63 H35         8.6020    5.1200   -4.6900 ha        1 1KV      0.147000
     64 HAQ2        2.1550    2.1690    0.6050 hn        1 1KV      0.472300
@<TRIPOS>BOND
     1    1    2 1   
     2    1   31 1   
     3    1   32 1   
     4    1   33 1   
     5    2    3 1   
     6    3    4 1   
     7    3   10 1   
     8    3   34 1   
     9    4    5 1   
    10    4   35 1   
    11    4   36 1   
    12    5    6 1   
    13    5   37 1   
    14    5   38 1   
    15    6    7 1   
    16    6    9 1   
    17    6   39 1   
    18    7    8 1   
    19    8   40 1   
    20    8   41 1   
    21    8   42 1   
    22    9   10 1   
    23    9   43 1   
    24    9   44 1   
    25   10   11 1   
    26   10   45 1   
    27   11   12 1   
    28   11   46 1   
    29   11   64 1   
    30   12   13 2   
    31   12   14 1   
    32   14   15 1   
    33   14   47 1   
    34   14   48 1   
    35   15   16 1   
    36   15   18 1   
    37   16   17 1   
    38   16   49 1   
    39   16   50 1   
    40   17   20 1   
    41   17   51 1   
    42   17   52 1   
    43   18   19 1   
    44   18   53 1   
    45   18   54 1   
    46   19   20 1   
    47   19   55 1   
    48   19   56 1   
    49   20   21 1   
    50   21   22 1   
    51   21   57 1   
    52   21   58 1   
    53   22   23 ar  
    54   22   30 ar  
    55   23   24 ar  
    56   23   59 1   
    57   24   25 1   
    58   24   28 ar  
    59   25   26 1   
    60   26   27 1   
    61   26   60 1   
    62   26   61 1   
    63   27   28 1   
    64   28   29 ar  
    65   29   30 ar  
    66   29   62 1   
    67   30   63 1   
@<TRIPOS>SUBSTRUCTURE
     1 1KV         1 TEMP              0 ****  ****    0 ROOT
