@<TRIPOS>MOLECULE
1KV
   64    67     1     0     0
SMALL
bcc


@<TRIPOS>ATOM
      1 CAB         4.4550   -1.3610   -0.3220 c3        1 1KV      0.116700
      2 OAS         4.3700   -0.0150    0.1310 os        1 1KV     -0.459600
      3 CBB         3.7630    0.1350    1.4130 c3        1 1KV      0.127100
      4 CAH         4.6130   -0.4550    2.5310 c3        1 1KV     -0.104400
      5 CAG         4.0060   -0.1720    3.8850 c3        1 1KV     -0.118400
      6 CAZ         3.7990    1.3230    4.1010 c3        1 1KV      0.151100
      7 OAR         3.0400    1.5580    5.2850 os        1 1KV     -0.413600
      8 CAA         3.8120    1.5220    6.4770 c3        1 1KV      0.111700
      9 CAO         2.9570    1.9270    2.9730 c3        1 1KV     -0.113400
     10 CBA         3.6420    1.6660    1.6340 c3        1 1KV      0.133500
     11 NAQ         2.9130    2.3160    0.4870 ny        1 1KV     -0.667800
     12 C           2.9160    3.8180    0.5860 c         1 1KV      0.533100
     13 O           1.8950    4.3270    1.0240 o         1 1KV     -0.421100
     14 CA          4.1750    4.5700    0.1590 c3        1 1KV      0.117800
     15 N           4.8650    3.9270   -0.9310 n3        1 1KV     -0.779600
     16 CAK         6.2780    3.6770   -0.6640 c3        1 1KV      0.168300
     17 CAM         6.9990    2.9930   -1.8430 c3        1 1KV      0.167800
     18 CAJ         4.6260    4.5650   -2.2230 c3        1 1KV      0.168300
     19 CAL         5.3650    3.8640   -3.3790 c3        1 1KV      0.167800
     20 NBD         6.7810    3.6900   -3.1010 n3        1 1KV     -0.731600
     21 CAP         7.5190    3.0790   -4.2020 c3        1 1KV      0.222100
     22 CAW         7.4430    3.8550   -5.4840 ca        1 1KV     -0.110300
     23 CAF         6.9380    3.2110   -6.6350 ca        1 1KV     -0.113000
     24 CAY         6.9380    3.9500   -7.7980 ca        1 1KV      0.057100
     25 OAU         6.5040    3.5750   -9.0640 os        1 1KV     -0.331900
     26 CAI         6.7320    4.7090   -9.9370 c3        1 1KV      0.320200
     27 OAT         7.2940    5.7760   -9.1360 os        1 1KV     -0.326900
     28 CAX         7.4170    5.2880   -7.8420 ca        1 1KV      0.069100
     29 CAE         7.9110    5.9200   -6.7200 ca        1 1KV     -0.116000
     30 CAD         7.9150    5.1670   -5.5320 ca        1 1KV     -0.108000
     31 H1          3.4540   -1.8560   -0.2830 h1        1 1KV      0.055367
     32 H2          4.8110   -1.2660   -1.3790 h1        1 1KV      0.055367
     33 H3          5.1960   -1.9290    0.2910 h1        1 1KV      0.055367
     34 H4          2.7430   -0.3430    1.4060 h1        1 1KV      0.063700
     35 H5          4.6870   -1.5650    2.3810 hc        1 1KV      0.072700
     36 H6          5.6530   -0.0390    2.4690 hc        1 1KV      0.072700
     37 H7          4.6810   -0.5710    4.6870 hc        1 1KV      0.075700
     38 H8          3.0200   -0.6980    3.9900 hc        1 1KV      0.075700
     39 H9          4.7930    1.8480    4.1630 h1        1 1KV      0.047700
     40 H10         4.2670    0.5120    6.6220 h1        1 1KV      0.048033
     41 H11         3.0680    1.7380    7.2850 h1        1 1KV      0.048033
     42 H12         4.6090    2.3050    6.4550 h1        1 1KV      0.048033
     43 H13         1.9340    1.4660    2.9990 hc        1 1KV      0.083700
     44 H14         2.8370    3.0280    3.1550 hc        1 1KV      0.083700
     45 H15         4.6840    2.1090    1.6310 hx        1 1KV      0.109700
     46 H16         1.9440    1.9750    0.4780 hn        1 1KV      0.471800
     47 H17         3.8200    5.6150   -0.0970 h1        1 1KV      0.107700
     48 H18         4.8170    4.6410    1.0870 h1        1 1KV      0.107700
     49 H20         6.8210    4.6350   -0.4150 h1        1 1KV      0.049450
     50 H21         6.3460    2.9910    0.2270 h1        1 1KV      0.049450
     51 H22         8.1020    3.0090   -1.6170 h1        1 1KV      0.052450
     52 H23         6.6690    1.9130   -1.8920 h1        1 1KV      0.052450
     53 H24         4.9320    5.6520   -2.2030 h1        1 1KV      0.049450
     54 H25         3.5220    4.5170   -2.4340 h1        1 1KV      0.049450
     55 H26         4.8520    2.8810   -3.5950 h1        1 1KV      0.052450
     56 H27         5.2690    4.5160   -4.2930 h1        1 1KV      0.052450
     57 H29         7.1690    2.0190   -4.3870 h1        1 1KV      0.047200
     58 H30         8.6020    3.0300   -3.8850 h1        1 1KV      0.047200
     59 H31         6.5740    2.1760   -6.6080 ha        1 1KV      0.153000
     60 H32         5.7470    5.0490  -10.3420 h2        1 1KV      0.080700
     61 H33         7.4780    4.4160  -10.7160 h2        1 1KV      0.080700
     62 H34         8.2870    6.9500   -6.7500 ha        1 1KV      0.163000
     63 H35         8.3060    5.6340   -4.6140 ha        1 1KV      0.147000
     64 HAQ2        3.3800    2.0190   -0.3850 hn        1 1KV      0.471800
@<TRIPOS>BOND
     1    1    2 1   
     2    1   31 1   
     3    1   32 1   
     4    1   33 1   
     5    2    3 1   
     6    3    4 1   
     7    3   10 1   
     8    3   34 1   
     9    4    5 1   
    10    4   35 1   
    11    4   36 1   
    12    5    6 1   
    13    5   37 1   
    14    5   38 1   
    15    6    7 1   
    16    6    9 1   
    17    6   39 1   
    18    7    8 1   
    19    8   40 1   
    20    8   41 1   
    21    8   42 1   
    22    9   10 1   
    23    9   43 1   
    24    9   44 1   
    25   10   11 1   
    26   10   45 1   
    27   11   12 1   
    28   11   46 1   
    29   11   64 1   
    30   12   13 2   
    31   12   14 1   
    32   14   15 1   
    33   14   47 1   
    34   14   48 1   
    35   15   16 1   
    36   15   18 1   
    37   16   17 1   
    38   16   49 1   
    39   16   50 1   
    40   17   20 1   
    41   17   51 1   
    42   17   52 1   
    43   18   19 1   
    44   18   53 1   
    45   18   54 1   
    46   19   20 1   
    47   19   55 1   
    48   19   56 1   
    49   20   21 1   
    50   21   22 1   
    51   21   57 1   
    52   21   58 1   
    53   22   23 ar  
    54   22   30 ar  
    55   23   24 ar  
    56   23   59 1   
    57   24   25 1   
    58   24   28 ar  
    59   25   26 1   
    60   26   27 1   
    61   26   60 1   
    62   26   61 1   
    63   27   28 1   
    64   28   29 ar  
    65   29   30 ar  
    66   29   62 1   
    67   30   63 1   
@<TRIPOS>SUBSTRUCTURE
     1 1KV         1 TEMP              0 ****  ****    0 ROOT
