@<TRIPOS>MOLECULE
1KX
   39    42     1     0     0
SMALL
bcc


@<TRIPOS>ATOM
      1 C          -0.0600   -0.3090    0.2690 cx        1 1KX     -0.151400
      2 N           2.0740   -1.2820   -0.7280 nh        1 1KX     -0.812900
      3 O           8.2140   -7.8240   -4.9480 oh        1 1KX     -0.602800
      4 C01         5.5310   -2.2870   -1.7190 ca        1 1KX      0.491800
      5 N01         6.1510   -1.1080   -1.9890 nb        1 1KX     -0.789000
      6 C02         4.1550   -2.4160   -1.2590 ca        1 1KX     -0.261200
      7 N02         3.8350   -3.7690   -1.0650 nc        1 1KX     -0.540100
      8 C03         4.9480   -4.4390   -1.3880 cd        1 1KX      0.397700
      9 N03         6.0250   -3.6010   -1.7790 na        1 1KX     -0.264000
     10 C04         7.3120   -4.0090   -2.2700 c3        1 1KX      0.087200
     11 N04         4.0160   -0.0040   -1.3310 nb        1 1KX     -0.827000
     12 C05         7.8640   -5.2460   -1.5810 c2        1 1KX     -0.210200
     13 N05         5.8560    1.2400   -2.1620 nh        1 1KX     -0.923500
     14 C06         8.3020   -6.1520   -2.4680 c2        1 1KX     -0.136200
     15 C07         8.1060   -5.7060   -3.8890 c3        1 1KX     -0.051500
     16 C08         7.3410   -6.7290   -4.7160 c3        1 1KX      0.139400
     17 C09         7.3470   -4.3750   -3.7870 c3        1 1KX     -0.099400
     18 C10         3.4120   -1.2010   -1.0880 ca        1 1KX      0.780200
     19 C11         5.3290   -0.0080   -1.7980 ca        1 1KX      0.910900
     20 C12         1.3340   -0.1440   -0.3030 cx        1 1KX      0.167500
     21 C13         1.0530    0.1570    1.1600 cx        1 1KX     -0.151400
     22 H          -0.8350    0.4070   -0.0550 hc        1 1KX      0.075700
     23 HA         -0.4770   -1.3210    0.4210 hc        1 1KX      0.075700
     24 HN          1.7830   -2.1630   -0.3620 hn        1 1KX      0.442800
     25 H03         5.0730   -5.5280   -1.3510 h5        1 1KX      0.073800
     26 H04         8.0220   -3.1460   -2.0900 h1        1 1KX      0.095700
     27 H05         7.8970   -5.3060   -0.4920 ha        1 1KX      0.151000
     28 HN05        6.8470    1.3000   -2.2140 hn        1 1KX      0.422300
     29 HN0A        5.3940    2.0380   -1.7890 hn        1 1KX      0.422300
     30 H06         8.7700   -7.1180   -2.2630 ha        1 1KX      0.155000
     31 H07         9.1130   -5.5480   -4.3640 hc        1 1KX      0.082700
     32 H09         6.3180   -4.4700   -4.2120 hc        1 1KX      0.063200
     33 H09A        7.8780   -3.5700   -4.3510 hc        1 1KX      0.063200
     34 H12         1.5150    0.7280   -0.9730 h1        1 1KX      0.115700
     35 H13         1.0810    1.2100    1.4870 hc        1 1KX      0.075700
     36 H13A        1.4260   -0.5270    1.9430 hc        1 1KX      0.075700
     37 H16         7.7170   -8.4650   -5.4700 ho        1 1KX      0.403000
     38 H08         7.0330   -6.2740   -5.6960 h1        1 1KX      0.027700
     39 H18         6.4230   -7.0770   -4.1710 h1        1 1KX      0.027700
@<TRIPOS>BOND
     1    1   20 1   
     2    1   21 1   
     3    1   22 1   
     4    1   23 1   
     5    2   18 1   
     6    2   20 1   
     7    2   24 1   
     8    3   16 1   
     9    3   37 1   
    10    4    5 ar  
    11    4    6 ar  
    12    4    9 1   
    13    5   19 ar  
    14    6    7 1   
    15    6   18 ar  
    16    7    8 2   
    17    8    9 1   
    18    8   25 1   
    19    9   10 1   
    20   10   12 1   
    21   10   17 1   
    22   10   26 1   
    23   11   18 ar  
    24   11   19 ar  
    25   12   14 2   
    26   12   27 1   
    27   13   19 1   
    28   13   28 1   
    29   13   29 1   
    30   14   15 1   
    31   14   30 1   
    32   15   16 1   
    33   15   17 1   
    34   15   31 1   
    35   16   38 1   
    36   16   39 1   
    37   17   32 1   
    38   17   33 1   
    39   20   21 1   
    40   20   34 1   
    41   21   35 1   
    42   21   36 1   
@<TRIPOS>SUBSTRUCTURE
     1 1KX         1 TEMP              0 ****  ****    0 ROOT
