@<TRIPOS>MOLECULE
1KX
   41    44     1     0     0
SMALL
bcc


@<TRIPOS>ATOM
      1 C           0.3330   -0.7440    0.7820 cx        1 1KX     -0.089400
      2 N           1.8930   -0.7790   -1.2860 n4        1 1KX     -0.707700
      3 O           7.4800   -8.1170   -4.0460 oh        1 1KX     -0.580800
      4 C01         5.4560   -2.0100   -2.0030 ca        1 1KX      0.446800
      5 N01         6.1090   -0.8620   -2.2880 nb        1 1KX     -0.598000
      6 C02         4.0050   -2.0540   -1.6450 ca        1 1KX     -0.075200
      7 N02         3.6250   -3.3630   -1.4020 nc        1 1KX     -0.570100
      8 C03         4.7520   -4.0990   -1.5900 cd        1 1KX      0.548700
      9 N03         5.8810   -3.3430   -1.9510 na        1 1KX     -0.201000
     10 C04         7.2290   -3.8520   -2.2020 c3        1 1KX      0.069200
     11 N04         3.9740    0.3470   -1.9050 nb        1 1KX     -0.669000
     12 C05         7.5490   -5.0490   -1.3310 c2        1 1KX     -0.275200
     13 N05         5.9870    1.5480   -2.5250 n4        1 1KX     -0.808300
     14 C06         7.9560   -6.0960   -2.0680 c2        1 1KX     -0.049200
     15 C07         7.9670   -5.7980   -3.5390 c3        1 1KX     -0.106500
     16 C08         7.1140   -6.7870   -4.3320 c3        1 1KX      0.141400
     17 C09         7.4520   -4.3550   -3.6600 c3        1 1KX     -0.094400
     18 C10         3.3310   -0.8150   -1.6240 ca        1 1KX      0.564200
     19 C11         5.3100    0.2540   -2.2180 ca        1 1KX      0.703900
     20 C12         1.6590   -0.4010    0.1270 cx        1 1KX     -0.020500
     21 C13         1.5760   -1.4530    1.2150 cx        1 1KX     -0.089400
     22 H          -0.4410   -1.3050    0.2230 hc        1 1KX      0.121950
     23 HA         -0.1220    0.0320    1.4330 hc        1 1KX      0.121950
     24 HN          1.4990   -1.7180   -1.4650 hn        1 1KX      0.483800
     25 H03         4.8110   -5.2000   -1.4670 h5        1 1KX      0.140800
     26 H04         7.9350   -3.0010   -1.9730 h1        1 1KX      0.102700
     27 H05         7.4950   -4.9820   -0.2430 ha        1 1KX      0.168000
     28 HN05        5.5220    1.9950   -3.3280 hn        1 1KX      0.493800
     29 HN0A        5.9280    2.1680   -1.7050 hn        1 1KX      0.493800
     30 H06         8.2680   -7.0850   -1.7090 ha        1 1KX      0.191000
     31 H07         9.0280   -5.8580   -3.9110 hc        1 1KX      0.098700
     32 H09         8.2160   -3.7040   -4.1540 hc        1 1KX      0.072200
     33 H09A        6.5200   -4.3170   -4.2750 hc        1 1KX      0.072200
     34 H12         2.1400    0.5800    0.3440 hx        1 1KX      0.149700
     35 H13         1.6980   -2.5250    0.9630 hc        1 1KX      0.121950
     36 H13A        2.0400   -1.2100    2.1920 hc        1 1KX      0.121950
     37 H16         8.2920   -8.3140   -4.5310 ho        1 1KX      0.418000
     38 H08         6.0360   -6.7160   -4.0230 h1        1 1KX      0.053200
     39 H18         7.2010   -6.5620   -5.4280 h1        1 1KX      0.053200
     40 HN3         1.4060   -0.0940   -1.8870 hn        1 1KX      0.483800
     41 H053        6.9800    1.3810   -2.7560 hn        1 1KX      0.493800
@<TRIPOS>BOND
     1    1   20 1   
     2    1   21 1   
     3    1   22 1   
     4    1   23 1   
     5    2   18 1   
     6    2   20 1   
     7    2   24 1   
     8    2   40 1   
     9    3   16 1   
    10    3   37 1   
    11    4    5 ar  
    12    4    6 ar  
    13    4    9 1   
    14    5   19 ar  
    15    6    7 1   
    16    6   18 ar  
    17    7    8 2   
    18    8    9 1   
    19    8   25 1   
    20    9   10 1   
    21   10   12 1   
    22   10   17 1   
    23   10   26 1   
    24   11   18 ar  
    25   11   19 ar  
    26   12   14 2   
    27   12   27 1   
    28   13   19 1   
    29   13   28 1   
    30   13   29 1   
    31   13   41 1   
    32   14   15 1   
    33   14   30 1   
    34   15   16 1   
    35   15   17 1   
    36   15   31 1   
    37   16   38 1   
    38   16   39 1   
    39   17   32 1   
    40   17   33 1   
    41   20   21 1   
    42   20   34 1   
    43   21   35 1   
    44   21   36 1   
@<TRIPOS>SUBSTRUCTURE
     1 1KX         1 TEMP              0 ****  ****    0 ROOT
