@<TRIPOS>MOLECULE
1KX
   39    42     1     0     0
SMALL
bcc


@<TRIPOS>ATOM
      1 C          -5.8130    2.0690    0.5210 cx        1 1KX     -0.151400
      2 N          -3.4310    1.1710    0.4310 nh        1 1KX     -0.812900
      3 O           6.4750    1.0580    0.8090 oh        1 1KX     -0.602800
      4 C01        -0.1990   -0.5940   -0.1900 ca        1 1KX      0.491800
      5 N01        -0.5000   -1.9050   -0.0000 nb        1 1KX     -0.789000
      6 C02        -1.1540    0.5010   -0.0860 ca        1 1KX     -0.261200
      7 N02        -0.5190    1.7240   -0.3530 nc        1 1KX     -0.540100
      8 C03         0.7570    1.4050   -0.6050 cd        1 1KX      0.397700
      9 N03         1.0200    0.0120   -0.5390 na        1 1KX     -0.264000
     10 C04         2.2940   -0.6410   -0.6650 c3        1 1KX      0.087200
     11 N04        -2.8390   -1.1570    0.4190 nb        1 1KX     -0.827000
     12 C05         3.2060   -0.0040   -1.7000 c2        1 1KX     -0.210200
     13 N05        -2.2000   -3.4290    0.6480 nh        1 1KX     -0.923500
     14 C06         4.4370    0.2070   -1.2110 c2        1 1KX     -0.136200
     15 C07         4.5660   -0.2200    0.2230 c3        1 1KX     -0.051500
     16 C08         5.0980    0.8930    1.1140 c3        1 1KX      0.139400
     17 C09         3.1530   -0.6550    0.6390 c3        1 1KX     -0.099400
     18 C10        -2.5060    0.1530    0.2440 ca        1 1KX      0.780200
     19 C11        -1.8300   -2.1140    0.3250 ca        1 1KX      0.910900
     20 C12        -4.8270    0.9180    0.5190 cx        1 1KX      0.167500
     21 C13        -5.7780    1.1300   -0.6480 cx        1 1KX     -0.151400
     22 H          -6.6560    2.0220    1.2330 hc        1 1KX      0.075700
     23 HA         -5.4530    3.1040    0.3840 hc        1 1KX      0.075700
     24 HN         -3.1620    2.0630    0.0720 hn        1 1KX      0.442800
     25 H03         1.5550    2.1120   -0.8610 h5        1 1KX      0.073800
     26 H04         2.0870   -1.7100   -0.9730 h1        1 1KX      0.094700
     27 H05         2.8440    0.1990   -2.7080 ha        1 1KX      0.151000
     28 HN05       -1.5980   -4.1470    0.3150 hn        1 1KX      0.422300
     29 HN0A       -3.1730   -3.6310    0.6190 hn        1 1KX      0.422300
     30 H06         5.3030    0.6240   -1.7320 ha        1 1KX      0.155000
     31 H07         5.2770   -1.0910    0.2820 hc        1 1KX      0.082700
     32 H09         2.7360    0.0340    1.4140 hc        1 1KX      0.063200
     33 H09A        3.1630   -1.6860    1.0660 hc        1 1KX      0.063200
     34 H12        -5.0400    0.0580    1.1950 h1        1 1KX      0.115700
     35 H13        -6.5980    0.4050   -0.7860 hc        1 1KX      0.075700
     36 H13A       -5.3900    1.5000   -1.6130 hc        1 1KX      0.075700
     37 H16         6.7980    1.7670    1.3770 ho        1 1KX      0.403000
     38 H08         4.9790    0.6070    2.1950 h1        1 1KX      0.027700
     39 H18         4.5450    1.8520    0.9270 h1        1 1KX      0.027700
@<TRIPOS>BOND
     1    1   20 1   
     2    1   21 1   
     3    1   22 1   
     4    1   23 1   
     5    2   18 1   
     6    2   20 1   
     7    2   24 1   
     8    3   16 1   
     9    3   37 1   
    10    4    5 ar  
    11    4    6 ar  
    12    4    9 1   
    13    5   19 ar  
    14    6    7 1   
    15    6   18 ar  
    16    7    8 2   
    17    8    9 1   
    18    8   25 1   
    19    9   10 1   
    20   10   12 1   
    21   10   17 1   
    22   10   26 1   
    23   11   18 ar  
    24   11   19 ar  
    25   12   14 2   
    26   12   27 1   
    27   13   19 1   
    28   13   28 1   
    29   13   29 1   
    30   14   15 1   
    31   14   30 1   
    32   15   16 1   
    33   15   17 1   
    34   15   31 1   
    35   16   38 1   
    36   16   39 1   
    37   17   32 1   
    38   17   33 1   
    39   20   21 1   
    40   20   34 1   
    41   21   35 1   
    42   21   36 1   
@<TRIPOS>SUBSTRUCTURE
     1 1KX         1 TEMP              0 ****  ****    0 ROOT
