@<TRIPOS>MOLECULE
1KX
   39    42     1     0     0
SMALL
bcc


@<TRIPOS>ATOM
      1 C          -0.0680   -0.2830    0.2550 cx        1 1KX     -0.151400
      2 N           2.0620   -1.2710   -0.7340 nu        1 1KX     -0.812900
      3 O           8.1580   -7.8450   -4.9670 oh        1 1KX     -0.602800
      4 C01         5.5150   -2.3050   -1.7090 ca        1 1KX      0.491800
      5 N01         6.1490   -1.1310   -1.9640 nb        1 1KX     -0.789000
      6 C02         4.1340   -2.4230   -1.2610 ca        1 1KX     -0.261200
      7 N02         3.7980   -3.7740   -1.0810 nc        1 1KX     -0.540100
      8 C03         4.9060   -4.4540   -1.4020 cd        1 1KX      0.397700
      9 N03         5.9950   -3.6240   -1.7780 na        1 1KX     -0.264000
     10 C04         7.2810   -4.0420   -2.2630 c3        1 1KX      0.087200
     11 N04         4.0220   -0.0090   -1.3130 nb        1 1KX     -0.827000
     12 C05         7.8150   -5.2900   -1.5810 c2        1 1KX     -0.210200
     13 N05         5.8820    1.2220   -2.1190 nv        1 1KX     -0.923500
     14 C06         8.2480   -6.1940   -2.4720 c2        1 1KX     -0.136200
     15 C07         8.0670   -5.7350   -3.8910 c3        1 1KX     -0.051500
     16 C08         7.2960   -6.7420   -4.7320 c3        1 1KX      0.139400
     17 C09         7.3220   -4.3950   -3.7840 c3        1 1KX     -0.099400
     18 C10         3.4040   -1.2010   -1.0840 ca        1 1KX      0.780200
     19 C11         5.3390   -0.0240   -1.7700 ca        1 1KX      0.910900
     20 C12         1.3320   -0.1290   -0.3050 cx        1 1KX      0.167500
     21 C13         1.0430    0.1630    1.1580 cx        1 1KX     -0.151400
     22 H          -0.8330    0.4450   -0.0680 hc        1 1KX      0.075700
     23 HA         -0.4970   -1.2920    0.3960 hc        1 1KX      0.075700
     24 HN          1.7590   -2.1520   -0.3780 hn        1 1KX      0.442800
     25 H03         5.0190   -5.5440   -1.3730 h5        1 1KX      0.073800
     26 H04         7.9990   -3.1890   -2.0710 h1        1 1KX      0.095700
     27 H05         7.8390   -5.3600   -0.4930 ha        1 1KX      0.151000
     28 HN05        5.4260    2.0210   -1.7420 hn        1 1KX      0.422300
     29 HN0A        6.8740    1.2710   -2.1640 hn        1 1KX      0.422300
     30 H06         8.7050   -7.1670   -2.2720 ha        1 1KX      0.155000
     31 H07         9.0790   -5.5840   -4.3580 hc        1 1KX      0.082700
     32 H09         6.2950   -4.4750   -4.2160 hc        1 1KX      0.063200
     33 H09A        7.8660   -3.5930   -4.3370 hc        1 1KX      0.063200
     34 H12         1.5270    0.7470   -0.9670 h1        1 1KX      0.115700
     35 H13         1.0810    1.2130    1.4950 hc        1 1KX      0.075700
     36 H13A        1.4030   -0.5310    1.9380 hc        1 1KX      0.075700
     37 H16         7.6580   -8.4760   -5.4970 ho        1 1KX      0.403000
     38 H08         6.3710   -7.0840   -4.1960 h1        1 1KX      0.027700
     39 H18         7.0000   -6.2750   -5.7110 h1        1 1KX      0.027700
@<TRIPOS>BOND
     1    1   20 1   
     2    1   21 1   
     3    1   22 1   
     4    1   23 1   
     5    2   18 1   
     6    2   20 1   
     7    2   24 1   
     8    3   16 1   
     9    3   37 1   
    10    4    5 ar  
    11    4    6 ar  
    12    4    9 1   
    13    5   19 ar  
    14    6    7 1   
    15    6   18 ar  
    16    7    8 2   
    17    8    9 1   
    18    8   25 1   
    19    9   10 1   
    20   10   12 1   
    21   10   17 1   
    22   10   26 1   
    23   11   18 ar  
    24   11   19 ar  
    25   12   14 2   
    26   12   27 1   
    27   13   19 1   
    28   13   28 1   
    29   13   29 1   
    30   14   15 1   
    31   14   30 1   
    32   15   16 1   
    33   15   17 1   
    34   15   31 1   
    35   16   38 1   
    36   16   39 1   
    37   17   32 1   
    38   17   33 1   
    39   20   21 1   
    40   20   34 1   
    41   21   35 1   
    42   21   36 1   
@<TRIPOS>SUBSTRUCTURE
     1 1KX         1 TEMP              0 ****  ****    0 ROOT
