@<TRIPOS>MOLECULE
1KX
   39    34     1     0     0
SMALL
bcc


@<TRIPOS>ATOM
      1 C          -5.4080   -1.5130    1.9220 cx        1 1KX     -0.230000
      2 N          -2.9560   -1.5900    1.4030 n3        1 1KX     -0.257000
      3 O           3.9130    3.8220   -2.4330 oh        1 1KX     -0.330000
      4 C01         0.2590   -0.3170    0.0780 c1        1 1KX      0.100000
      5 N01         0.8070    0.1870    1.2240 n1        1 1KX     -0.263000
      6 C02        -0.9820   -0.8570    0.1030 c1        1 1KX     -0.270000
      7 N02        -1.2510   -1.3530   -1.1390 n1        1 1KX     -0.147000
      8 C03        -0.1710   -1.1170   -1.9280 c1        1 1KX     -0.058000
      9 N03         0.7630   -0.4780   -1.1810 n1        1 1KX     -0.147000
     10 C04         1.7990   -0.6210   -2.0540 c2        1 1KX      0.063000
     11 N04        -1.1550   -0.4000    2.4240 n1        1 1KX     -0.301000
     12 C05         1.5360    0.1930   -3.0180 c2        1 1KX     -0.206000
     13 N05         0.6670    0.6040    3.6290 n3        1 1KX     -0.321000
     14 C06         2.6560    1.1630   -3.3510 c1        1 1KX     -0.132000
     15 C07         3.4650    1.4280   -2.3410 c2        1 1KX     -0.095000
     16 C08         3.2930    2.8220   -1.6450 c3        1 1KX     -0.011000
     17 C09         3.0770    0.1270   -1.3240 c3        1 1KX     -0.178000
     18 C10        -1.6980   -0.8970    1.2960 c1        1 1KX      0.259000
     19 C11         0.1010    0.1460    2.3970 c1        1 1KX      0.192000
     20 C12        -3.9930   -1.0720    2.2590 cx        1 1KX     -0.030000
     21 C13        -4.6990   -2.0970    3.1330 cx        1 1KX     -0.230000
     22 H          -6.1160   -0.8600    2.1160 hc        1 1KX      0.115000
     23 HA         -5.4950   -2.1120    1.1500 hc        1 1KX      0.115000
     24 HN         -3.1080   -2.3410    0.9010 hn        1 1KX      0.238000
     25 H03        -0.0650   -1.4060   -2.8610 DU        1 1KX      0.203000
     26 H04         1.8320   -1.5900   -2.2260 ha        1 1KX      0.134000
     27 H05         0.8820   -0.0580   -3.7090 ha        1 1KX      0.151000
     28 HN05        0.1880    0.5340    4.4080 hn        1 1KX      0.217500
     29 HN0A        1.5010    0.9850    3.6370 hn        1 1KX      0.217500
     30 H06         2.5380    1.8210   -4.0710 ha        1 1KX      0.155000
     31 H07         4.4290    1.4510   -2.5360 ha        1 1KX      0.122000
     32 H09         3.8390   -0.4900   -1.2540 hc        1 1KX      0.102500
     33 H09A        2.8190    0.4540   -0.4360 hc        1 1KX      0.102500
     34 H12        -3.9070   -0.1730    2.6430 h1        1 1KX      0.155000
     35 H13        -5.0090   -1.7710    4.0070 hc        1 1KX      0.115000
     36 H13A       -4.3890   -3.0230    3.0400 hc        1 1KX      0.115000
     37 H16         3.9860    4.5730   -1.9560 ho        1 1KX      0.202000
     38 H08         3.7110    2.7980   -0.7560 h1        1 1KX      0.067000
     39 H18         2.3370    3.0250   -1.5510 h1        1 1KX      0.067000
@<TRIPOS>BOND
     1    1   20 1   
     2    1   21 1   
     3    1   22 1   
     4    1   23 1   
     5    2   18 1   
     6    2   20 1   
     7    2   24 1   
     8    3   16 1   
     9    3   37 1   
    10    4    5 1   
    11    6   18 1   
    12    7    8 1   
    13    8    9 1   
    14   10   12 1   
    15   10   17 1   
    16   10   26 1   
    17   11   19 1   
    18   12   14 1   
    19   12   27 1   
    20   13   19 1   
    21   13   28 1   
    22   13   29 1   
    23   14   30 1   
    24   15   16 1   
    25   15   17 1   
    26   15   31 1   
    27   16   38 1   
    28   16   39 1   
    29   17   32 1   
    30   17   33 1   
    31   20   21 1   
    32   20   34 1   
    33   21   35 1   
    34   21   36 1   
@<TRIPOS>SUBSTRUCTURE
     1 1KX         1 TEMP              0 ****  ****    0 ROOT
