@<TRIPOS>MOLECULE
1KY
   63    67     1     0     0
SMALL
bcc


@<TRIPOS>ATOM
      1 C           0.0330   -0.9290   -0.3200 c         1 1KY      0.694500
      2 N           1.4530   -0.1350    1.5470 n3        1 1KY     -0.816500
      3 O          -0.1060   -0.9990   -1.5540 o         1 1KY     -0.627500
      4 CA          1.4590   -0.8140    0.2720 c3        1 1KY      0.186500
      5 CB          2.0300   -2.2400    0.3770 c3        1 1KY     -0.086400
      6 CAA        -4.4190    7.0490    2.0980 c3        1 1KY      0.111700
      7 CAB         0.5870    5.4110    0.7100 c3        1 1KY      0.102700
      8 OAD         9.6650   -0.4870    1.2980 o         1 1KY     -0.558500
      9 OAE         1.6820    2.3250    1.1260 o         1 1KY     -0.655300
     10 OAF         2.2020    1.4540    3.2930 o         1 1KY     -0.655300
     11 CAG        -3.8880    3.1060    0.7520 ca        1 1KY     -0.194000
     12 CAH        -4.0910    4.4060    1.2240 ca        1 1KY     -0.158000
     13 CAI         4.1920    1.3610    0.0860 ca        1 1KY      0.014000
     14 CAJ         5.4950    1.1870   -0.3580 ca        1 1KY     -0.179000
     15 CAK        -1.4960    3.5610    0.5260 ca        1 1KY     -0.198000
     16 CAL         4.7300    0.4390    2.2560 ca        1 1KY      0.059000
     17 CAM         1.3160   -3.0530    1.4370 c3        1 1KY     -0.079400
     18 CAN        -3.1260    0.3840    0.3560 c3        1 1KY      0.102400
     19 CAO         1.1060   -2.2810    2.7230 c3        1 1KY     -0.085400
     20 CAQ        -2.3890   -0.9290    0.0520 c3        1 1KY      0.080000
     21 CAR        -0.8700   -0.8550    1.9800 c3        1 1KY      0.079000
     22 NAS         7.7740    0.3690    0.2620 n         1 1KY     -0.465100
     23 OAT        -3.1090    6.5890    1.7920 os        1 1KY     -0.303900
     24 OAU        -0.7150    5.8010    1.1440 os        1 1KY     -0.307900
     25 OAV        -2.3170    1.4530   -0.1380 os        1 1KY     -0.325900
     26 SAW         7.3560   -0.3980    2.7160 ss        1 1KY     -0.041500
     27 CAY        -2.6010    2.6980    0.4050 ca        1 1KY      0.108100
     28 CAZ         3.7880    0.9910    1.3790 ca        1 1KY     -0.411500
     29 CBA        -3.0190    5.2870    1.3380 ca        1 1KY      0.076100
     30 CBB        -1.7070    4.8590    0.9830 ca        1 1KY      0.134100
     31 CBC         8.4660   -0.1970    1.3510 c         1 1KY      0.693100
     32 CBD         6.4330    0.6230    0.5230 ca        1 1KY      0.109600
     33 CBE         6.0390    0.2490    1.8470 ca        1 1KY     -0.122100
     34 CBF         0.6030   -0.8480    2.4830 c3        1 1KY      0.227500
     35 NBH        -1.0410   -1.0460    0.5570 n         1 1KY     -0.446800
     36 SBJ         2.2070    1.2660    1.8940 sy        1 1KY      1.528200
     37 HA          2.0730   -0.2180   -0.4670 h1        1 1KY      0.084700
     38 HB          3.1240   -2.1770    0.6150 hc        1 1KY      0.061200
     39 HBA         1.9230   -2.7330   -0.6240 hc        1 1KY      0.061200
     40 HAA        -4.8610    6.4580    2.9370 h1        1 1KY      0.041367
     41 HAAA       -5.0790    7.0000    1.1980 h1        1 1KY      0.041367
     42 HAAB       -4.2550    8.1110    2.4090 h1        1 1KY      0.041367
     43 HAB         1.2100    6.3120    0.9380 h1        1 1KY      0.052700
     44 HABA        0.5850    5.1970   -0.3860 h1        1 1KY      0.052700
     45 HABB        0.9500    4.5200    1.2800 h1        1 1KY      0.052700
     46 HAG        -4.7410    2.4220    0.6540 ha        1 1KY      0.135000
     47 HAH        -5.1080    4.7220    1.4960 ha        1 1KY      0.138000
     48 HAI         3.4500    1.8230   -0.5930 ha        1 1KY      0.164000
     49 HAJ         5.7870    1.4870   -1.3750 ha        1 1KY      0.155000
     50 HAK        -0.4900    3.1950    0.2630 ha        1 1KY      0.182000
     51 HAL         4.4250    0.1730    3.2850 ha        1 1KY      0.166000
     52 HAM         1.9120   -3.9780    1.6550 hc        1 1KY      0.051700
     53 HAMA        0.3220   -3.3890    1.0380 hc        1 1KY      0.051700
     54 HAN        -4.1040    0.3840   -0.1960 h1        1 1KY      0.042700
     55 HANA       -3.3200    0.5090    1.4530 h1        1 1KY      0.042700
     56 HAO         0.3620   -2.8160    3.3690 hc        1 1KY      0.051200
     57 HAOA        2.0710   -2.2320    3.2930 hc        1 1KY      0.051200
     58 HAQ        -3.0030   -1.7590    0.5050 h1        1 1KY      0.074700
     59 HAQA       -2.3570   -1.0660   -1.0680 h1        1 1KY      0.074700
     60 HAR        -1.3410    0.1250    2.2860 h1        1 1KY      0.049700
     61 HARA       -1.4190   -1.6850    2.5100 h1        1 1KY      0.049700
     62 HNAS        8.2070    0.5790   -0.6060 hn        1 1KY      0.354500
     63 HBF         0.6120   -0.3020    3.4750 h1        1 1KY      0.091700
@<TRIPOS>BOND
     1    1    3 2   
     2    1    4 1   
     3    1   35 1   
     4    2    4 1   
     5    2   34 1   
     6    2   36 1   
     7    4    5 1   
     8    4   37 1   
     9    5   17 1   
    10    5   38 1   
    11    5   39 1   
    12    6   23 1   
    13    6   40 1   
    14    6   41 1   
    15    6   42 1   
    16    7   24 1   
    17    7   43 1   
    18    7   44 1   
    19    7   45 1   
    20    8   31 2   
    21    9   36 2   
    22   10   36 2   
    23   11   12 ar  
    24   11   27 ar  
    25   11   46 1   
    26   12   29 ar  
    27   12   47 1   
    28   13   14 ar  
    29   13   28 ar  
    30   13   48 1   
    31   14   32 ar  
    32   14   49 1   
    33   15   27 ar  
    34   15   30 ar  
    35   15   50 1   
    36   16   28 ar  
    37   16   33 ar  
    38   16   51 1   
    39   17   19 1   
    40   17   52 1   
    41   17   53 1   
    42   18   20 1   
    43   18   25 1   
    44   18   54 1   
    45   18   55 1   
    46   19   34 1   
    47   19   56 1   
    48   19   57 1   
    49   20   35 1   
    50   20   58 1   
    51   20   59 1   
    52   21   34 1   
    53   21   35 1   
    54   21   60 1   
    55   21   61 1   
    56   22   31 1   
    57   22   32 1   
    58   22   62 1   
    59   23   29 1   
    60   24   30 1   
    61   25   27 1   
    62   26   31 1   
    63   26   33 1   
    64   28   36 1   
    65   29   30 ar  
    66   32   33 ar  
    67   34   63 1   
@<TRIPOS>SUBSTRUCTURE
     1 1KY         1 TEMP              0 ****  ****    0 ROOT
