@<TRIPOS>MOLECULE
1KY
   63    67     1     0     0
SMALL
bcc


@<TRIPOS>ATOM
      1 C           0.0220   -0.9410   -0.2960 c         1 1KY      0.694500
      2 N           1.4540   -0.1320    1.5560 n3        1 1KY     -0.816500
      3 O          -0.1220   -1.0230   -1.5290 o         1 1KY     -0.627500
      4 CA          1.4520   -0.8240    0.2880 c3        1 1KY      0.186500
      5 CB          2.0210   -2.2500    0.4040 c3        1 1KY     -0.086400
      6 CAA        -4.4040    7.0670    2.0720 c3        1 1KY      0.111700
      7 CAB         0.5930    5.4080    0.6770 c3        1 1KY      0.102700
      8 OAD         9.6630   -0.5020    1.2530 o         1 1KY     -0.558500
      9 OAE         1.6840    2.3240    1.1130 o         1 1KY     -0.655300
     10 OAF         2.2170    1.4700    3.2840 o         1 1KY     -0.655300
     11 CAG        -3.8850    3.1110    0.7590 ca        1 1KY     -0.194000
     12 CAH        -4.0850    4.4160    1.2200 ca        1 1KY     -0.158000
     13 CAI         4.1850    1.3470    0.0640 ca        1 1KY      0.014000
     14 CAJ         5.4850    1.1660   -0.3880 ca        1 1KY     -0.179000
     15 CAK        -1.4940    3.5600    0.5190 ca        1 1KY     -0.198000
     16 CAL         4.7370    0.4420    2.2380 ca        1 1KY      0.059000
     17 CAM         1.3090   -3.0510    1.4750 c3        1 1KY     -0.079400
     18 CAN        -3.1310    0.3850    0.3840 c3        1 1KY      0.102400
     19 CAO         1.1070   -2.2660    2.7550 c3        1 1KY     -0.085400
     20 CAQ        -2.3970   -0.9320    0.0880 c3        1 1KY      0.080000
     21 CAR        -0.8680   -0.8430    2.0080 c3        1 1KY      0.079000
     22 NAS         7.7660    0.3490    0.2230 ns        1 1KY     -0.465100
     23 OAT        -3.0960    6.6020    1.7650 os        1 1KY     -0.303900
     24 OAU        -0.7060    5.8030    1.1130 os        1 1KY     -0.307900
     25 OAV        -2.3210    1.4480   -0.1230 os        1 1KY     -0.325900
     26 SAW         7.3640   -0.3970    2.6860 ss        1 1KY     -0.041500
     27 CAY        -2.6010    2.6980    0.4100 ca        1 1KY      0.108100
     28 CAZ         3.7900    0.9880    1.3620 ca        1 1KY     -0.411500
     29 CBA        -3.0100    5.2960    1.3220 ca        1 1KY      0.076100
     30 CBB        -1.7010    4.8630    0.9650 ca        1 1KY      0.134100
     31 CBC         8.4650   -0.2090    1.3120 c         1 1KY      0.693100
     32 CBD         6.4280    0.6080    0.4910 ca        1 1KY      0.109600
     33 CBE         6.0430    0.2450    1.8210 ca        1 1KY     -0.122100
     34 CBF         0.6070   -0.8340    2.5030 c3        1 1KY      0.227500
     35 NBH        -1.0470   -1.0470    0.5880 n         1 1KY     -0.446800
     36 SBJ         2.2130    1.2700    1.8870 sy        1 1KY      1.528200
     37 HA          2.0640   -0.2370   -0.4600 h1        1 1KY      0.084700
     38 HB          3.1150   -2.1880    0.6360 hc        1 1KY      0.061200
     39 HBA         1.9070   -2.7530   -0.5920 hc        1 1KY      0.061200
     40 HAA        -4.2370    8.1320    2.3730 h1        1 1KY      0.041367
     41 HAAA       -5.0680    7.0110    1.1750 h1        1 1KY      0.041367
     42 HAAB       -4.8430    6.4840    2.9180 h1        1 1KY      0.041367
     43 HAB         0.5860    5.1850   -0.4170 h1        1 1KY      0.052700
     44 HABA        0.9570    4.5210    1.2530 h1        1 1KY      0.052700
     45 HABB        1.2190    6.3100    0.8950 h1        1 1KY      0.052700
     46 HAG        -4.7400    2.4280    0.6710 ha        1 1KY      0.135000
     47 HAH        -5.1000    4.7370    1.4940 ha        1 1KY      0.138000
     48 HAI         3.4390    1.8040   -0.6140 ha        1 1KY      0.164000
     49 HAJ         5.7700    1.4580   -1.4090 ha        1 1KY      0.155000
     50 HAK        -0.4900    3.1900    0.2540 ha        1 1KY      0.182000
     51 HAL         4.4390    0.1850    3.2710 ha        1 1KY      0.166000
     52 HAM         0.3120   -3.3880    1.0850 hc        1 1KY      0.051700
     53 HAMA        1.9040   -3.9750    1.6990 hc        1 1KY      0.051700
     54 HAN        -4.1110    0.3820   -0.1640 h1        1 1KY      0.042700
     55 HANA       -3.3190    0.5190    1.4800 h1        1 1KY      0.042700
     56 HAO         0.3650   -2.7920    3.4090 hc        1 1KY      0.051200
     57 HAOA        2.0750   -2.2140    3.3200 hc        1 1KY      0.051200
     58 HAQ        -3.0100   -1.7570    0.5510 h1        1 1KY      0.074700
     59 HAQA       -2.3710   -1.0790   -1.0310 h1        1 1KY      0.074700
     60 HAR        -1.4170   -1.6660    2.5480 h1        1 1KY      0.049700
     61 HARA       -1.3360    0.1420    2.3060 h1        1 1KY      0.049700
     62 HNAS        8.1930    0.5510   -0.6490 hn        1 1KY      0.354500
     63 HBF         0.6220   -0.2780    3.4900 h1        1 1KY      0.091700
@<TRIPOS>BOND
     1    1    3 2   
     2    1    4 1   
     3    1   35 1   
     4    2    4 1   
     5    2   34 1   
     6    2   36 1   
     7    4    5 1   
     8    4   37 1   
     9    5   17 1   
    10    5   38 1   
    11    5   39 1   
    12    6   23 1   
    13    6   40 1   
    14    6   41 1   
    15    6   42 1   
    16    7   24 1   
    17    7   43 1   
    18    7   44 1   
    19    7   45 1   
    20    8   31 2   
    21    9   36 2   
    22   10   36 2   
    23   11   12 ar  
    24   11   27 ar  
    25   11   46 1   
    26   12   29 ar  
    27   12   47 1   
    28   13   14 ar  
    29   13   28 ar  
    30   13   48 1   
    31   14   32 ar  
    32   14   49 1   
    33   15   27 ar  
    34   15   30 ar  
    35   15   50 1   
    36   16   28 ar  
    37   16   33 ar  
    38   16   51 1   
    39   17   19 1   
    40   17   52 1   
    41   17   53 1   
    42   18   20 1   
    43   18   25 1   
    44   18   54 1   
    45   18   55 1   
    46   19   34 1   
    47   19   56 1   
    48   19   57 1   
    49   20   35 1   
    50   20   58 1   
    51   20   59 1   
    52   21   34 1   
    53   21   35 1   
    54   21   60 1   
    55   21   61 1   
    56   22   31 1   
    57   22   32 1   
    58   22   62 1   
    59   23   29 1   
    60   24   30 1   
    61   25   27 1   
    62   26   31 1   
    63   26   33 1   
    64   28   36 1   
    65   29   30 ar  
    66   32   33 ar  
    67   34   63 1   
@<TRIPOS>SUBSTRUCTURE
     1 1KY         1 TEMP              0 ****  ****    0 ROOT
