@<TRIPOS>MOLECULE
1KY
   63    67     1     0     0
SMALL
bcc


@<TRIPOS>ATOM
      1 C          -0.4490    2.5830    1.4150 c         1 1KY      0.694500
      2 N           0.6240    1.0820   -0.2370 n3        1 1KY     -0.816500
      3 O          -0.6960    2.7870    2.6170 o         1 1KY     -0.627500
      4 CA          0.7970    1.7460    1.0340 c3        1 1KY      0.186500
      5 CB          2.0070    2.6980    1.0300 c3        1 1KY     -0.086400
      6 CAA        -7.9040   -2.3090   -1.7170 c3        1 1KY      0.111700
      7 CAB        -2.9740   -3.2610    0.3960 c3        1 1KY      0.102700
      8 OAD         7.8190   -2.6310    1.2010 o         1 1KY     -0.558500
      9 OAE        -0.4520   -1.1420    0.1800 o         1 1KY     -0.655300
     10 OAF         0.7110   -0.7720   -1.8770 o         1 1KY     -0.655300
     11 CAG        -5.6720    0.9370   -0.2610 ca        1 1KY     -0.194000
     12 CAH        -6.4280   -0.1210   -0.7730 ca        1 1KY     -0.158000
     13 CAI         2.0430   -1.4750    1.5850 ca        1 1KY      0.014000
     14 CAJ         3.1900   -1.9370    2.2150 ca        1 1KY     -0.179000
     15 CAK        -3.8720   -0.6190    0.3010 ca        1 1KY     -0.198000
     16 CAL         3.2480   -1.0700   -0.4730 ca        1 1KY      0.059000
     17 CAM         1.9350    3.6920   -0.1120 c3        1 1KY     -0.079400
     18 CAN        -3.7230    2.9520    0.2730 c3        1 1KY      0.102400
     19 CAO         1.5420    3.0460   -1.4250 c3        1 1KY     -0.085400
     20 CAQ        -2.4800    3.7490    0.6970 c3        1 1KY      0.080000
     21 CAR        -0.9580    2.8220   -0.9930 c3        1 1KY      0.079000
     22 NAS         5.6340   -2.3830    1.9420 n         1 1KY     -0.465100
     23 OAT        -6.5900   -2.5350   -1.2210 os        1 1KY     -0.303900
     24 OAU        -4.2280   -2.9860   -0.2250 os        1 1KY     -0.307900
     25 OAV        -3.6220    1.6560    0.8660 os        1 1KY     -0.325900
     26 SAW         5.9780   -1.6600   -0.5370 ss        1 1KY     -0.041500
     27 CAY        -4.4100    0.6810    0.2720 ca        1 1KY      0.108100
     28 CAZ         2.0500   -1.0330    0.2520 ca        1 1KY     -0.411500
     29 CBA        -5.9280   -1.4200   -0.7430 ca        1 1KY      0.076100
     30 CBB        -4.6360   -1.6710   -0.1980 ca        1 1KY      0.134100
     31 CBC         6.6520   -2.2980    0.9720 c         1 1KY      0.693100
     32 CBD         4.3910   -1.9610    1.4860 ca        1 1KY      0.109600
     33 CBE         4.4130   -1.5230    0.1240 ca        1 1KY     -0.122100
     34 CBF         0.3690    2.0620   -1.2770 c3        1 1KY      0.227500
     35 NBH        -1.1980    3.1590    0.3930 n         1 1KY     -0.446800
     36 SBJ         0.6240   -0.5260   -0.4900 sy        1 1KY      1.528200
     37 HA          0.9330    0.9720    1.8460 h1        1 1KY      0.084700
     38 HB          2.0270    3.2410    2.0110 hc        1 1KY      0.061200
     39 HBA         2.9470    2.0930    0.9510 hc        1 1KY      0.061200
     40 HAA        -8.5640   -1.8880   -0.9200 h1        1 1KY      0.041367
     41 HAAA       -7.8810   -1.6300   -2.6040 h1        1 1KY      0.041367
     42 HAAB       -8.2480   -3.3330   -2.0140 h1        1 1KY      0.041367
     43 HAB        -2.1470   -2.6990   -0.1050 h1        1 1KY      0.052700
     44 HABA       -3.0140   -3.0080    1.4830 h1        1 1KY      0.052700
     45 HABB       -2.8550   -4.3640    0.2490 h1        1 1KY      0.052700
     46 HAG        -6.0800    1.9570   -0.2790 ha        1 1KY      0.135000
     47 HAH        -7.4230    0.0870   -1.1920 ha        1 1KY      0.138000
     48 HAI         1.0870   -1.4700    2.1430 ha        1 1KY      0.164000
     49 HAJ         3.1570   -2.2800    3.2590 ha        1 1KY      0.155000
     50 HAK        -2.8620   -0.7790    0.7110 ha        1 1KY      0.182000
     51 HAL         3.2540   -0.7510   -1.5310 ha        1 1KY      0.166000
     52 HAM         1.1950    4.4960    0.1430 hc        1 1KY      0.051700
     53 HAMA        2.9340    4.1900   -0.2300 hc        1 1KY      0.051700
     54 HAN        -4.6350    3.4660    0.6780 h1        1 1KY      0.042700
     55 HANA       -3.8070    2.8730   -0.8410 h1        1 1KY      0.042700
     56 HAO         1.2520    3.8370   -2.1640 hc        1 1KY      0.051200
     57 HAOA        2.4220    2.4950   -1.8500 hc        1 1KY      0.051200
     58 HAQ        -2.5370    4.7450    0.1700 h1        1 1KY      0.074700
     59 HAQA       -2.5330    3.9210    1.8120 h1        1 1KY      0.074700
     60 HAR        -0.9500    3.7810   -1.5850 h1        1 1KY      0.049700
     61 HARA       -1.8080    2.1840   -1.3750 h1        1 1KY      0.049700
     62 HNAS        5.7870   -2.7260    2.8600 hn        1 1KY      0.354500
     63 HBF         0.2380    1.5230   -2.2640 h1        1 1KY      0.091700
@<TRIPOS>BOND
     1    1    3 2   
     2    1    4 1   
     3    1   35 1   
     4    2    4 1   
     5    2   34 1   
     6    2   36 1   
     7    4    5 1   
     8    4   37 1   
     9    5   17 1   
    10    5   38 1   
    11    5   39 1   
    12    6   23 1   
    13    6   40 1   
    14    6   41 1   
    15    6   42 1   
    16    7   24 1   
    17    7   43 1   
    18    7   44 1   
    19    7   45 1   
    20    8   31 2   
    21    9   36 2   
    22   10   36 2   
    23   11   12 ar  
    24   11   27 ar  
    25   11   46 1   
    26   12   29 ar  
    27   12   47 1   
    28   13   14 ar  
    29   13   28 ar  
    30   13   48 1   
    31   14   32 ar  
    32   14   49 1   
    33   15   27 ar  
    34   15   30 ar  
    35   15   50 1   
    36   16   28 ar  
    37   16   33 ar  
    38   16   51 1   
    39   17   19 1   
    40   17   52 1   
    41   17   53 1   
    42   18   20 1   
    43   18   25 1   
    44   18   54 1   
    45   18   55 1   
    46   19   34 1   
    47   19   56 1   
    48   19   57 1   
    49   20   35 1   
    50   20   58 1   
    51   20   59 1   
    52   21   34 1   
    53   21   35 1   
    54   21   60 1   
    55   21   61 1   
    56   22   31 1   
    57   22   32 1   
    58   22   62 1   
    59   23   29 1   
    60   24   30 1   
    61   25   27 1   
    62   26   31 1   
    63   26   33 1   
    64   28   36 1   
    65   29   30 ar  
    66   32   33 ar  
    67   34   63 1   
@<TRIPOS>SUBSTRUCTURE
     1 1KY         1 TEMP              0 ****  ****    0 ROOT
