@<TRIPOS>MOLECULE
1KY
   63    67     1     0     0
SMALL
bcc


@<TRIPOS>ATOM
      1 C           0.0170   -0.9370   -0.3020 c         1 1KY      0.694500
      2 N           1.4550   -0.1310    1.5460 n3        1 1KY     -0.816500
      3 O          -0.1330   -1.0150   -1.5350 o         1 1KY     -0.627500
      4 CA          1.4490   -0.8180    0.2750 c3        1 1KY      0.186500
      5 CB          2.0210   -2.2430    0.3840 c3        1 1KY     -0.086400
      6 CAA        -4.4020    7.0590    2.1060 c3        1 1KY      0.111700
      7 CAB         0.5870    5.4090    0.6690 c3        1 1KY      0.102700
      8 OAD         9.6650   -0.4950    1.2540 o         1 1KY     -0.558500
      9 OAE         1.6840    2.3250    1.1030 o         1 1KY     -0.655300
     10 OAF         2.2150    1.4730    3.2740 o         1 1KY     -0.655300
     11 CAG        -3.8890    3.1070    0.7800 ca        1 1KY     -0.194000
     12 CAH        -4.0860    4.4110    1.2440 ca        1 1KY     -0.158000
     13 CAI         4.1870    1.3490    0.0570 ca        1 1KY      0.014000
     14 CAJ         5.4870    1.1690   -0.3930 ca        1 1KY     -0.179000
     15 CAK        -1.5000    3.5590    0.5230 ca        1 1KY     -0.198000
     16 CAL         4.7370    0.4460    2.2320 ca        1 1KY      0.059000
     17 CAM         1.3160   -3.0490    1.4560 c3        1 1KY     -0.079400
     18 CAN        -3.1340    0.3830    0.3940 c3        1 1KY      0.102400
     19 CAO         1.1180   -2.2690    2.7400 c3        1 1KY     -0.085400
     20 CAQ        -2.4010   -0.9330    0.0920 c3        1 1KY      0.080000
     21 CAR        -0.8640   -0.8480    2.0060 c3        1 1KY      0.079000
     22 NAS         7.7690    0.3540    0.2210 n         1 1KY     -0.465100
     23 OAT        -3.0960    6.5980    1.7850 os        1 1KY     -0.303900
     24 OAU        -0.7100    5.8020    1.1150 os        1 1KY     -0.307900
     25 OAV        -2.3290    1.4470   -0.1170 os        1 1KY     -0.325900
     26 SAW         7.3640   -0.3900    2.6840 ss        1 1KY     -0.041500
     27 CAY        -2.6060    2.6960    0.4210 ca        1 1KY      0.108100
     28 CAZ         3.7900    0.9910    1.3550 ca        1 1KY     -0.411500
     29 CBA        -3.0120    5.2920    1.3400 ca        1 1KY      0.076100
     30 CBB        -1.7050    4.8610    0.9730 ca        1 1KY      0.134100
     31 CBC         8.4670   -0.2030    1.3110 c         1 1KY      0.693100
     32 CBD         6.4300    0.6120    0.4880 ca        1 1KY      0.109600
     33 CBE         6.0430    0.2500    1.8180 ca        1 1KY     -0.122100
     34 CBF         0.6130   -0.8380    2.4940 c3        1 1KY      0.227500
     35 NBH        -1.0480   -1.0480    0.5860 n         1 1KY     -0.446800
     36 SBJ         2.2120    1.2720    1.8770 sy        1 1KY      1.528200
     37 HA          2.0560   -0.2270   -0.4730 h1        1 1KY      0.084700
     38 HB          1.9040   -2.7430   -0.6120 hc        1 1KY      0.061200
     39 HBA         3.1160   -2.1790    0.6120 hc        1 1KY      0.061200
     40 HAA        -4.8310    6.4730    2.9550 h1        1 1KY      0.041367
     41 HAAA       -5.0740    7.0050    1.2160 h1        1 1KY      0.041367
     42 HAAB       -4.2330    8.1240    2.4090 h1        1 1KY      0.041367
     43 HAB         0.9550    4.5210    1.2400 h1        1 1KY      0.052700
     44 HABA        1.2130    6.3120    0.8820 h1        1 1KY      0.052700
     45 HABB        0.5710    5.1870   -0.4260 h1        1 1KY      0.052700
     46 HAG        -4.7440    2.4230    0.6970 ha        1 1KY      0.135000
     47 HAH        -5.0990    4.7300    1.5260 ha        1 1KY      0.138000
     48 HAI         3.4410    1.8050   -0.6220 ha        1 1KY      0.164000
     49 HAJ         5.7730    1.4600   -1.4140 ha        1 1KY      0.155000
     50 HAK        -0.4970    3.1900    0.2500 ha        1 1KY      0.182000
     51 HAL         4.4370    0.1900    3.2650 ha        1 1KY      0.166000
     52 HAM         0.3180   -3.3880    1.0690 hc        1 1KY      0.051700
     53 HAMA        1.9140   -3.9730    1.6750 hc        1 1KY      0.051700
     54 HAN        -4.1170    0.3790   -0.1480 h1        1 1KY      0.042700
     55 HANA       -3.3170    0.5150    1.4910 h1        1 1KY      0.042700
     56 HAO         0.3800   -2.8000    3.3950 hc        1 1KY      0.051200
     57 HAOA        2.0890   -2.2170    3.3000 hc        1 1KY      0.051200
     58 HAQ        -2.3800   -1.0780   -1.0270 h1        1 1KY      0.074700
     59 HAQA       -3.0110   -1.7600    0.5570 h1        1 1KY      0.074700
     60 HAR        -1.3330    0.1340    2.3100 h1        1 1KY      0.049700
     61 HARA       -1.4080   -1.6750    2.5460 h1        1 1KY      0.049700
     62 HNAS        8.1970    0.5550   -0.6500 hn        1 1KY      0.354500
     63 HBF         0.6320   -0.2850    3.4830 h1        1 1KY      0.091700
@<TRIPOS>BOND
     1    1    3 2   
     2    1    4 1   
     3    1   35 1   
     4    2    4 1   
     5    2   34 1   
     6    2   36 1   
     7    4    5 1   
     8    4   37 1   
     9    5   17 1   
    10    5   38 1   
    11    5   39 1   
    12    6   23 1   
    13    6   40 1   
    14    6   41 1   
    15    6   42 1   
    16    7   24 1   
    17    7   43 1   
    18    7   44 1   
    19    7   45 1   
    20    8   31 2   
    21    9   36 2   
    22   10   36 2   
    23   11   12 ar  
    24   11   27 ar  
    25   11   46 1   
    26   12   29 ar  
    27   12   47 1   
    28   13   14 ar  
    29   13   28 ar  
    30   13   48 1   
    31   14   32 ar  
    32   14   49 1   
    33   15   27 ar  
    34   15   30 ar  
    35   15   50 1   
    36   16   28 ar  
    37   16   33 ar  
    38   16   51 1   
    39   17   19 1   
    40   17   52 1   
    41   17   53 1   
    42   18   20 1   
    43   18   25 1   
    44   18   54 1   
    45   18   55 1   
    46   19   34 1   
    47   19   56 1   
    48   19   57 1   
    49   20   35 1   
    50   20   58 1   
    51   20   59 1   
    52   21   34 1   
    53   21   35 1   
    54   21   60 1   
    55   21   61 1   
    56   22   31 1   
    57   22   32 1   
    58   22   62 1   
    59   23   29 1   
    60   24   30 1   
    61   25   27 1   
    62   26   31 1   
    63   26   33 1   
    64   28   36 1   
    65   29   30 ar  
    66   32   33 ar  
    67   34   63 1   
@<TRIPOS>SUBSTRUCTURE
     1 1KY         1 TEMP              0 ****  ****    0 ROOT
