@<TRIPOS>MOLECULE
1KY
   63    62     1     0     0
SMALL
bcc


@<TRIPOS>ATOM
      1 C          -0.8270   -1.2000    0.3480 c1        1 1KY      0.294000
      2 N           0.6650   -0.3950    2.5120 n3        1 1KY     -0.832000
      3 O          -1.3620   -0.7090   -0.6000 o         1 1KY     -0.365000
      4 CA          0.3810   -0.9160    0.6160 c3        1 1KY      0.034000
      5 CB          1.1890   -2.0410    0.3200 c3        1 1KY     -0.166000
      6 CAA        -2.4220    1.1790   -5.8850 c3        1 1KY     -0.074500
      7 CAB        -5.2710    3.5030   -3.8150 c3        1 1KY     -0.074500
      8 OAD         8.3200    3.4120    0.1020 o         1 1KY     -0.283000
      9 OAE         1.6900    2.0070    2.8050 o         1 1KY     -0.925500
     10 OAF         2.2760    0.5670    4.3570 o         1 1KY     -0.925500
     11 CAG        -3.4950   -0.9530   -2.2050 c1        1 1KY     -0.179000
     12 CAH        -3.2690   -0.6480   -3.5390 c1        1 1KY     -0.148500
     13 CAI         4.2880   -0.0220    3.1480 c1        1 1KY      0.018000
     14 CAJ         5.6150    0.4870    3.1710 c1        1 1KY     -0.181000
     15 CAK        -4.9240    0.9630   -2.0030 c1        1 1KY     -0.148500
     16 CAL         3.9440    0.9460    0.9230 c1        1 1KY      0.056000
     17 CAM         2.2970   -2.0410    1.1500 c3        1 1KY     -0.148000
     18 CAN        -3.6390   -0.5130    0.7810 c3        1 1KY     -0.048000
     19 CAO         1.8830   -2.3600    2.4960 c3        1 1KY     -0.170000
     20 CAQ        -2.9860   -1.8390    1.1100 c3        1 1KY     -0.062000
     21 CAR        -0.8100   -2.0470    2.6850 c3        1 1KY     -0.033000
     22 NAS         7.5610    1.8990    1.7980 n         1 1KY     -0.320000
     23 OAT        -3.7280    0.7260   -5.5070 os        1 1KY     -0.212000
     24 OAU        -5.5780    2.1320   -3.9940 os        1 1KY     -0.212000
     25 OAV        -4.6310   -0.7090   -0.1850 os        1 1KY     -0.210000
     26 SAW         6.0620    2.4090   -0.0720 ss        1 1KY      0.371000
     27 CAY        -4.3260   -0.1420   -1.4380 c1        1 1KY      0.050000
     28 CAZ         3.4550    0.2100    2.0190 c1        1 1KY     -0.855000
     29 CBA        -3.8750    0.4710   -4.1110 c2        1 1KY      0.039000
     30 CBB        -4.6960    1.2700   -3.3500 c2        1 1KY      0.039000
     31 CBC         7.4500    2.7130    0.5760 c2        1 1KY      0.167000
     32 CBD         6.1010    1.2150    2.0870 c2        1 1KY      0.115000
     33 CBE         5.2580    1.4510    0.9440 c2        1 1KY     -0.348000
     34 CBF         0.5310   -1.2890    2.9730 c3        1 1KY      0.036000
     35 NBH        -1.5100   -1.6420    1.2870 n2        1 1KY     -0.316000
     36 SBJ         2.0180    0.6340    2.9570 s6        1 1KY      2.860000
     37 HA          0.6540   -0.1870    0.0550 h1        1 1KY      0.147000
     38 HB          0.6750   -2.8570    0.4630 hc        1 1KY      0.100000
     39 HBA         1.4930   -1.9960   -0.6490 hc        1 1KY      0.100000
     40 HAA        -1.7850    1.0230   -5.1330 h1        1 1KY      0.083000
     41 HAAA       -2.1180    0.6800   -6.6840 h1        1 1KY      0.083000
     42 HAAB       -2.4560    2.1490   -6.0940 h1        1 1KY      0.083000
     43 HAB        -4.3070    3.6500   -3.9840 h1        1 1KY      0.083000
     44 HABA       -5.7870    4.0290   -4.4300 h1        1 1KY      0.083000
     45 HABB       -5.4840    3.7670   -2.9000 h1        1 1KY      0.083000
     46 HAG        -3.0690   -1.7410   -1.8010 ha        1 1KY      0.169000
     47 HAH        -2.6870   -1.2160   -4.0790 ha        1 1KY      0.152500
     48 HAI         3.9480   -0.5340    3.9120 ha        1 1KY      0.158000
     49 HAJ         6.1920    0.3240    3.9550 ha        1 1KY      0.153000
     50 HAK        -5.5010    1.5250   -1.4700 ha        1 1KY      0.152500
     51 HAL         3.3720    1.1070    0.1470 ha        1 1KY      0.167000
     52 HAM         2.9420   -2.7080    0.8360 hc        1 1KY      0.086500
     53 HAMA        2.7100   -1.1600    1.1370 hc        1 1KY      0.086500
     54 HAN        -4.0340   -0.1450    1.5740 h1        1 1KY      0.105500
     55 HANA       -2.9800    0.0910    0.4430 h1        1 1KY      0.105500
     56 HAO         1.5820   -3.3190    2.5370 hc        1 1KY      0.092000
     57 HAOA        2.6400   -2.2250    3.1130 hc        1 1KY      0.092000
     58 HAQ        -3.3690   -2.1940    1.9380 h1        1 1KY      0.112500
     59 HAQA       -3.1490   -2.4810    0.3660 h1        1 1KY      0.112500
     60 HAR        -1.4450   -1.8540    3.4200 h1        1 1KY      0.092500
     61 HARA       -0.6250   -3.0200    2.6720 h1        1 1KY      0.092500
     62 HNAS        8.3680    1.7100    2.2710 hn        1 1KY      0.267000
     63 HBF         0.5880   -1.1420    3.9220 h1        1 1KY      0.119000
@<TRIPOS>BOND
     1    1    3 1   
     2    1    4 1   
     3    2    4 1   
     4    2   34 1   
     5    2   36 1   
     6    4    5 1   
     7    4   37 1   
     8    5   17 1   
     9    5   38 1   
    10    5   39 1   
    11    6   23 1   
    12    6   40 1   
    13    6   41 1   
    14    6   42 1   
    15    7   24 1   
    16    7   43 1   
    17    7   44 1   
    18    7   45 1   
    19    8   31 1   
    20    9   36 1   
    21   10   36 1   
    22   11   27 1   
    23   11   46 1   
    24   12   29 1   
    25   12   47 1   
    26   13   28 1   
    27   13   48 1   
    28   14   32 1   
    29   14   49 1   
    30   15   30 1   
    31   15   50 1   
    32   16   33 1   
    33   16   51 1   
    34   17   19 1   
    35   17   52 1   
    36   17   53 1   
    37   18   20 1   
    38   18   25 1   
    39   18   54 1   
    40   18   55 1   
    41   19   34 1   
    42   19   56 1   
    43   19   57 1   
    44   20   35 1   
    45   20   58 1   
    46   20   59 1   
    47   21   34 1   
    48   21   35 1   
    49   21   60 1   
    50   21   61 1   
    51   22   31 1   
    52   22   32 1   
    53   22   62 1   
    54   23   29 1   
    55   24   30 1   
    56   25   27 1   
    57   26   31 1   
    58   26   33 1   
    59   28   36 1   
    60   29   30 1   
    61   32   33 1   
    62   34   63 1   
@<TRIPOS>SUBSTRUCTURE
     1 1KY         1 TEMP              0 ****  ****    0 ROOT
