@<TRIPOS>MOLECULE
1KZ
   61    64     1     0     0
SMALL
bcc


@<TRIPOS>ATOM
      1 CAB        -8.1690    0.3250   -3.0930 c3        1 1KZ      0.109700
      2 OAU        -8.5930    0.1720   -1.7430 os        1 1KZ     -0.301900
      3 CBC        -7.6120   -0.1810   -0.8400 ca        1 1KZ      0.135100
      4 CAK        -6.2750   -0.3790   -1.1650 ca        1 1KZ     -0.210000
      5 CBB        -8.0530   -0.3400    0.5050 ca        1 1KZ      0.070100
      6 OAT        -9.4010   -0.1150    0.7120 os        1 1KZ     -0.304900
      7 CAA        -9.8570   -0.2840    2.0490 c3        1 1KZ      0.111700
      8 CAH        -7.1390   -0.6950    1.4930 ca        1 1KZ     -0.145000
      9 CAG        -5.7930   -0.8970    1.1730 ca        1 1KZ     -0.206000
     10 CAZ        -5.3690   -0.7390   -0.1450 ca        1 1KZ      0.131100
     11 OAW        -4.0710   -0.9220   -0.5850 os        1 1KZ     -0.333900
     12 CAP        -3.1040   -1.2040    0.4340 c3        1 1KZ      0.123400
     13 CAO        -1.7590   -1.2740   -0.2740 c3        1 1KZ      0.134400
     14 OAV        -1.1840    0.0430   -0.1620 os        1 1KZ     -0.416900
     15 C           0.0280    0.2190   -0.7490 c         1 1KZ      0.632100
     16 O           0.4700   -0.6370   -1.5180 o         1 1KZ     -0.546000
     17 CA          0.6540    1.5650   -0.3880 c3        1 1KZ      0.209500
     18 CB          1.1210    2.2180   -1.7020 c3        1 1KZ     -0.092400
     19 CAM         1.7940    3.5460   -1.4310 c3        1 1KZ     -0.075400
     20 CAN         2.9040    3.3920   -0.4150 c3        1 1KZ     -0.095400
     21 CAR         2.3880    2.7040    0.8480 c3        1 1KZ      0.222800
     22 N           1.7030    1.4530    0.6060 n3        1 1KZ     -0.807500
     23 S1          2.1310    0.1170    1.4500 sy        1 1KZ      1.515200
     24 OAE         2.4560    0.4860    2.7740 o         1 1KZ     -0.649300
     25 OAF         1.1290   -0.8680    1.2920 o         1 1KZ     -0.649300
     26 CBA         3.5430   -0.4060    0.6990 ca        1 1KZ     -0.416500
     27 CAL         4.7930   -0.1120    1.2630 ca        1 1KZ      0.051000
     28 CBF         5.9540   -0.5720    0.6680 ca        1 1KZ     -0.123100
     29 SAX         7.5740   -0.3510    1.1530 ss        1 1KZ     -0.047500
     30 CBD         8.2010   -1.2890   -0.2130 c         1 1KZ      0.693100
     31 OAD         9.3790   -1.5380   -0.4860 o         1 1KZ     -0.562500
     32 NAS         7.1270   -1.7440   -1.0030 n         1 1KZ     -0.466100
     33 CBE         5.8790   -1.3580   -0.5260 ca        1 1KZ      0.108600
     34 CAJ         4.6310   -1.6610   -1.0920 ca        1 1KZ     -0.182000
     35 CAI         3.4860   -1.1800   -0.4700 ca        1 1KZ      0.025000
     36 H1         -7.4120    1.1420   -3.1800 h1        1 1KZ      0.045367
     37 H2         -7.7550   -0.6350   -3.4890 h1        1 1KZ      0.045367
     38 H3         -9.1120    0.6000   -3.6290 h1        1 1KZ      0.045367
     39 H4         -5.9020   -0.2640   -2.1910 ha        1 1KZ      0.156000
     40 H5         -9.6890   -1.3320    2.3970 h1        1 1KZ      0.042367
     41 H6         -9.3530    0.4410    2.7340 h1        1 1KZ      0.042367
     42 H7        -10.9520   -0.0620    1.9780 h1        1 1KZ      0.042367
     43 H8         -7.4630   -0.8210    2.5360 ha        1 1KZ      0.140000
     44 H9         -5.0920   -1.1790    1.9700 ha        1 1KZ      0.140000
     45 H10        -3.1120   -0.3930    1.2080 h1        1 1KZ      0.059200
     46 H11        -3.3380   -2.1950    0.9040 h1        1 1KZ      0.059200
     47 H12        -1.0690   -1.9930    0.2410 h1        1 1KZ      0.081200
     48 H13        -1.8700   -1.5370   -1.3580 h1        1 1KZ      0.081200
     49 H14        -0.1670    2.2120    0.0550 h1        1 1KZ      0.081700
     50 H15         1.8250    1.5270   -2.2360 hc        1 1KZ      0.064200
     51 H16         0.2230    2.3650   -2.3550 hc        1 1KZ      0.064200
     52 H17         2.2090    3.9560   -2.3890 hc        1 1KZ      0.048700
     53 H18         1.0360    4.2800   -1.0500 hc        1 1KZ      0.048700
     54 H19         3.7460    2.8010   -0.8590 hc        1 1KZ      0.053700
     55 H20         3.3070    4.3980   -0.1280 hc        1 1KZ      0.053700
     56 H21         3.2550    2.5050    1.5440 h1        1 1KZ      0.055200
     57 H22         1.6790    3.4080    1.3760 h1        1 1KZ      0.055200
     58 H25         4.8420    0.4800    2.1960 ha        1 1KZ      0.168000
     59 H26         7.2480   -2.3000   -1.8140 hn        1 1KZ      0.352500
     60 H27         4.5570   -2.2680   -2.0060 ha        1 1KZ      0.154000
     61 H28         2.4950   -1.4210   -0.9070 ha        1 1KZ      0.180000
@<TRIPOS>BOND
     1    1    2 1   
     2    1   36 1   
     3    1   37 1   
     4    1   38 1   
     5    2    3 1   
     6    3    4 ar  
     7    3    5 ar  
     8    4   10 ar  
     9    4   39 1   
    10    5    6 1   
    11    5    8 ar  
    12    6    7 1   
    13    7   40 1   
    14    7   41 1   
    15    7   42 1   
    16    8    9 ar  
    17    8   43 1   
    18    9   10 ar  
    19    9   44 1   
    20   10   11 1   
    21   11   12 1   
    22   12   13 1   
    23   12   45 1   
    24   12   46 1   
    25   13   14 1   
    26   13   47 1   
    27   13   48 1   
    28   14   15 1   
    29   15   16 2   
    30   15   17 1   
    31   17   18 1   
    32   17   22 1   
    33   17   49 1   
    34   18   19 1   
    35   18   50 1   
    36   18   51 1   
    37   19   20 1   
    38   19   52 1   
    39   19   53 1   
    40   20   21 1   
    41   20   54 1   
    42   20   55 1   
    43   21   22 1   
    44   21   56 1   
    45   21   57 1   
    46   22   23 1   
    47   23   24 2   
    48   23   25 2   
    49   23   26 1   
    50   26   27 ar  
    51   26   35 ar  
    52   27   28 ar  
    53   27   58 1   
    54   28   29 1   
    55   28   33 ar  
    56   29   30 1   
    57   30   31 2   
    58   30   32 1   
    59   32   33 1   
    60   32   59 1   
    61   33   34 ar  
    62   34   35 ar  
    63   34   60 1   
    64   35   61 1   
@<TRIPOS>SUBSTRUCTURE
     1 1KZ         1 TEMP              0 ****  ****    0 ROOT
