@<TRIPOS>MOLECULE
1KZ
   61    64     1     0     0
SMALL
bcc


@<TRIPOS>ATOM
      1 CAB         0.4940    0.8320   -0.3210 c3        1 1KZ      0.109700
      2 OAU         1.8200    0.3240   -0.2110 os        1 1KZ     -0.301900
      3 CBC         2.2740    0.0980    1.0710 ca        1 1KZ      0.135100
      4 CAK         1.5290    0.3230    2.2240 ca        1 1KZ     -0.210000
      5 CBB         3.6040   -0.4010    1.1670 ca        1 1KZ      0.070100
      6 OAT         4.2490   -0.5890   -0.0420 os        1 1KZ     -0.304900
      7 CAA         5.5840   -1.0740    0.0390 c3        1 1KZ      0.111700
      8 CAH         4.1560   -0.6610    2.4170 ca        1 1KZ     -0.145000
      9 CAG         3.4130   -0.4350    3.5800 ca        1 1KZ     -0.206000
     10 CAZ         2.1110    0.0520    3.4790 ca        1 1KZ      0.131100
     11 OAW         1.2840    0.3240    4.5540 os        1 1KZ     -0.333900
     12 CAP         1.8060   -0.0210    5.8420 c3        1 1KZ      0.123400
     13 CAO         0.6960    0.2830    6.8380 c3        1 1KZ      0.134400
     14 OAV        -0.0170   -0.9560    7.0260 os        1 1KZ     -0.416900
     15 C          -1.0780   -0.9130    7.8730 c         1 1KZ      0.632100
     16 O          -1.5190    0.1730    8.2540 o         1 1KZ     -0.546000
     17 CA         -1.6250   -2.3060    8.1810 c3        1 1KZ      0.209500
     18 CB         -3.1510   -2.2500    7.9820 c3        1 1KZ     -0.092400
     19 CAM        -3.7840   -3.5850    8.3070 c3        1 1KZ     -0.075400
     20 CAN        -3.3800   -4.0530    9.6880 c3        1 1KZ     -0.095400
     21 CAR        -1.8590   -4.0480    9.8360 c3        1 1KZ      0.222800
     22 N          -1.2320   -2.7930    9.4880 n3        1 1KZ     -0.807500
     23 S1         -0.1740   -2.0980   10.5280 sy        1 1KZ      1.515200
     24 OAE         0.5890   -3.1040   11.1590 o         1 1KZ     -0.649300
     25 OAF         0.5430   -1.0880    9.8480 o         1 1KZ     -0.649300
     26 CBA        -1.1570   -1.3880   11.6950 ca        1 1KZ     -0.416500
     27 CAL        -1.3640   -2.0260   12.9260 ca        1 1KZ      0.051000
     28 CBF        -2.1410   -1.4270   13.9020 ca        1 1KZ     -0.123100
     29 SAX        -2.5380   -1.9930   15.4610 ss        1 1KZ     -0.047500
     30 CBD        -3.5010   -0.5540   15.8320 c         1 1KZ      0.693100
     31 OAD        -4.1170   -0.3000   16.8720 o         1 1KZ     -0.562500
     32 NAS        -3.4820    0.3220   14.7290 ns        1 1KZ     -0.466100
     33 CBE        -2.7310   -0.1470   13.6560 ca        1 1KZ      0.108600
     34 CAJ        -2.5220    0.5000   12.4280 ca        1 1KZ     -0.182000
     35 CAI        -1.7390   -0.1310   11.4700 ca        1 1KZ      0.025000
     36 H1          0.3510    0.9380   -1.4260 h1        1 1KZ      0.045367
     37 H2          0.4070    1.8240    0.1860 h1        1 1KZ      0.045367
     38 H3         -0.2430    0.1090    0.1050 h1        1 1KZ      0.045367
     39 H4          0.5000    0.7060    2.1850 ha        1 1KZ      0.156000
     40 H5          6.2340   -0.3560    0.5960 h1        1 1KZ      0.042367
     41 H6          5.8990   -1.1410   -1.0330 h1        1 1KZ      0.042367
     42 H7          5.6120   -2.0810    0.5210 h1        1 1KZ      0.042367
     43 H8          5.1820   -1.0460    2.5080 ha        1 1KZ      0.140000
     44 H9          3.8710   -0.6470    4.5560 ha        1 1KZ      0.140000
     45 H10         2.0850   -1.1070    5.8670 h1        1 1KZ      0.059200
     46 H11         2.7000    0.6180    6.0640 h1        1 1KZ      0.059200
     47 H12         1.1180    0.5880    7.8310 h1        1 1KZ      0.081200
     48 H13        -0.0120    1.0610    6.4510 h1        1 1KZ      0.081200
     49 H14        -1.1950   -3.0180    7.4080 h1        1 1KZ      0.081700
     50 H15        -3.3530   -1.9760    6.9140 hc        1 1KZ      0.064200
     51 H16        -3.5860   -1.4450    8.6300 hc        1 1KZ      0.064200
     52 H17        -4.9000   -3.4940    8.2470 hc        1 1KZ      0.048700
     53 H18        -3.4670   -4.3470    7.5460 hc        1 1KZ      0.048700
     54 H19        -3.7480   -5.0960    9.8660 hc        1 1KZ      0.053700
     55 H20        -3.8450   -3.3900   10.4630 hc        1 1KZ      0.053700
     56 H21        -1.4330   -4.8610    9.1770 h1        1 1KZ      0.055200
     57 H22        -1.5890   -4.2960   10.9040 h1        1 1KZ      0.055200
     58 H25        -0.8890   -3.0070   13.1160 ha        1 1KZ      0.168000
     59 H26        -3.9470    1.1970   14.7230 hn        1 1KZ      0.352500
     60 H27        -2.9650    1.4860   12.2260 ha        1 1KZ      0.154000
     61 H28        -1.5640    0.3770   10.4990 ha        1 1KZ      0.180000
@<TRIPOS>BOND
     1    1    2 1   
     2    1   36 1   
     3    1   37 1   
     4    1   38 1   
     5    2    3 1   
     6    3    4 ar  
     7    3    5 ar  
     8    4   10 ar  
     9    4   39 1   
    10    5    6 1   
    11    5    8 ar  
    12    6    7 1   
    13    7   40 1   
    14    7   41 1   
    15    7   42 1   
    16    8    9 ar  
    17    8   43 1   
    18    9   10 ar  
    19    9   44 1   
    20   10   11 1   
    21   11   12 1   
    22   12   13 1   
    23   12   45 1   
    24   12   46 1   
    25   13   14 1   
    26   13   47 1   
    27   13   48 1   
    28   14   15 1   
    29   15   16 2   
    30   15   17 1   
    31   17   18 1   
    32   17   22 1   
    33   17   49 1   
    34   18   19 1   
    35   18   50 1   
    36   18   51 1   
    37   19   20 1   
    38   19   52 1   
    39   19   53 1   
    40   20   21 1   
    41   20   54 1   
    42   20   55 1   
    43   21   22 1   
    44   21   56 1   
    45   21   57 1   
    46   22   23 1   
    47   23   24 2   
    48   23   25 2   
    49   23   26 1   
    50   26   27 ar  
    51   26   35 ar  
    52   27   28 ar  
    53   27   58 1   
    54   28   29 1   
    55   28   33 ar  
    56   29   30 1   
    57   30   31 2   
    58   30   32 1   
    59   32   33 1   
    60   32   59 1   
    61   33   34 ar  
    62   34   35 ar  
    63   34   60 1   
    64   35   61 1   
@<TRIPOS>SUBSTRUCTURE
     1 1KZ         1 TEMP              0 ****  ****    0 ROOT
