@<TRIPOS>MOLECULE
1KZ
   61    64     1     0     0
SMALL
bcc


@<TRIPOS>ATOM
      1 CAB         0.4850    0.8250   -0.3240 c3        1 1KZ      0.109700
      2 OAU         1.8140    0.3260   -0.2120 os        1 1KZ     -0.301900
      3 CBC         2.2690    0.1050    1.0700 ca        1 1KZ      0.135100
      4 CAK         1.5210    0.3260    2.2210 ca        1 1KZ     -0.210000
      5 CBB         3.6030   -0.3850    1.1670 ca        1 1KZ      0.070100
      6 OAT         4.2500   -0.5700   -0.0410 os        1 1KZ     -0.304900
      7 CAA         5.5880   -1.0450    0.0420 c3        1 1KZ      0.111700
      8 CAH         4.1550   -0.6400    2.4180 ca        1 1KZ     -0.145000
      9 CAG         3.4090   -0.4180    3.5810 ca        1 1KZ     -0.206000
     10 CAZ         2.1040    0.0600    3.4780 ca        1 1KZ      0.131100
     11 OAW         1.2750    0.3280    4.5510 os        1 1KZ     -0.333900
     12 CAP         1.7990   -0.0110    5.8410 c3        1 1KZ      0.123400
     13 CAO         0.6860    0.2870    6.8350 c3        1 1KZ      0.134400
     14 OAV        -0.0180   -0.9560    7.0250 os        1 1KZ     -0.416900
     15 C          -1.0800   -0.9190    7.8720 c         1 1KZ      0.632100
     16 O          -1.5290    0.1650    8.2500 o         1 1KZ     -0.546000
     17 CA         -1.6180   -2.3150    8.1830 c3        1 1KZ      0.209500
     18 CB         -3.1450   -2.2700    7.9830 c3        1 1KZ     -0.092400
     19 CAM        -3.7680   -3.6090    8.3110 c3        1 1KZ     -0.075400
     20 CAN        -3.3610   -4.0710    9.6930 c3        1 1KZ     -0.095400
     21 CAR        -1.8400   -4.0560    9.8410 c3        1 1KZ      0.222800
     22 N          -1.2220   -2.7960    9.4910 n3        1 1KZ     -0.807500
     23 S1         -0.1690   -2.0920   10.5290 sy        1 1KZ      1.515200
     24 OAE         0.6010   -3.0920   11.1620 o         1 1KZ     -0.649300
     25 OAF         0.5420   -1.0780    9.8480 o         1 1KZ     -0.649300
     26 CBA        -1.1570   -1.3870   11.6950 ca        1 1KZ     -0.416500
     27 CAL        -1.3600   -2.0240   12.9270 ca        1 1KZ      0.051000
     28 CBF        -2.1410   -1.4290   13.9020 ca        1 1KZ     -0.123100
     29 SAX        -2.5360   -1.9940   15.4610 ss        1 1KZ     -0.047500
     30 CBD        -3.5090   -0.5600   15.8290 c         1 1KZ      0.693100
     31 OAD        -4.1270   -0.3090   16.8680 o         1 1KZ     -0.562500
     32 NAS        -3.4950    0.3130   14.7240 n         1 1KZ     -0.466100
     33 CBE        -2.7400   -0.1520   13.6530 ca        1 1KZ      0.108600
     34 CAJ        -2.5350    0.4940   12.4240 ca        1 1KZ     -0.182000
     35 CAI        -1.7480   -0.1340   11.4670 ca        1 1KZ      0.025000
     36 H1          0.3910    1.8170    0.1810 h1        1 1KZ      0.045367
     37 H2         -0.2470    0.0970    0.1020 h1        1 1KZ      0.045367
     38 H3          0.3420    0.9290   -1.4300 h1        1 1KZ      0.045367
     39 H4          0.4900    0.7020    2.1820 ha        1 1KZ      0.156000
     40 H5          5.9050   -1.1100   -1.0300 h1        1 1KZ      0.042367
     41 H6          5.6230   -2.0520    0.5240 h1        1 1KZ      0.042367
     42 H7          6.2320   -0.3220    0.5990 h1        1 1KZ      0.042367
     43 H8          5.1830   -1.0190    2.5100 ha        1 1KZ      0.140000
     44 H9          3.8680   -0.6250    4.5560 ha        1 1KZ      0.140000
     45 H10         2.0850   -1.0950    5.8680 h1        1 1KZ      0.059200
     46 H11         2.6880    0.6350    6.0620 h1        1 1KZ      0.059200
     47 H12         1.1050    0.5980    7.8280 h1        1 1KZ      0.081200
     48 H13        -0.0270    1.0600    6.4470 h1        1 1KZ      0.081200
     49 H14        -1.1830   -3.0250    7.4110 h1        1 1KZ      0.081700
     50 H15        -3.3480   -1.9990    6.9150 hc        1 1KZ      0.064200
     51 H16        -3.5850   -1.4670    8.6300 hc        1 1KZ      0.064200
     52 H17        -4.8850   -3.5260    8.2510 hc        1 1KZ      0.048700
     53 H18        -3.4460   -4.3690    7.5510 hc        1 1KZ      0.048700
     54 H19        -3.7220   -5.1160    9.8720 hc        1 1KZ      0.053700
     55 H20        -3.8300   -3.4100   10.4670 hc        1 1KZ      0.053700
     56 H21        -1.4080   -4.8660    9.1830 h1        1 1KZ      0.055200
     57 H22        -1.5680   -4.2990   10.9090 h1        1 1KZ      0.055200
     58 H25        -0.8780   -3.0010   13.1190 ha        1 1KZ      0.168000
     59 H26        -3.9660    1.1850   14.7170 hn        1 1KZ      0.352500
     60 H27        -2.9850    1.4760   12.2200 ha        1 1KZ      0.154000
     61 H28        -1.5750    0.3730   10.4960 ha        1 1KZ      0.180000
@<TRIPOS>BOND
     1    1    2 1   
     2    1   36 1   
     3    1   37 1   
     4    1   38 1   
     5    2    3 1   
     6    3    4 ar  
     7    3    5 ar  
     8    4   10 ar  
     9    4   39 1   
    10    5    6 1   
    11    5    8 ar  
    12    6    7 1   
    13    7   40 1   
    14    7   41 1   
    15    7   42 1   
    16    8    9 ar  
    17    8   43 1   
    18    9   10 ar  
    19    9   44 1   
    20   10   11 1   
    21   11   12 1   
    22   12   13 1   
    23   12   45 1   
    24   12   46 1   
    25   13   14 1   
    26   13   47 1   
    27   13   48 1   
    28   14   15 1   
    29   15   16 2   
    30   15   17 1   
    31   17   18 1   
    32   17   22 1   
    33   17   49 1   
    34   18   19 1   
    35   18   50 1   
    36   18   51 1   
    37   19   20 1   
    38   19   52 1   
    39   19   53 1   
    40   20   21 1   
    41   20   54 1   
    42   20   55 1   
    43   21   22 1   
    44   21   56 1   
    45   21   57 1   
    46   22   23 1   
    47   23   24 2   
    48   23   25 2   
    49   23   26 1   
    50   26   27 ar  
    51   26   35 ar  
    52   27   28 ar  
    53   27   58 1   
    54   28   29 1   
    55   28   33 ar  
    56   29   30 1   
    57   30   31 2   
    58   30   32 1   
    59   32   33 1   
    60   32   59 1   
    61   33   34 ar  
    62   34   35 ar  
    63   34   60 1   
    64   35   61 1   
@<TRIPOS>SUBSTRUCTURE
     1 1KZ         1 TEMP              0 ****  ****    0 ROOT
