@<TRIPOS>MOLECULE
1KZ
   61    56     1     0     0
SMALL
bcc


@<TRIPOS>ATOM
      1 CAB         5.6780    5.1190   -3.4230 c3        1 1KZ     -0.078000
      2 OAU         4.5410    5.4440   -4.2410 os        1 1KZ     -0.227500
      3 CBC         3.6950    4.3270   -4.5110 c2        1 1KZ      0.025500
      4 CAK         2.6910    3.9890   -3.6200 c1        1 1KZ     -0.123500
      5 CBB         3.8430    3.6200   -5.6790 c2        1 1KZ      0.025500
      6 OAT         4.9140    3.8610   -6.4850 os        1 1KZ     -0.227500
      7 CAA         4.5750    4.3790   -7.7160 c3        1 1KZ     -0.078000
      8 CAH         2.9740    2.5520   -5.9690 c1        1 1KZ     -0.123500
      9 CAG         1.9760    2.2160   -5.0840 c1        1 1KZ     -0.094000
     10 CAZ         1.8270    2.9270   -3.9090 c1        1 1KZ     -0.387500
     11 OAW         0.7230    2.6230   -3.0070 o         1 1KZ     -0.213000
     12 CAP         0.8890    1.3960   -2.2540 c3        1 1KZ     -0.049000
     13 CAO        -0.1900    1.3140   -1.1970 c3        1 1KZ     -0.017000
     14 OAV        -0.5020   -0.0200   -0.9540 os        1 1KZ     -0.266000
     15 C          -1.3320   -0.2220    0.1650 c1        1 1KZ      0.288000
     16 O          -1.5010    0.6900    0.9830 o         1 1KZ     -0.369000
     17 CA         -2.1380   -1.5210    0.2880 c2        1 1KZ      0.063000
     18 CB         -3.5570   -1.3720   -0.3020 c3        1 1KZ     -0.154000
     19 CAM        -4.4020   -2.5990   -0.1090 c3        1 1KZ     -0.154000
     20 CAN        -4.4480   -3.0340    1.2740 c3        1 1KZ     -0.176000
     21 CAR        -3.1010   -3.1860    1.8800 c3        1 1KZ     -0.007000
     22 N          -2.2420   -1.9740    1.7000 n3        1 1KZ     -0.818000
     23 S1         -1.0340   -1.6440    2.7680 s4        1 1KZ      2.073800
     24 OAE         0.3090   -2.0280    2.2110 o         1 1KZ     -0.539900
     25 OAF        -0.8650   -0.2170    2.9430 o         1 1KZ     -0.539900
     26 CBA        -1.3590   -2.4830    4.3790 c1        1 1KZ     -0.387500
     27 CAL        -1.1260   -1.7080    5.5190 c1        1 1KZ      0.073000
     28 CBF        -1.1570   -2.2990    6.7790 c1        1 1KZ     -0.352000
     29 SAX        -0.8360   -1.7250    8.2520 s         1 1KZ      0.376000
     30 CBD        -1.1170   -2.8980    9.2890 c2        1 1KZ      0.163000
     31 OAD        -1.0540   -2.8110   10.5340 o         1 1KZ     -0.290000
     32 NAS        -1.5680   -4.0700    8.5220 n         1 1KZ     -0.320000
     33 CBE        -1.4320   -3.7130    6.9090 c2        1 1KZ      0.116000
     34 CAJ        -1.6590   -4.4700    5.7940 c1        1 1KZ     -0.186000
     35 CAI        -1.6270   -3.8660    4.5050 c1        1 1KZ     -0.094000
     36 H1          6.2810    5.8630   -3.4010 h1        1 1KZ      0.084833
     37 H2          6.1360    4.3370   -3.7990 h1        1 1KZ      0.084833
     38 H3          5.3610    4.9050   -2.4660 h1        1 1KZ      0.084833
     39 H4          2.5820    4.5090   -2.7600 ha        1 1KZ      0.157000
     40 H5          4.1400    3.7080   -8.2340 h1        1 1KZ      0.084833
     41 H6          3.9960    5.1090   -7.5980 h1        1 1KZ      0.084833
     42 H7          5.3640    4.6690   -8.1680 h1        1 1KZ      0.084833
     43 H8          3.0820    2.0350   -6.8220 ha        1 1KZ      0.157000
     44 H9          1.3890    1.4940   -5.2810 ha        1 1KZ      0.154500
     45 H10         1.7610    1.3910   -1.8300 h1        1 1KZ      0.098000
     46 H11         0.8100    0.5900   -2.8880 h1        1 1KZ      0.098000
     47 H12        -0.9710    1.7740   -1.5060 h1        1 1KZ      0.122500
     48 H13         0.1160    1.7130   -0.4040 h1        1 1KZ      0.122500
     49 H14        -1.5900   -2.1370   -0.2480 h4        1 1KZ      0.139000
     50 H15        -4.0210   -0.5770    0.1580 hc        1 1KZ      0.103500
     51 H16        -3.4800   -1.1730   -1.3100 hc        1 1KZ      0.103500
     52 H17        -4.0470   -3.2920   -0.6300 hc        1 1KZ      0.091000
     53 H18        -5.2870   -2.4160   -0.4060 hc        1 1KZ      0.091000
     54 H19        -4.9410   -3.9410    1.3240 hc        1 1KZ      0.093500
     55 H20        -4.9560   -2.3670    1.7980 hc        1 1KZ      0.093500
     56 H21        -3.2050   -3.3580    2.8430 h1        1 1KZ      0.089500
     57 H22        -2.6580   -3.9510    1.4700 h1        1 1KZ      0.089500
     58 H25        -0.8260   -0.7990    5.4250 ha        1 1KZ      0.184000
     59 H26        -1.7950   -4.8740    8.8690 hn        1 1KZ      0.265000
     60 H27        -1.8430   -5.4280    5.8830 ha        1 1KZ      0.151000
     61 H28        -1.7840   -4.3800    3.7480 ha        1 1KZ      0.154500
@<TRIPOS>BOND
     1    1    2 1   
     2    1   36 1   
     3    1   37 1   
     4    1   38 1   
     5    2    3 1   
     6    3    4 1   
     7    3    5 1   
     8    4   39 1   
     9    5    6 1   
    10    5    8 1   
    11    6    7 1   
    12    7   40 1   
    13    7   41 1   
    14    7   42 1   
    15    8   43 1   
    16    9   10 1   
    17    9   44 1   
    18   11   12 1   
    19   12   13 1   
    20   12   45 1   
    21   12   46 1   
    22   13   14 1   
    23   13   47 1   
    24   13   48 1   
    25   14   15 1   
    26   15   16 1   
    27   17   18 1   
    28   17   22 1   
    29   17   49 1   
    30   18   19 1   
    31   18   50 1   
    32   18   51 1   
    33   19   20 1   
    34   19   52 1   
    35   19   53 1   
    36   20   21 1   
    37   20   54 1   
    38   20   55 1   
    39   21   22 1   
    40   21   56 1   
    41   21   57 1   
    42   22   23 1   
    43   23   24 1   
    44   23   25 1   
    45   26   35 1   
    46   27   28 1   
    47   27   58 1   
    48   28   33 1   
    49   29   30 1   
    50   30   31 1   
    51   30   32 1   
    52   32   33 1   
    53   32   59 1   
    54   33   34 1   
    55   34   60 1   
    56   35   61 1   
@<TRIPOS>SUBSTRUCTURE
     1 1KZ         1 TEMP              0 ****  ****    0 ROOT
