@<TRIPOS>MOLECULE
1KZ
   61    64     1     0     0
SMALL
bcc


@<TRIPOS>ATOM
      1 CAB         0.4920    0.8370   -0.3240 c3        1 1KZ      0.109700
      2 OAU         1.8190    0.3330   -0.2130 os        1 1KZ     -0.301900
      3 CBC         2.2730    0.1080    1.0690 ca        1 1KZ      0.135100
      4 CAK         1.5260    0.3290    2.2210 ca        1 1KZ     -0.210000
      5 CBB         3.6050   -0.3870    1.1650 ca        1 1KZ      0.070100
      6 OAT         4.2510   -0.5720   -0.0430 os        1 1KZ     -0.304900
      7 CAA         5.5870   -1.0530    0.0390 c3        1 1KZ      0.111700
      8 CAH         4.1560   -0.6460    2.4160 ca        1 1KZ     -0.145000
      9 CAG         3.4110   -0.4240    3.5790 ca        1 1KZ     -0.206000
     10 CAZ         2.1070    0.0590    3.4770 ca        1 1KZ      0.131100
     11 OAW         1.2790    0.3280    4.5510 os        1 1KZ     -0.333900
     12 CAP         1.8020   -0.0140    5.8400 c3        1 1KZ      0.123400
     13 CAO         0.6900    0.2860    6.8350 c3        1 1KZ      0.134400
     14 OAV        -0.0180   -0.9560    7.0240 os        1 1KZ     -0.416900
     15 C          -1.0790   -0.9160    7.8710 c         1 1KZ      0.632100
     16 O          -1.5240    0.1690    8.2510 o         1 1KZ     -0.546000
     17 CA         -1.6210   -2.3100    8.1810 c3        1 1KZ      0.209500
     18 CB         -3.1470   -2.2610    7.9830 c3        1 1KZ     -0.092400
     19 CAM        -3.7750   -3.5980    8.3100 c3        1 1KZ     -0.075400
     20 CAN        -3.3680   -4.0620    9.6910 c3        1 1KZ     -0.095400
     21 CAR        -1.8470   -4.0520    9.8390 c3        1 1KZ      0.222800
     22 N          -1.2250   -2.7940    9.4890 n3        1 1KZ     -0.807500
     23 S1         -0.1690   -2.0940   10.5270 sy        1 1KZ      1.515200
     24 OAE         0.5980   -3.0970   11.1580 o         1 1KZ     -0.649300
     25 OAF         0.5440   -1.0820    9.8450 o         1 1KZ     -0.649300
     26 CBA        -1.1540   -1.3870   11.6940 ca        1 1KZ     -0.416500
     27 CAL        -1.3580   -2.0240   12.9260 ca        1 1KZ      0.051000
     28 CBF        -2.1360   -1.4270   13.9020 ca        1 1KZ     -0.123100
     29 SAX        -2.5310   -1.9930   15.4610 ss        1 1KZ     -0.047500
     30 CBD        -3.4990   -0.5570   15.8310 c         1 1KZ      0.693100
     31 OAD        -4.1150   -0.3040   16.8710 o         1 1KZ     -0.562500
     32 NAS        -3.4840    0.3170   14.7270 n         1 1KZ     -0.466100
     33 CBE        -2.7320   -0.1490   13.6550 ca        1 1KZ      0.108600
     34 CAJ        -2.5260    0.4970   12.4260 ca        1 1KZ     -0.182000
     35 CAI        -1.7420   -0.1320   11.4680 ca        1 1KZ      0.025000
     36 H1         -0.2430    0.1110    0.1010 h1        1 1KZ      0.045367
     37 H2          0.3490    0.9430   -1.4290 h1        1 1KZ      0.045367
     38 H3          0.4010    1.8280    0.1830 h1        1 1KZ      0.045367
     39 H4          0.4960    0.7090    2.1820 ha        1 1KZ      0.156000
     40 H5          5.6170   -2.0610    0.5200 h1        1 1KZ      0.042367
     41 H6          5.9040   -1.1180   -1.0330 h1        1 1KZ      0.042367
     42 H7          6.2340   -0.3340    0.5980 h1        1 1KZ      0.042367
     43 H8          5.1830   -1.0280    2.5080 ha        1 1KZ      0.140000
     44 H9          3.8690   -0.6340    4.5550 ha        1 1KZ      0.140000
     45 H10         2.6940    0.6280    6.0620 h1        1 1KZ      0.059200
     46 H11         2.0840   -1.0990    5.8650 h1        1 1KZ      0.059200
     47 H12        -0.0210    1.0610    6.4470 h1        1 1KZ      0.081200
     48 H13         1.1100    0.5950    7.8280 h1        1 1KZ      0.081200
     49 H14        -1.1880   -3.0220    7.4090 h1        1 1KZ      0.081700
     50 H15        -3.5850   -1.4570    8.6300 hc        1 1KZ      0.064200
     51 H16        -3.3500   -1.9890    6.9150 hc        1 1KZ      0.064200
     52 H17        -3.4550   -4.3590    7.5490 hc        1 1KZ      0.048700
     53 H18        -4.8910   -3.5120    8.2510 hc        1 1KZ      0.048700
     54 H19        -3.8350   -3.4000   10.4660 hc        1 1KZ      0.053700
     55 H20        -3.7320   -5.1070    9.8700 hc        1 1KZ      0.053700
     56 H21        -1.4180   -4.8630    9.1800 h1        1 1KZ      0.055200
     57 H22        -1.5750   -4.2970   10.9070 h1        1 1KZ      0.055200
     58 H25        -0.8790   -3.0030   13.1170 ha        1 1KZ      0.168000
     59 H26        -3.9520    1.1910   14.7210 hn        1 1KZ      0.352500
     60 H27        -2.9730    1.4810   12.2230 ha        1 1KZ      0.154000
     61 H28        -1.5690    0.3750   10.4970 ha        1 1KZ      0.180000
@<TRIPOS>BOND
     1    1    2 1   
     2    1   36 1   
     3    1   37 1   
     4    1   38 1   
     5    2    3 1   
     6    3    4 ar  
     7    3    5 ar  
     8    4   10 ar  
     9    4   39 1   
    10    5    6 1   
    11    5    8 ar  
    12    6    7 1   
    13    7   40 1   
    14    7   41 1   
    15    7   42 1   
    16    8    9 ar  
    17    8   43 1   
    18    9   10 ar  
    19    9   44 1   
    20   10   11 1   
    21   11   12 1   
    22   12   13 1   
    23   12   45 1   
    24   12   46 1   
    25   13   14 1   
    26   13   47 1   
    27   13   48 1   
    28   14   15 1   
    29   15   16 2   
    30   15   17 1   
    31   17   18 1   
    32   17   22 1   
    33   17   49 1   
    34   18   19 1   
    35   18   50 1   
    36   18   51 1   
    37   19   20 1   
    38   19   52 1   
    39   19   53 1   
    40   20   21 1   
    41   20   54 1   
    42   20   55 1   
    43   21   22 1   
    44   21   56 1   
    45   21   57 1   
    46   22   23 1   
    47   23   24 2   
    48   23   25 2   
    49   23   26 1   
    50   26   27 ar  
    51   26   35 ar  
    52   27   28 ar  
    53   27   58 1   
    54   28   29 1   
    55   28   33 ar  
    56   29   30 1   
    57   30   31 2   
    58   30   32 1   
    59   32   33 1   
    60   32   59 1   
    61   33   34 ar  
    62   34   35 ar  
    63   34   60 1   
    64   35   61 1   
@<TRIPOS>SUBSTRUCTURE
     1 1KZ         1 TEMP              0 ****  ****    0 ROOT
