@<TRIPOS>MOLECULE
1L1
   33    31     1     0     0
SMALL
bcc


@<TRIPOS>ATOM
      1 C17        -2.5770   -0.2660    1.0410 c1        1 1L1      0.344000
      2 C18        -1.0500   -0.3630    1.1690 c2        1 1L1     -0.060000
      3 N19        -0.6870   -0.2900    2.5450 n3        1 1L1     -0.889000
      4 C20        -0.4090    0.7760    0.4130 c3        1 1L1     -0.159000
      5 O21        -3.2380   -1.2230    0.5030 o         1 1L1     -0.557500
      6 C22         1.6940    0.8300   -3.3450 c3        1 1L1     -0.153000
      7 C23         2.4090    0.2420   -2.1520 c3        1 1L1     -0.151500
      8 C24         1.7270    0.5740   -0.8510 c3        1 1L1     -0.161500
      9 C25         0.2450    0.2320   -0.8680 c3        1 1L1     -0.101000
     10 C26        -0.4630    0.8170   -2.0540 c3        1 1L1     -0.161500
     11 C27         0.2270    0.4870   -3.3630 c3        1 1L1     -0.151500
     12 S28        -1.1690   -1.4740    3.5880 s4        1 1L1      2.021800
     13 N29        -0.1360   -1.5440    4.9000 n2        1 1L1     -0.953000
     14 O30        -1.2610   -2.7660    2.9160 o         1 1L1     -0.567400
     15 O31        -2.5340   -1.2780    4.0060 o         1 1L1     -0.567400
     16 H15        -0.7340   -1.2370    0.7840 h4        1 1L1      0.099000
     17 H16        -0.1420    0.3930    2.8440 hn        1 1L1      0.275000
     18 H17        -1.1000    1.4420    0.1720 hc        1 1L1      0.075500
     19 H18         0.2840    1.2070    0.9840 hc        1 1L1      0.075500
     20 H19         2.1090    0.4910   -4.1630 hc        1 1L1      0.064500
     21 H20         1.7880    1.7950   -3.3210 hc        1 1L1      0.064500
     22 H21         2.4430   -0.7320   -2.2520 hc        1 1L1      0.068500
     23 H22         3.3070    0.5830   -2.1280 hc        1 1L1      0.068500
     24 H23         1.8310    1.5400   -0.6730 hc        1 1L1      0.090750
     25 H24         2.1490    0.0820   -0.1460 hc        1 1L1      0.090750
     26 H25         0.1440   -0.7520   -0.8870 hc        1 1L1      0.086000
     27 H26        -1.3850    0.4650   -2.0820 hc        1 1L1      0.090750
     28 H27        -0.4990    1.7980   -1.9520 hc        1 1L1      0.090750
     29 H28         0.1290   -0.4630   -3.5380 hc        1 1L1      0.068500
     30 H29        -0.2010    0.9830   -4.0750 hc        1 1L1      0.068500
     31 H30         0.4910   -2.2050    4.9510 hn        1 1L1      0.223000
     32 H31        -0.2070   -0.9190    5.5810 hn        1 1L1      0.223000
     33 OXT        -3.1870    0.7760    1.4570 o         1 1L1     -0.557500
@<TRIPOS>BOND
     1    1    5 1   
     2    1   33 1   
     3    2    3 1   
     4    2    4 1   
     5    2   16 1   
     6    3   12 1   
     7    3   17 1   
     8    4    9 1   
     9    4   18 1   
    10    4   19 1   
    11    6    7 1   
    12    6   11 1   
    13    6   20 1   
    14    6   21 1   
    15    7    8 1   
    16    7   22 1   
    17    7   23 1   
    18    8    9 1   
    19    8   24 1   
    20    8   25 1   
    21    9   10 1   
    22    9   26 1   
    23   10   11 1   
    24   10   27 1   
    25   10   28 1   
    26   11   29 1   
    27   11   30 1   
    28   12   14 1   
    29   12   15 1   
    30   13   31 1   
    31   13   32 1   
@<TRIPOS>SUBSTRUCTURE
     1 1L1         1 TEMP              0 ****  ****    0 ROOT
