@<TRIPOS>MOLECULE
1L1
   33    33     1     0     0
SMALL
bcc


@<TRIPOS>ATOM
      1 C17        -1.5360   -2.2710    0.3940 c         1 1L1      0.922600
      2 C18        -0.8310   -0.8560    0.3040 c3        1 1L1      0.092500
      3 N19        -1.7020    0.1360   -0.2800 n3        1 1L1     -0.920100
      4 C20         0.4990   -1.0620   -0.4380 c3        1 1L1     -0.096400
      5 O21        -2.5950   -2.4590   -0.2630 o         1 1L1     -0.822300
      6 C22         4.4280    0.3230    0.7920 c3        1 1L1     -0.072400
      7 C23         3.8370    0.8650   -0.4940 c3        1 1L1     -0.076900
      8 C24         2.7010   -0.0070   -0.9890 c3        1 1L1     -0.070900
      9 C25         1.6180   -0.1640    0.0710 c3        1 1L1     -0.079700
     10 C26         2.2280   -0.7310    1.3470 c3        1 1L1     -0.070900
     11 C27         3.3580    0.1440    1.8500 c3        1 1L1     -0.076900
     12 S28        -1.4440    1.6940   -0.4390 s6        1 1L1      1.575800
     13 N29        -0.5200    1.8740   -1.7680 n3        1 1L1     -1.027700
     14 O30        -2.6830    2.3630   -0.7200 o         1 1L1     -0.682800
     15 O31        -0.7180    2.2350    0.6650 o         1 1L1     -0.682800
     16 H15        -0.6040   -0.5440    1.3660 h1        1 1L1      0.052700
     17 H16        -2.5330   -0.3040   -0.6370 hn        1 1L1      0.483800
     18 H17         0.7990   -2.1350   -0.2870 hc        1 1L1      0.054200
     19 H18         0.3640   -0.9110   -1.5400 hc        1 1L1      0.054200
     20 H21         3.4580    1.9060   -0.3180 hc        1 1L1      0.032700
     21 H22         4.6350    0.9240   -1.2790 hc        1 1L1      0.032700
     22 H23         2.2620    0.4460   -1.9160 hc        1 1L1      0.041950
     23 H24         3.0940   -1.0190   -1.2670 hc        1 1L1      0.041950
     24 H25         1.2020    0.8570    0.3120 hc        1 1L1      0.055700
     25 H26         1.4320   -0.8140    2.1320 hc        1 1L1      0.041950
     26 H27         2.6120   -1.7660    1.1500 hc        1 1L1      0.041950
     27 H28         3.8110   -0.3180    2.7650 hc        1 1L1      0.032700
     28 H29         2.9510    1.1470    2.1430 hc        1 1L1      0.032700
     29 H30         0.4420    1.6530   -1.7970 hn        1 1L1      0.429800
     30 H31        -0.8830    2.1640   -2.6370 hn        1 1L1      0.429800
     31 OXT        -0.9650   -3.1170    1.1290 o         1 1L1     -0.822300
     32 H19         4.9200   -0.6640    0.5880 hc        1 1L1      0.026700
     33 H20         5.2180    1.0240    1.1660 hc        1 1L1      0.026700
@<TRIPOS>BOND
     1    1    2 1   
     2    1    5 1   
     3    1   31 1   
     4    2    3 1   
     5    2    4 1   
     6    2   16 1   
     7    3   12 1   
     8    3   17 1   
     9    4    9 1   
    10    4   18 1   
    11    4   19 1   
    12    6    7 1   
    13    6   11 1   
    14    6   32 1   
    15    6   33 1   
    16    7    8 1   
    17    7   20 1   
    18    7   21 1   
    19    8    9 1   
    20    8   22 1   
    21    8   23 1   
    22    9   10 1   
    23    9   24 1   
    24   10   11 1   
    25   10   25 1   
    26   10   26 1   
    27   11   27 1   
    28   11   28 1   
    29   12   13 1   
    30   12   14 2   
    31   12   15 2   
    32   13   29 1   
    33   13   30 1   
@<TRIPOS>SUBSTRUCTURE
     1 1L1         1 TEMP              0 ****  ****    0 ROOT
