@<TRIPOS>MOLECULE
1L4
   57    60     1     0     0
SMALL
bcc


@<TRIPOS>ATOM
      1 NAA        -1.9210   -4.9910    0.4990 n1        1 1L4     -0.361800
      2 CAF        -1.6300   -3.9870    1.0100 cg        1 1L4      0.231800
      3 CAX        -1.2770   -2.7590    1.6310 ca        1 1L4     -0.017000
      4 CD2         0.0370   -2.2830    1.5400 ca        1 1L4     -0.094000
      5 CAH        -2.2440   -2.0270    2.3360 ca        1 1L4     -0.091000
      6 CAG        -1.8880   -0.8240    2.9410 ca        1 1L4     -0.131000
      7 CD1        -0.5810   -0.3480    2.8490 ca        1 1L4     -0.098000
      8 CG          0.3900   -1.0740    2.1490 ca        1 1L4     -0.083300
      9 CB          1.7950   -0.5940    2.0940 c3        1 1L4     -0.050100
     10 CA          2.2280   -0.1350    0.6880 c3        1 1L4      0.191500
     11 C           3.7620    0.1040    0.7960 c         1 1L4      0.629100
     12 O           4.1900    0.9460    1.6120 o         1 1L4     -0.607100
     13 NBE         4.6220   -0.6740    0.0560 n         1 1L4     -0.456800
     14 CAR         4.2370   -1.4260   -1.1260 c3        1 1L4      0.076500
     15 CAM         5.5050   -1.6590   -1.9650 c3        1 1L4     -0.089900
     16 CAN         6.6550   -0.9970   -1.2130 c3        1 1L4     -0.089900
     17 CAS         6.0550   -0.4140    0.0750 c3        1 1L4      0.076500
     18 N           1.5760    1.0570    0.2240 n3        1 1L4     -0.907100
     19 S1          1.0460    1.3020   -1.2860 sy        1 1L4      1.515200
     20 OAC         1.3380    2.6270   -1.6630 o         1 1L4     -0.652800
     21 OAD         1.5270    0.2690   -2.1270 o         1 1L4     -0.652800
     22 CBB        -0.6340    1.1540   -1.1570 ca        1 1L4     -0.350500
     23 CAL        -1.2930    0.0460   -1.6950 ca        1 1L4     -0.028000
     24 CBA        -2.6860   -0.0620   -1.6530 ca        1 1L4     -0.073300
     25 CAP        -3.3460   -1.2440   -2.2750 c3        1 1L4     -0.078100
     26 CAO        -4.8120   -1.3850   -1.8580 c3        1 1L4      0.150800
     27 NAU        -5.5620   -0.1470   -1.8110 n3        1 1L4     -0.792200
     28 CAQ        -4.9420    0.8450   -0.9590 c3        1 1L4      0.188100
     29 CBC        -3.4460    0.9490   -1.0500 ca        1 1L4     -0.083300
     30 CAY        -2.7840    2.0680   -0.5000 ca        1 1L4      0.105900
     31 FAE        -3.4990    3.0590    0.0860 f         1 1L4     -0.134900
     32 CAK        -1.3860    2.1700   -0.5620 ca        1 1L4     -0.058000
     33 H1          0.7960   -2.8660    0.9950 ha        1 1L4      0.144000
     34 H2         -3.2750   -2.4050    2.4120 ha        1 1L4      0.147000
     35 H3         -2.6430   -0.2470    3.4960 ha        1 1L4      0.143000
     36 H4         -0.3090    0.6020    3.3350 ha        1 1L4      0.141000
     37 H5          1.9570    0.2460    2.8220 hc        1 1L4      0.076700
     38 H6          2.4820   -1.4320    2.3970 hc        1 1L4      0.076700
     39 H7          2.0010   -0.9680   -0.0440 h1        1 1L4      0.083700
     40 H8          3.7960   -2.4100   -0.8020 h1        1 1L4      0.059700
     41 H9          3.4620   -0.8750   -1.7310 h1        1 1L4      0.059700
     42 H10         5.6870   -2.7540   -2.0920 hc        1 1L4      0.054950
     43 H11         5.3800   -1.2120   -2.9820 hc        1 1L4      0.054950
     44 H12         7.4530   -1.7380   -0.9670 hc        1 1L4      0.054950
     45 H13         7.1170   -0.1850   -1.8250 hc        1 1L4      0.054950
     46 H14         6.2500    0.6910    0.1570 h1        1 1L4      0.059700
     47 H15         6.4950   -0.9090    0.9840 h1        1 1L4      0.059700
     48 H16         1.5940    1.7920    0.8950 hn        1 1L4      0.459800
     49 H19        -0.7020   -0.7540   -2.1770 ha        1 1L4      0.163000
     50 H20        -3.2770   -1.1420   -3.3920 hc        1 1L4      0.064700
     51 H21        -2.7970   -2.1810   -1.9920 hc        1 1L4      0.064700
     52 H22        -5.3300   -2.0840   -2.5720 h1        1 1L4      0.061200
     53 H23        -4.8560   -1.8470   -0.8310 h1        1 1L4      0.061200
     54 H24        -5.6780    0.2190   -2.7400 hn        1 1L4      0.358800
     55 H26        -5.3960    1.8540   -1.1770 h1        1 1L4      0.075700
     56 H27        -5.1980    0.5840    0.1100 h1        1 1L4      0.075700
     57 H28        -0.8910    3.0680   -0.1570 ha        1 1L4      0.161000
@<TRIPOS>BOND
     1    1    2 3   
     2    2    3 1   
     3    3    4 ar  
     4    3    5 ar  
     5    4    8 ar  
     6    4   33 1   
     7    5    6 ar  
     8    5   34 1   
     9    6    7 ar  
    10    6   35 1   
    11    7    8 ar  
    12    7   36 1   
    13    8    9 1   
    14    9   10 1   
    15    9   37 1   
    16    9   38 1   
    17   10   11 1   
    18   10   18 1   
    19   10   39 1   
    20   11   12 2   
    21   11   13 1   
    22   13   14 1   
    23   13   17 1   
    24   14   15 1   
    25   14   40 1   
    26   14   41 1   
    27   15   16 1   
    28   15   42 1   
    29   15   43 1   
    30   16   17 1   
    31   16   44 1   
    32   16   45 1   
    33   17   46 1   
    34   17   47 1   
    35   18   19 1   
    36   18   48 1   
    37   19   20 2   
    38   19   21 2   
    39   19   22 1   
    40   22   23 ar  
    41   22   32 ar  
    42   23   24 ar  
    43   23   49 1   
    44   24   25 1   
    45   24   29 ar  
    46   25   26 1   
    47   25   50 1   
    48   25   51 1   
    49   26   27 1   
    50   26   52 1   
    51   26   53 1   
    52   27   28 1   
    53   27   54 1   
    54   28   29 1   
    55   28   55 1   
    56   28   56 1   
    57   29   30 ar  
    58   30   31 1   
    59   30   32 ar  
    60   32   57 1   
@<TRIPOS>SUBSTRUCTURE
     1 1L4         1 TEMP              0 ****  ****    0 ROOT
