@<TRIPOS>MOLECULE
1L4
   58    61     1     0     0
SMALL
bcc


@<TRIPOS>ATOM
      1 NAA        -0.5480    0.1750   -3.1670 n1        1 1L4     -0.321800
      2 CAF        -0.1590   -0.0400   -2.0910 cg        1 1L4      0.209800
      3 CAX         0.3140   -0.2890   -0.7740 ca        1 1L4     -0.005000
      4 CD2         1.6810   -0.1630   -0.4930 ca        1 1L4     -0.106000
      5 CAH        -0.5840   -0.6560    0.2380 ca        1 1L4     -0.073000
      6 CAG        -0.1100   -0.8790    1.5300 ca        1 1L4     -0.121000
      7 CD1         1.2470   -0.7360    1.8170 ca        1 1L4     -0.100000
      8 CG          2.1490   -0.3750    0.8070 ca        1 1L4     -0.145300
      9 CB          3.6020   -0.2900    1.1100 c3        1 1L4     -0.053100
     10 CA          4.2120    1.0810    0.7790 c3        1 1L4      0.049500
     11 C           5.6630    1.0650    1.3410 c         1 1L4      0.640100
     12 O           5.8320    1.4280    2.5270 o         1 1L4     -0.607100
     13 NBE         6.6700    0.6250    0.5460 n         1 1L4     -0.436800
     14 CAR         6.5610    0.2800   -0.8600 c3        1 1L4      0.085000
     15 CAM         7.9720   -0.0890   -1.3480 c3        1 1L4     -0.089400
     16 CAN         8.9120    0.1000   -0.1610 c3        1 1L4     -0.089400
     17 CAS         8.0470    0.5440    1.0260 c3        1 1L4      0.085000
     18 N           3.4560    2.2180    1.3770 n4        1 1L4     -0.703900
     19 S1          3.5750    3.8610    0.4170 sy        1 1L4      1.480200
     20 OAC         4.3330    4.6160    1.2860 o         1 1L4     -0.569800
     21 OAD         4.0680    3.4590   -0.8110 o         1 1L4     -0.569800
     22 CBB         2.0050    4.2170    0.4140 ca        1 1L4     -0.512500
     23 CAL         1.2100    3.9890   -0.7250 ca        1 1L4     -0.004000
     24 CBA        -0.1230    4.3940   -0.7820 ca        1 1L4     -0.059300
     25 CAP        -0.9080    4.1790   -2.0290 c3        1 1L4     -0.050100
     26 CAO        -2.4150    4.3210   -1.8030 c3        1 1L4      0.161800
     27 NAU        -2.7400    5.4840   -1.0050 n3        1 1L4     -0.822200
     28 CAQ        -2.1360    5.4840    0.3090 c3        1 1L4      0.187100
     29 CBC        -0.7070    5.0360    0.3210 ca        1 1L4      0.019700
     30 CAY         0.0790    5.2610    1.4820 ca        1 1L4      0.116900
     31 FAE        -0.4660    5.8740    2.5580 f         1 1L4     -0.105900
     32 CAK         1.4180    4.8640    1.5200 ca        1 1L4     -0.054000
     33 H1          2.3850    0.0800   -1.3040 ha        1 1L4      0.146000
     34 H2         -1.6560   -0.7770    0.0100 ha        1 1L4      0.164000
     35 H3         -0.8100   -1.1820    2.3260 ha        1 1L4      0.162000
     36 H4          1.6110   -0.9310    2.8390 ha        1 1L4      0.152000
     37 H5          3.7920   -0.5270    2.1930 hc        1 1L4      0.096700
     38 H6          4.1570   -1.0560    0.4990 hc        1 1L4      0.096700
     39 H7          4.2070    1.2320   -0.3430 hx        1 1L4      0.123700
     40 H8          6.1570    1.1540   -1.4440 h1        1 1L4      0.061950
     41 H9          5.8560   -0.5880   -0.9860 h1        1 1L4      0.061950
     42 H10         7.9890   -1.1470   -1.7070 hc        1 1L4      0.070450
     43 H11         8.2660    0.5700   -2.2020 hc        1 1L4      0.070450
     44 H12         9.6860    0.8760   -0.3840 hc        1 1L4      0.070450
     45 H13         9.4430   -0.8530    0.0840 hc        1 1L4      0.070450
     46 H14         8.3650    1.5480    1.4200 h1        1 1L4      0.061950
     47 H15         8.0970   -0.1940    1.8740 h1        1 1L4      0.061950
     48 H16         3.8350    2.3690    2.3250 hn        1 1L4      0.463800
     49 H19         1.6590    3.4980   -1.6100 ha        1 1L4      0.170000
     50 H20        -0.7040    3.1590   -2.4500 hc        1 1L4      0.081700
     51 H21        -0.5720    4.9350   -2.7920 hc        1 1L4      0.081700
     52 H22        -2.7980    3.3630   -1.3420 h1        1 1L4      0.050700
     53 H23        -2.9180    4.4440   -2.8040 h1        1 1L4      0.050700
     54 H24        -3.7320    5.6120   -0.9350 hn        1 1L4      0.397800
     55 H26        -2.1860    6.5450    0.7000 h1        1 1L4      0.076700
     56 H27        -2.6860    4.8290    1.0540 h1        1 1L4      0.076700
     57 H28         2.0210    5.0930    2.4180 ha        1 1L4      0.179000
     58 H25         2.4830    1.9270    1.4820 hn        1 1L4      0.463800
@<TRIPOS>BOND
     1    1    2 3   
     2    2    3 1   
     3    3    4 ar  
     4    3    5 ar  
     5    4    8 ar  
     6    4   33 1   
     7    5    6 ar  
     8    5   34 1   
     9    6    7 ar  
    10    6   35 1   
    11    7    8 ar  
    12    7   36 1   
    13    8    9 1   
    14    9   10 1   
    15    9   37 1   
    16    9   38 1   
    17   10   11 1   
    18   10   18 1   
    19   10   39 1   
    20   11   12 2   
    21   11   13 1   
    22   13   14 1   
    23   13   17 1   
    24   14   15 1   
    25   14   40 1   
    26   14   41 1   
    27   15   16 1   
    28   15   42 1   
    29   15   43 1   
    30   16   17 1   
    31   16   44 1   
    32   16   45 1   
    33   17   46 1   
    34   17   47 1   
    35   18   19 1   
    36   18   48 1   
    37   18   58 1   
    38   19   20 2   
    39   19   21 2   
    40   19   22 1   
    41   22   23 ar  
    42   22   32 ar  
    43   23   24 ar  
    44   23   49 1   
    45   24   25 1   
    46   24   29 ar  
    47   25   26 1   
    48   25   50 1   
    49   25   51 1   
    50   26   27 1   
    51   26   52 1   
    52   26   53 1   
    53   27   28 1   
    54   27   54 1   
    55   28   29 1   
    56   28   55 1   
    57   28   56 1   
    58   29   30 ar  
    59   30   31 1   
    60   30   32 ar  
    61   32   57 1   
@<TRIPOS>SUBSTRUCTURE
     1 1L4         1 TEMP              0 ****  ****    0 ROOT
