@<TRIPOS>MOLECULE
1L4
   57    52     1     0     0
SMALL
bcc


@<TRIPOS>ATOM
      1 NAA        -3.8920   -2.2960    3.6140 n1        1 1L4     -0.036000
      2 CAF        -3.0980   -2.4970    2.8220 c1        1 1L4     -0.098000
      3 CAX        -2.0450   -2.7640    1.7700 c1        1 1L4     -0.018000
      4 CD2        -2.2130   -2.2790    0.4830 c2        1 1L4     -0.088000
      5 CAH        -0.9050   -3.4810    2.0980 c1        1 1L4     -0.092000
      6 CAG         0.0670   -3.7130    1.1390 c1        1 1L4     -0.123000
      7 CD1        -0.1000   -3.2270   -0.1490 c1        1 1L4     -0.123000
      8 CG         -1.2400   -2.5110   -0.4780 c1        1 1L4     -0.083000
      9 CB         -1.4770   -2.0840   -1.9120 c2        1 1L4     -0.127000
     10 CA         -0.8080   -0.7480   -2.1580 c3        1 1L4      0.048000
     11 C           0.6890   -0.9410   -2.2340 c2        1 1L4      0.281000
     12 O           1.3910   -0.6160   -1.2980 o         1 1L4     -0.378000
     13 NBE         1.2700   -1.5280   -3.3870 n         1 1L4     -0.313000
     14 CAR         0.5060   -2.0130   -4.7030 c3        1 1L4     -0.040500
     15 CAM         1.3040   -1.7190   -5.7270 c3        1 1L4     -0.168500
     16 CAN         2.7190   -1.7340   -5.1420 c3        1 1L4     -0.168500
     17 CAS         2.5280   -1.7780   -3.5810 c3        1 1L4     -0.040500
     18 N          -1.1180    0.1400   -1.0930 n3        1 1L4     -0.880000
     19 S1         -0.4540    1.6430   -1.0590 s4        1 1L4      2.072800
     20 OAC         0.8960    1.6290   -1.5480 o         1 1L4     -0.540900
     21 OAD        -1.0870    2.5140   -2.0100 o         1 1L4     -0.540900
     22 CBB        -0.5370    2.3130    0.5810 c1        1 1L4     -0.802000
     23 CAL         0.5500    2.1630    1.4550 c1        1 1L4     -0.027000
     24 CBA         0.4940    2.7030    2.7310 c1        1 1L4     -0.059000
     25 CAP         1.6590    2.5810    3.7410 c2        1 1L4     -0.126000
     26 CAO         1.5230    3.3130    4.9580 c3        1 1L4     -0.073000
     27 NAU         0.2420    3.4150    5.4920 n3        1 1L4     -0.296000
     28 CAQ        -0.7550    3.8730    4.6770 c3        1 1L4     -0.045000
     29 CBC        -0.6850    3.4190    3.1580 c2        1 1L4     -0.038000
     30 CAY        -1.7570    3.5640    2.2920 c1        1 1L4      0.064000
     31 FAE        -2.8350    4.2610    2.6740 f         1 1L4     -0.101000
     32 CAK        -1.6960    3.0170    1.0020 c1        1 1L4     -0.063000
     33 H1         -3.0150   -1.7750    0.2520 ha        1 1L4      0.144000
     34 H2         -0.7870   -3.8220    3.0050 ha        1 1L4      0.145000
     35 H3          0.8700   -4.2170    1.3700 ha        1 1L4      0.161000
     36 H4          0.5850   -3.3910   -0.8250 ha        1 1L4      0.161000
     37 H5         -1.1010   -2.7530   -2.5170 ha        1 1L4      0.105000
     38 H6         -2.4380   -2.0020   -2.0720 ha        1 1L4      0.105000
     39 H7         -1.1320   -0.3720   -3.0000 h1        1 1L4      0.114000
     40 H8          0.3490   -2.9780   -4.6650 h1        1 1L4      0.100000
     41 H9         -0.3450   -1.5360   -4.7920 h1        1 1L4      0.100000
     42 H10         1.0910   -0.8310   -6.0810 hc        1 1L4      0.094000
     43 H11         1.2190   -2.3960   -6.4300 hc        1 1L4      0.094000
     44 H12         3.2030   -2.5280   -5.4460 hc        1 1L4      0.094000
     45 H13         3.2010   -0.9230   -5.4010 hc        1 1L4      0.094000
     46 H14         3.0810   -1.0930   -3.1510 h1        1 1L4      0.100000
     47 H15         2.7560   -2.6660   -3.2360 h1        1 1L4      0.100000
     48 H16        -1.7160   -0.1100   -0.4510 hn        1 1L4      0.262000
     49 H19         1.3580    1.7060    1.1540 ha        1 1L4      0.158000
     50 H20         2.4780    2.8830    3.2970 ha        1 1L4      0.106500
     51 H21         1.7650    1.6350    3.9670 ha        1 1L4      0.106500
     52 H22         1.8580    4.2220    4.8030 h1        1 1L4      0.076000
     53 H23         2.0970    2.8880    5.6310 h1        1 1L4      0.076000
     54 H24         0.2680    3.9200    6.2550 hn        1 1L4      0.169000
     55 H26        -1.6040    3.5510    5.0410 h1        1 1L4      0.096000
     56 H27        -0.7210    4.8520    4.6920 h1        1 1L4      0.096000
     57 H28        -2.4520    3.1210    0.3920 ha        1 1L4      0.165000
@<TRIPOS>BOND
     1    1    2 1   
     2    3    4 1   
     3    3    5 1   
     4    4    8 1   
     5    4   33 1   
     6    5   34 1   
     7    6    7 1   
     8    6   35 1   
     9    7   36 1   
    10    9   10 1   
    11    9   37 1   
    12    9   38 1   
    13   10   11 1   
    14   10   18 1   
    15   10   39 1   
    16   11   12 1   
    17   11   13 1   
    18   13   14 1   
    19   13   17 1   
    20   14   15 1   
    21   14   40 1   
    22   14   41 1   
    23   15   16 1   
    24   15   42 1   
    25   15   43 1   
    26   16   17 1   
    27   16   44 1   
    28   16   45 1   
    29   17   46 1   
    30   17   47 1   
    31   18   19 1   
    32   18   48 1   
    33   19   20 1   
    34   19   21 1   
    35   22   32 1   
    36   23   24 1   
    37   23   49 1   
    38   24   29 1   
    39   25   26 1   
    40   25   50 1   
    41   25   51 1   
    42   26   27 1   
    43   26   52 1   
    44   26   53 1   
    45   27   28 1   
    46   27   54 1   
    47   28   29 1   
    48   28   55 1   
    49   28   56 1   
    50   29   30 1   
    51   30   31 1   
    52   32   57 1   
@<TRIPOS>SUBSTRUCTURE
     1 1L4         1 TEMP              0 ****  ****    0 ROOT
