@<TRIPOS>MOLECULE
1L4
   58    61     1     0     0
SMALL
bcc


@<TRIPOS>ATOM
      1 NAA        -0.5480    0.0730   -3.1080 n1        1 1L4     -0.321800
      2 CAF        -0.1580   -0.1080   -2.0280 cg        1 1L4      0.209800
      3 CAX         0.3170   -0.3170   -0.7040 ca        1 1L4     -0.005000
      4 CD2         1.6830   -0.1800   -0.4280 ca        1 1L4     -0.106000
      5 CAH        -0.5800   -0.6550    0.3200 ca        1 1L4     -0.073000
      6 CAG        -0.1030   -0.8380    1.6180 ca        1 1L4     -0.121000
      7 CD1         1.2530   -0.6830    1.8990 ca        1 1L4     -0.100000
      8 CG          2.1540   -0.3520    0.8770 ca        1 1L4     -0.145300
      9 CB          3.6070   -0.2550    1.1750 c3        1 1L4     -0.053100
     10 CA          4.2150    1.1050    0.8010 c3        1 1L4      0.049500
     11 C           5.6660    1.1090    1.3620 c         1 1L4      0.640100
     12 O           5.8350    1.5100    2.5350 o         1 1L4     -0.607100
     13 NBE         6.6730    0.6460    0.5800 n         1 1L4     -0.436800
     14 CAR         6.5630    0.2550   -0.8140 c3        1 1L4      0.085000
     15 CAM         7.9750   -0.1270   -1.2910 c3        1 1L4     -0.089400
     16 CAN         8.9160    0.1010   -0.1110 c3        1 1L4     -0.089400
     17 CAS         8.0500    0.5820    1.0620 c3        1 1L4      0.085000
     18 N           3.4580    2.2600    1.3630 n4        1 1L4     -0.703900
     19 S1          3.5720    3.8710    0.3510 sy        1 1L4      1.480200
     20 OAC         4.3340    4.6540    1.1930 o         1 1L4     -0.569800
     21 OAD         4.0630    3.4310   -0.8650 o         1 1L4     -0.569800
     22 CBB         2.0020    4.2270    0.3420 ca        1 1L4     -0.512500
     23 CAL         1.2040    3.9620   -0.7870 ca        1 1L4     -0.004000
     24 CBA        -0.1290    4.3640   -0.8530 ca        1 1L4     -0.059300
     25 CAP        -0.9180    4.1090   -2.0900 c3        1 1L4     -0.050100
     26 CAO        -2.4240    4.2580   -1.8630 c3        1 1L4      0.161800
     27 NAU        -2.7480    5.4450   -1.1020 n3        1 1L4     -0.822200
     28 CAQ        -2.1390    5.4870    0.2090 c3        1 1L4      0.187100
     29 CBC        -0.7100    5.0410    0.2320 ca        1 1L4      0.019700
     30 CAY         0.0790    5.3040    1.3820 ca        1 1L4      0.116900
     31 FAE        -0.4630    5.9500    2.4390 f         1 1L4     -0.105900
     32 CAK         1.4190    4.9090    1.4280 ca        1 1L4     -0.054000
     33 H1          2.3860    0.0400   -1.2470 ha        1 1L4      0.146000
     34 H2         -1.6510   -0.7840    0.0970 ha        1 1L4      0.164000
     35 H3         -0.8020   -1.1170    2.4230 ha        1 1L4      0.162000
     36 H4          1.6190   -0.8470    2.9250 ha        1 1L4      0.152000
     37 H5          4.1630   -1.0390    0.5890 hc        1 1L4      0.096700
     38 H6          3.7980   -0.4580    2.2650 hc        1 1L4      0.096700
     39 H7          4.2080    1.2210   -0.3260 hx        1 1L4      0.123700
     40 H8          5.8590   -0.6170   -0.9110 h1        1 1L4      0.061950
     41 H9          6.1580    1.1100   -1.4250 h1        1 1L4      0.061950
     42 H10         8.2680    0.5040   -2.1650 hc        1 1L4      0.070450
     43 H11         7.9930   -1.1960   -1.6160 hc        1 1L4      0.070450
     44 H12         9.4480   -0.8430    0.1650 hc        1 1L4      0.070450
     45 H13         9.6880    0.8700   -0.3600 hc        1 1L4      0.070450
     46 H14         8.3680    1.5990    1.4230 h1        1 1L4      0.061950
     47 H15         8.1030   -0.1280    1.9330 h1        1 1L4      0.061950
     48 H16         3.8370    2.4410    2.3050 hn        1 1L4      0.463800
     49 H19         1.6510    3.4440   -1.6570 ha        1 1L4      0.170000
     50 H20        -0.5850    4.8410   -2.8770 hc        1 1L4      0.081700
     51 H21        -0.7150    3.0760   -2.4780 hc        1 1L4      0.081700
     52 H22        -2.8050    3.3150   -1.3700 h1        1 1L4      0.050700
     53 H23        -2.9310    4.3480   -2.8660 h1        1 1L4      0.050700
     54 H24        -3.7400    5.5750   -1.0320 hn        1 1L4      0.397800
     55 H26        -2.6870    4.8570    0.9770 h1        1 1L4      0.076700
     56 H27        -2.1880    6.5610    0.5670 h1        1 1L4      0.076700
     57 H28         2.0250    5.1660    2.3170 ha        1 1L4      0.179000
     58 H25         2.4850    1.9710    1.4780 hn        1 1L4      0.463800
@<TRIPOS>BOND
     1    1    2 3   
     2    2    3 1   
     3    3    4 ar  
     4    3    5 ar  
     5    4    8 ar  
     6    4   33 1   
     7    5    6 ar  
     8    5   34 1   
     9    6    7 ar  
    10    6   35 1   
    11    7    8 ar  
    12    7   36 1   
    13    8    9 1   
    14    9   10 1   
    15    9   37 1   
    16    9   38 1   
    17   10   11 1   
    18   10   18 1   
    19   10   39 1   
    20   11   12 2   
    21   11   13 1   
    22   13   14 1   
    23   13   17 1   
    24   14   15 1   
    25   14   40 1   
    26   14   41 1   
    27   15   16 1   
    28   15   42 1   
    29   15   43 1   
    30   16   17 1   
    31   16   44 1   
    32   16   45 1   
    33   17   46 1   
    34   17   47 1   
    35   18   19 1   
    36   18   48 1   
    37   18   58 1   
    38   19   20 2   
    39   19   21 2   
    40   19   22 1   
    41   22   23 ar  
    42   22   32 ar  
    43   23   24 ar  
    44   23   49 1   
    45   24   25 1   
    46   24   29 ar  
    47   25   26 1   
    48   25   50 1   
    49   25   51 1   
    50   26   27 1   
    51   26   52 1   
    52   26   53 1   
    53   27   28 1   
    54   27   54 1   
    55   28   29 1   
    56   28   55 1   
    57   28   56 1   
    58   29   30 ar  
    59   30   31 1   
    60   30   32 ar  
    61   32   57 1   
@<TRIPOS>SUBSTRUCTURE
     1 1L4         1 TEMP              0 ****  ****    0 ROOT
