@<TRIPOS>MOLECULE
1L5
   21    21     1     0     0
SMALL
bcc


@<TRIPOS>ATOM
      1 C1         -0.4720   -0.4130    0.1590 ce        1 1L5      0.071600
      2 C2          0.9650   -0.1470    0.0590 ca        1 1L5     -0.093800
      3 C3          1.8140   -1.0850   -0.5480 ca        1 1L5     -0.102500
      4 C4          3.1800   -0.8290   -0.6480 ca        1 1L5     -0.130500
      5 C5          3.7120    0.3550   -0.1370 ca        1 1L5     -0.109000
      6 C6          2.8730    1.2890    0.4710 ca        1 1L5     -0.130500
      7 C7          1.5050    1.0440    0.5660 ca        1 1L5     -0.102500
      8 C8         -1.3400    0.5890   -0.1170 c2        1 1L5     -0.264100
      9 O1         -3.3270   -0.5700    0.2300 o         1 1L5     -0.220000
     10 N          -2.8020    0.4760   -0.0550 no        1 1L5      0.287100
     11 O          -3.4510    1.4610   -0.2990 o         1 1L5     -0.220000
     12 C          -0.8950   -1.7730    0.5610 c3        1 1L5     -0.086900
     13 H1          1.3980   -2.0190   -0.9550 ha        1 1L5      0.140500
     14 H2          3.8390   -1.5660   -1.1310 ha        1 1L5      0.140000
     15 H3          4.7920    0.5520   -0.2140 ha        1 1L5      0.139000
     16 H4          3.2900    2.2230    0.8760 ha        1 1L5      0.140000
     17 H5          0.8460    1.7820    1.0500 ha        1 1L5      0.140500
     18 H6         -1.0270    1.6030   -0.4260 h4        1 1L5      0.186000
     19 H7         -1.5550   -1.7180    1.4660 hc        1 1L5      0.072367
     20 H8         -1.4980   -2.2460   -0.2570 hc        1 1L5      0.072367
     21 H9         -0.0190   -2.4260    0.7940 hc        1 1L5      0.072367
@<TRIPOS>BOND
     1    1    2 1   
     2    1    8 2   
     3    1   12 1   
     4    2    3 ar  
     5    2    7 ar  
     6    3    4 ar  
     7    3   13 1   
     8    4    5 ar  
     9    4   14 1   
    10    5    6 ar  
    11    5   15 1   
    12    6    7 ar  
    13    6   16 1   
    14    7   17 1   
    15    8   10 1   
    16    8   18 1   
    17    9   10 1   
    18   10   11 1   
    19   12   19 1   
    20   12   20 1   
    21   12   21 1   
@<TRIPOS>SUBSTRUCTURE
     1 1L5         1 TEMP              0 ****  ****    0 ROOT
