@<TRIPOS>MOLECULE
1L5
   22    22     1     0     0
SMALL
bcc


@<TRIPOS>ATOM
      1 C1          0.0260    0.0910    0.1170 ce        1 1L5      0.159600
      2 C2          1.4770    0.0380    0.1070 ca        1 1L5     -0.145800
      3 C3          2.2170    0.7700    1.0550 ca        1 1L5     -0.074500
      4 C4          3.6070    0.7200    1.0520 ca        1 1L5     -0.130500
      5 C5          4.2810   -0.0490    0.1000 ca        1 1L5     -0.060000
      6 C6          3.5570   -0.7710   -0.8510 ca        1 1L5     -0.130500
      7 C7          2.1660   -0.7330   -0.8480 ca        1 1L5     -0.074500
      8 C8         -0.6900   -0.9720   -0.3570 c2        1 1L5     -0.171900
      9 O1         -2.0740   -1.0010   -0.1530 os        1 1L5     -0.077400
     10 N          -2.9170   -0.8510   -1.1480 n3        1 1L5      0.127500
     11 O          -2.5580   -0.6830   -2.2420 o         1 1L5     -0.073000
     12 C          -0.6240    1.2900    0.6910 c3        1 1L5     -0.108900
     13 H1          1.6990    1.3780    1.8140 ha        1 1L5      0.140000
     14 H2          4.1780    1.2900    1.8030 ha        1 1L5      0.160000
     15 H3          5.3830   -0.0850    0.0990 ha        1 1L5      0.161000
     16 H4          4.0870   -1.3720   -1.6060 ha        1 1L5      0.160000
     17 H5          1.6110   -1.2950   -1.6150 ha        1 1L5      0.140000
     18 H6         -0.3000   -1.8920   -0.8140 h4        1 1L5      0.202000
     19 H7         -1.7030    1.3560    0.4080 hc        1 1L5      0.081367
     20 H8         -0.5610    1.2540    1.8110 hc        1 1L5      0.081367
     21 H9         -0.1050    2.2220    0.3450 hc        1 1L5      0.081367
     22 HN1        -3.9200   -0.9720   -0.8500 hn        1 1L5      0.552800
@<TRIPOS>BOND
     1    1    2 1   
     2    1    8 2   
     3    1   12 1   
     4    2    3 ar  
     5    2    7 ar  
     6    3    4 ar  
     7    3   13 1   
     8    4    5 ar  
     9    4   14 1   
    10    5    6 ar  
    11    5   15 1   
    12    6    7 ar  
    13    6   16 1   
    14    7   17 1   
    15    8    9 1   
    16    8   18 1   
    17    9   10 1   
    18   10   11 1   
    19   10   22 1   
    20   12   19 1   
    21   12   20 1   
    22   12   21 1   
@<TRIPOS>SUBSTRUCTURE
     1 1L5         1 TEMP              0 ****  ****    0 ROOT
