@<TRIPOS>MOLECULE
1L5
   21    16     1     0     0
SMALL
bcc


@<TRIPOS>ATOM
      1 C1         -1.3780   -0.2260   -0.0120 c1        1 1L5     -0.026500
      2 C2          0.1340   -0.1660   -0.0040 c1        1 1L5     -0.026500
      3 C3          0.8230   -0.2180    1.1980 c1        1 1L5     -0.120500
      4 C4          2.2090   -0.2340    1.2020 c1        1 1L5     -0.120500
      5 C5          2.9070   -0.1990    0.0050 c1        1 1L5     -0.120500
      6 C6          2.2180   -0.1470   -1.1970 c1        1 1L5     -0.120500
      7 C7          0.8320   -0.1310   -1.2010 c1        1 1L5     -0.148000
      8 C8         -2.0970    0.9140    0.0180 c1        1 1L5     -0.148000
      9 O1         -1.1760    2.6900    1.1310 o         1 1L5     -0.306700
     10 N          -1.4370    2.1690    0.0560 n2        1 1L5      0.451400
     11 O          -1.1440    2.7370   -0.9850 o         1 1L5     -0.306700
     12 C          -2.0820   -1.5640   -0.0520 c2        1 1L5     -0.197000
     13 H1          0.3320   -0.2420    2.0410 ha        1 1L5      0.136250
     14 H2          2.6940   -0.2700    2.0490 ha        1 1L5      0.136250
     15 H3          3.8830   -0.2100    0.0080 ha        1 1L5      0.136250
     16 H4          2.7090   -0.1220   -2.0400 ha        1 1L5      0.136250
     17 H5          0.3470   -0.0950   -2.0480 ha        1 1L5      0.170000
     18 H6         -3.0730    0.8750    0.0130 ha        1 1L5      0.170000
     19 H7         -2.6340   -1.6680    0.7510 ha        1 1L5      0.101333
     20 H8         -2.6510   -1.6100   -0.8490 ha        1 1L5      0.101333
     21 H9         -1.4160   -2.2830   -0.0850 ha        1 1L5      0.101333
@<TRIPOS>BOND
     1    1    2 1   
     2    1    8 1   
     3    2    7 1   
     4    3    4 1   
     5    3   13 1   
     6    4   14 1   
     7    5    6 1   
     8    5   15 1   
     9    6   16 1   
    10    7   17 1   
    11    8   18 1   
    12    9   10 2   
    13   10   11 2   
    14   12   19 1   
    15   12   20 1   
    16   12   21 1   
@<TRIPOS>SUBSTRUCTURE
     1 1L5         1 TEMP              0 ****  ****    0 ROOT
