@<TRIPOS>MOLECULE
1L5
   22    22     1     0     0
SMALL
bcc


@<TRIPOS>ATOM
      1 C1          0.0380    0.2010   -0.0610 ce        1 1L5      0.161600
      2 C2          1.4860    0.1160   -0.0050 ca        1 1L5     -0.147800
      3 C3          2.1650    0.3920    1.1980 ca        1 1L5     -0.074500
      4 C4          3.5510    0.3020    1.2580 ca        1 1L5     -0.131000
      5 C5          4.2840   -0.0490    0.1220 ca        1 1L5     -0.060000
      6 C6          3.6220   -0.3110   -1.0790 ca        1 1L5     -0.131000
      7 C7          2.2340   -0.2330   -1.1450 ca        1 1L5     -0.074500
      8 C8         -0.6420   -0.5040   -1.0140 c2        1 1L5     -0.174900
      9 O1         -1.9930   -0.2220   -1.2450 os        1 1L5     -0.077400
     10 N          -2.9430   -1.0340   -0.8440 n7        1 1L5      0.126500
     11 O          -2.7110   -2.0220   -0.2720 o         1 1L5     -0.071000
     12 C          -0.6480    1.0760    0.9170 c3        1 1L5     -0.113900
     13 H1          1.6010    0.6690    2.1030 ha        1 1L5      0.141000
     14 H2          4.0730    0.5100    2.2070 ha        1 1L5      0.159500
     15 H3          5.3830   -0.1150    0.1730 ha        1 1L5      0.161000
     16 H4          4.1990   -0.5790   -1.9790 ha        1 1L5      0.159500
     17 H5          1.7290   -0.4220   -2.1050 ha        1 1L5      0.141000
     18 H6         -0.2350   -1.2490   -1.7120 h4        1 1L5      0.203000
     19 H7         -1.7090    1.2750    0.6310 hc        1 1L5      0.082700
     20 H8         -0.6340    0.5960    1.9310 hc        1 1L5      0.082700
     21 H9         -0.1160    2.0600    0.9960 hc        1 1L5      0.082700
     22 HN1        -3.8990   -0.7240   -1.1560 hn        1 1L5      0.552800
@<TRIPOS>BOND
     1    1    2 1   
     2    1    8 2   
     3    1   12 1   
     4    2    3 ar  
     5    2    7 ar  
     6    3    4 ar  
     7    3   13 1   
     8    4    5 ar  
     9    4   14 1   
    10    5    6 ar  
    11    5   15 1   
    12    6    7 ar  
    13    6   16 1   
    14    7   17 1   
    15    8    9 1   
    16    8   18 1   
    17    9   10 1   
    18   10   11 1   
    19   10   22 1   
    20   12   19 1   
    21   12   20 1   
    22   12   21 1   
@<TRIPOS>SUBSTRUCTURE
     1 1L5         1 TEMP              0 ****  ****    0 ROOT
