@<TRIPOS>MOLECULE
1L6
   59    62     1     0     0
SMALL
bcc


@<TRIPOS>ATOM
      1 N3          4.2370   -0.8380   -0.1260 nc        1 1L6     -0.492800
      2 C7          1.7560   -3.3210   -0.8410 c3        1 1L6     -0.088600
      3 C6          1.9670   -2.9010    1.6110 c3        1 1L6     -0.088600
      4 C9          3.7790   -5.0800    0.5540 c3        1 1L6     -0.093100
      5 C13        -3.6170   -0.9970   -0.4860 ca        1 1L6     -0.146500
      6 C20        -6.6040   -0.8450   -0.8560 cc        1 1L6     -0.250600
      7 C21        -7.9150   -0.6640   -0.3930 cd        1 1L6      0.301200
      8 C8          3.9670   -3.6080    0.2870 c3        1 1L6     -0.073400
      9 C18        -2.2380   -0.8840   -0.6280 ca        1 1L6     -0.087500
     10 C16        -2.3880    1.5040   -0.2910 ca        1 1L6     -0.087500
     11 C26         2.3940    2.3080   -0.5300 c         1 1L6      0.742100
     12 O31         3.0980    3.2650   -0.1390 o         1 1L6     -0.662500
     13 C1          2.8260    0.9050   -0.4040 cc        1 1L6     -0.185900
     14 N4          4.1560    0.4740   -0.3610 na        1 1L6      0.140400
     15 C10         5.3270    1.3350   -0.4680 c3        1 1L6      0.007300
     16 C11         5.9090    1.7960    0.8820 c3        1 1L6      0.124400
     17 O25         5.8930    3.2020    0.9760 oh        1 1L6     -0.603800
     18 N27         1.1570    2.5670   -1.0810 n         1 1L6     -0.557900
     19 C28         0.3030    1.5770   -1.6620 c3        1 1L6      0.015700
     20 C29        -0.1510    0.4840   -0.6990 ce        1 1L6      0.442900
     21 N30         0.6390   -0.3370   -0.0770 nf        1 1L6     -0.509100
     22 C12         2.0150   -0.2480   -0.1850 cd        1 1L6     -0.007900
     23 C2          2.9740   -1.3410   -0.0070 cd        1 1L6      0.355600
     24 C5          2.6660   -2.7900    0.2610 c3        1 1L6     -0.062300
     25 C17        -1.6130    0.3650   -0.5380 ca        1 1L6     -0.141900
     26 C15        -3.7670    1.4060   -0.1470 ca        1 1L6     -0.146500
     27 C14        -4.4040    0.1500   -0.2430 ca        1 1L6      0.027800
     28 N19        -5.8000    0.0330   -0.1130 na        1 1L6     -0.147000
     29 C23        -6.6620    0.7070    0.7920 cc        1 1L6      0.419800
     30 C24        -6.2060    1.7130    1.7840 c3        1 1L6     -0.127400
     31 N22        -7.9400    0.2900    0.6220 nd        1 1L6     -0.664000
     32 H1          2.2550   -3.2240   -1.8350 hc        1 1L6      0.042033
     33 H2          1.5290   -4.3990   -0.6570 hc        1 1L6      0.042033
     34 H3          0.7880   -2.7690   -0.8650 hc        1 1L6      0.042033
     35 H4          1.0780   -2.2310    1.6600 hc        1 1L6      0.042033
     36 H5          1.6200   -3.9510    1.7720 hc        1 1L6      0.042033
     37 H6          2.6700   -2.6260    2.4330 hc        1 1L6      0.042033
     38 H7          3.2560   -5.2530    1.5250 hc        1 1L6      0.033700
     39 H8          3.1910   -5.5710   -0.2590 hc        1 1L6      0.033700
     40 H9          4.7790   -5.5780    0.6040 hc        1 1L6      0.033700
     41 H10        -4.0890   -1.9900   -0.5580 ha        1 1L6      0.150000
     42 H11        -6.1940   -1.4880   -1.6320 h4        1 1L6      0.180000
     43 H12        -8.8260   -1.1590   -0.7280 h4        1 1L6      0.045100
     44 H13         4.6400   -3.1880    1.0810 hc        1 1L6      0.049700
     45 H14         4.4880   -3.4860   -0.7000 hc        1 1L6      0.049700
     46 H15        -1.6340   -1.7900   -0.8030 ha        1 1L6      0.146500
     47 H16        -1.9050    2.4890   -0.1990 ha        1 1L6      0.146500
     48 H17         6.1200    0.7750   -1.0400 h1        1 1L6      0.087700
     49 H18         5.0210    2.2440   -1.0640 h1        1 1L6      0.087700
     50 H19         5.3710    1.3370    1.7540 h1        1 1L6      0.059700
     51 H20         6.9970    1.5200    0.9350 h1        1 1L6      0.059700
     52 H21         4.9690    3.4910    0.9570 ho        1 1L6      0.428000
     53 H22         0.8290    3.5050   -1.0400 hn        1 1L6      0.331500
     54 H23        -0.5980    2.0980   -2.0940 h1        1 1L6      0.071200
     55 H24         0.8480    1.0660   -2.5140 h1        1 1L6      0.071200
     56 H27        -4.3570    2.3180    0.0370 ha        1 1L6      0.150000
     57 H28        -6.8930    1.7150    2.6670 hc        1 1L6      0.061033
     58 H29        -5.1690    1.4880    2.1360 hc        1 1L6      0.061033
     59 H30        -6.2220    2.7320    1.3210 hc        1 1L6      0.061033
@<TRIPOS>BOND
     1    1   14 1   
     2    1   23 2   
     3    2   24 1   
     4    2   32 1   
     5    2   33 1   
     6    2   34 1   
     7    3   24 1   
     8    3   35 1   
     9    3   36 1   
    10    3   37 1   
    11    4    8 1   
    12    4   38 1   
    13    4   39 1   
    14    4   40 1   
    15    5    9 ar  
    16    5   27 ar  
    17    5   41 1   
    18    6    7 2   
    19    6   28 1   
    20    6   42 1   
    21    7   31 1   
    22    7   43 1   
    23    8   24 1   
    24    8   44 1   
    25    8   45 1   
    26    9   25 ar  
    27    9   46 1   
    28   10   25 ar  
    29   10   26 ar  
    30   10   47 1   
    31   11   12 2   
    32   11   13 1   
    33   11   18 1   
    34   13   14 1   
    35   13   22 2   
    36   14   15 1   
    37   15   16 1   
    38   15   48 1   
    39   15   49 1   
    40   16   17 1   
    41   16   50 1   
    42   16   51 1   
    43   17   52 1   
    44   18   19 1   
    45   18   53 1   
    46   19   20 1   
    47   19   54 1   
    48   19   55 1   
    49   20   21 2   
    50   20   25 1   
    51   21   22 1   
    52   22   23 1   
    53   23   24 1   
    54   26   27 ar  
    55   26   56 1   
    56   27   28 1   
    57   28   29 1   
    58   29   30 1   
    59   29   31 2   
    60   30   57 1   
    61   30   58 1   
    62   30   59 1   
@<TRIPOS>SUBSTRUCTURE
     1 1L6         1 TEMP              0 ****  ****    0 ROOT
