@<TRIPOS>MOLECULE
1L6
   59    62     1     0     0
SMALL
bcc


@<TRIPOS>ATOM
      1 N3         -0.0780   -0.0260   -0.0770 nc        1 1L6     -0.492800
      2 C7         -2.3960    0.8940    2.4940 c3        1 1L6     -0.088600
      3 C6         -2.0650   -1.5790    2.3870 c3        1 1L6     -0.088600
      4 C9         -4.3070   -0.5390    0.6440 c3        1 1L6     -0.093100
      5 C13         0.2110    0.7260    7.7460 ca        1 1L6     -0.146500
      6 C20         0.5400    1.2380   10.6970 cc        1 1L6     -0.250600
      7 C21         0.7790    0.8340   12.0180 cd        1 1L6      0.301200
      8 C8         -2.8410   -0.3310    0.3630 c3        1 1L6     -0.073400
      9 C18         0.2510    0.7950    6.3570 ca        1 1L6     -0.087500
     10 C16         2.6320    0.3850    6.3950 ca        1 1L6     -0.087500
     11 C26         3.1760    0.3610    1.5710 c         1 1L6      0.742100
     12 O31         4.0800   -0.0960    0.8370 o         1 1L6     -0.662500
     13 C1          1.7480    0.2620    1.2220 cc        1 1L6     -0.185900
     14 N4          1.2430    0.1680   -0.0790 na        1 1L6      0.140400
     15 C10         2.0400    0.1880   -1.2980 c3        1 1L6      0.007300
     16 C11         2.4260   -1.2040   -1.8340 c3        1 1L6      0.124400
     17 O25         3.8270   -1.3450   -1.8900 oh        1 1L6     -0.603800
     18 N27         3.5210    0.9630    2.7620 n         1 1L6     -0.557900
     19 C28         2.5980    1.6190    3.6380 c3        1 1L6      0.015700
     20 C29         1.5030    0.7170    4.1990 ce        1 1L6      0.442900
     21 N30         0.6200    0.0850    3.4870 nf        1 1L6     -0.509100
     22 C12         0.6360    0.1220    2.1040 cd        1 1L6     -0.007900
     23 C2         -0.5140   -0.0660    1.2160 cd        1 1L6      0.355600
     24 C5         -1.9510   -0.2690    1.6150 c3        1 1L6     -0.062300
     25 C17         1.4600    0.6330    5.6710 ca        1 1L6     -0.141900
     26 C15         2.6070    0.3140    7.7830 ca        1 1L6     -0.146500
     27 C14         1.3920    0.4830    8.4820 ca        1 1L6      0.027800
     28 N19         1.3490    0.4260    9.8860 na        1 1L6     -0.147000
     29 C23         2.0410   -0.4580   10.7560 cc        1 1L6      0.419800
     30 C24         2.9890   -1.5040   10.2970 c3        1 1L6     -0.127400
     31 N22         1.7010   -0.2110   12.0440 nd        1 1L6     -0.664000
     32 H1         -1.7910    0.9470    3.4290 hc        1 1L6      0.042033
     33 H2         -2.2960    1.8580    1.9420 hc        1 1L6      0.042033
     34 H3         -3.4650    0.7580    2.7890 hc        1 1L6      0.042033
     35 H4         -1.8540   -2.4430    1.7130 hc        1 1L6      0.042033
     36 H5         -1.3480   -1.6070    3.2400 hc        1 1L6      0.042033
     37 H6         -3.0980   -1.6870    2.7980 hc        1 1L6      0.042033
     38 H7         -4.4810   -1.4760    1.2240 hc        1 1L6      0.033700
     39 H8         -4.7390    0.3170    1.2150 hc        1 1L6      0.033700
     40 H9         -4.8620   -0.6220   -0.3240 hc        1 1L6      0.033700
     41 H10        -0.7510    0.8540    8.2660 ha        1 1L6      0.150000
     42 H11        -0.1000    2.0140   10.2830 h4        1 1L6      0.180000
     43 H12         0.3460    1.2290   12.9370 h4        1 1L6      0.045100
     44 H13        -2.7170    0.6240   -0.2130 hc        1 1L6      0.049700
     45 H14        -2.4830   -1.1720   -0.2900 hc        1 1L6      0.049700
     46 H15        -0.6810    0.9710    5.7950 ha        1 1L6      0.146500
     47 H16         3.5860    0.2370    5.8650 ha        1 1L6      0.146500
     48 H17         2.9820    0.7670   -1.0730 h1        1 1L6      0.087700
     49 H18         1.4550    0.7390   -2.0880 h1        1 1L6      0.087700
     50 H19         1.9710   -2.0320   -1.2290 h1        1 1L6      0.059700
     51 H20         2.0880   -1.3010   -2.9020 h1        1 1L6      0.059700
     52 H21         4.1670   -1.2890   -0.9850 ho        1 1L6      0.428000
     53 H22         4.4740    0.9070    3.0410 hn        1 1L6      0.331500
     54 H23         3.1810    2.0770    4.4860 h1        1 1L6      0.071200
     55 H24         2.0850    2.4590    3.0780 h1        1 1L6      0.071200
     56 H27         3.5440    0.1280    8.3320 ha        1 1L6      0.150000
     57 H28         2.6960   -1.8990    9.2930 hc        1 1L6      0.061033
     58 H29         3.0010   -2.3520   11.0280 hc        1 1L6      0.061033
     59 H30         4.0210   -1.0760   10.2350 hc        1 1L6      0.061033
@<TRIPOS>BOND
     1    1   14 1   
     2    1   23 2   
     3    2   24 1   
     4    2   32 1   
     5    2   33 1   
     6    2   34 1   
     7    3   24 1   
     8    3   35 1   
     9    3   36 1   
    10    3   37 1   
    11    4    8 1   
    12    4   38 1   
    13    4   39 1   
    14    4   40 1   
    15    5    9 ar  
    16    5   27 ar  
    17    5   41 1   
    18    6    7 2   
    19    6   28 1   
    20    6   42 1   
    21    7   31 1   
    22    7   43 1   
    23    8   24 1   
    24    8   44 1   
    25    8   45 1   
    26    9   25 ar  
    27    9   46 1   
    28   10   25 ar  
    29   10   26 ar  
    30   10   47 1   
    31   11   12 2   
    32   11   13 1   
    33   11   18 1   
    34   13   14 1   
    35   13   22 2   
    36   14   15 1   
    37   15   16 1   
    38   15   48 1   
    39   15   49 1   
    40   16   17 1   
    41   16   50 1   
    42   16   51 1   
    43   17   52 1   
    44   18   19 1   
    45   18   53 1   
    46   19   20 1   
    47   19   54 1   
    48   19   55 1   
    49   20   21 2   
    50   20   25 1   
    51   21   22 1   
    52   22   23 1   
    53   23   24 1   
    54   26   27 ar  
    55   26   56 1   
    56   27   28 1   
    57   28   29 1   
    58   29   30 1   
    59   29   31 2   
    60   30   57 1   
    61   30   58 1   
    62   30   59 1   
@<TRIPOS>SUBSTRUCTURE
     1 1L6         1 TEMP              0 ****  ****    0 ROOT
