@<TRIPOS>MOLECULE
1L6
   59    51     1     0     0
SMALL
bcc


@<TRIPOS>ATOM
      1 N3         -1.4910   -0.0240   -3.9350 n2        1 1L6     -0.061000
      2 C7         -3.7390   -1.0190   -1.3760 c3        1 1L6     -0.206500
      3 C6         -3.6370    1.4870   -1.2950 c3        1 1L6     -0.206500
      4 C9         -5.7250    0.6400   -2.9780 c3        1 1L6     -0.211000
      5 C13         2.5010   -1.3360    3.4850 c1        1 1L6     -0.146000
      6 C20         1.7390   -1.4100    6.7950 c1        1 1L6     -0.162000
      7 C21         2.4600   -1.6160    7.9360 c1        1 1L6     -0.162000
      8 C8         -4.3390    0.2800   -3.4090 c3        1 1L6     -0.152000
      9 C18         2.1440   -1.0380    2.1650 c1        1 1L6     -0.101000
     10 C16         1.1370    1.0300    2.9020 c1        1 1L6     -0.111000
     11 C26         1.3540    0.2860   -1.9480 c1        1 1L6      0.373000
     12 O31         1.7500   -0.7130   -1.4050 o         1 1L6     -0.372000
     13 C1          0.3090    0.2750   -2.6490 c2        1 1L6     -0.136000
     14 N4         -0.1110    0.0470   -3.9400 n2        1 1L6     -0.067000
     15 C10         0.7370    0.0310   -5.1180 c2        1 1L6     -0.064000
     16 C11         0.1710   -0.9290   -6.1340 c3        1 1L6     -0.037000
     17 O25         0.9640   -0.9110   -7.2810 oh        1 1L6     -0.314000
     18 N27         1.4940    1.4460   -1.4170 n2        1 1L6     -0.367000
     19 C28         1.9950    1.3630   -0.4040 c3        1 1L6     -0.023000
     20 C29         1.0890    0.4950    0.4070 c2        1 1L6     -0.008000
     21 N30        -0.4030    0.0300   -0.2130 n1        1 1L6     -0.080000
     22 C12        -0.8030    0.3450   -1.8480 c1        1 1L6     -0.086000
     23 C2         -1.9210    0.1580   -2.6520 c1        1 1L6     -0.065000
     24 C5         -3.4170    0.2160   -2.1800 c2        1 1L6      0.032000
     25 C17         1.4610    0.1470    1.8770 c1        1 1L6     -0.057000
     26 C15         1.4940    0.7320    4.2230 c1        1 1L6     -0.111000
     27 C14         2.1750   -0.4510    4.5120 c1        1 1L6      0.072000
     28 N19         2.5280   -0.7780    5.9150 n2        1 1L6     -0.132000
     29 C23         3.7480   -0.5860    6.5040 c1        1 1L6     -0.029000
     30 C24         4.8980    0.1900    5.9170 c2        1 1L6     -0.149000
     31 N22         3.6970   -1.1050    7.7480 n2        1 1L6     -0.132000
     32 H1         -3.8590   -1.7790   -1.9810 hc        1 1L6      0.081667
     33 H2         -3.0080   -1.2050   -0.7610 hc        1 1L6      0.081667
     34 H3         -4.5590   -0.8740   -0.8710 hc        1 1L6      0.081667
     35 H4         -2.9590    1.5150   -0.5860 hc        1 1L6      0.081667
     36 H5         -4.5430    1.4530   -0.8860 hc        1 1L6      0.081667
     37 H6         -3.5590    2.2930   -1.8540 hc        1 1L6      0.081667
     38 H7         -5.9690    0.1150   -2.1960 hc        1 1L6      0.073000
     39 H8         -6.3560    0.4510   -3.7100 hc        1 1L6      0.073000
     40 H9         -5.7600    1.5890   -2.7560 hc        1 1L6      0.073000
     41 H10         2.9760   -2.1610    3.6860 ha        1 1L6      0.150000
     42 H11         0.8120   -1.6760    6.6460 DU        1 1L6      0.181500
     43 H12         2.1370   -2.0580    8.7510 DU        1 1L6      0.181500
     44 H13        -4.3520   -0.5870   -3.8500 hc        1 1L6      0.089000
     45 H14        -4.0070    0.9520   -4.0280 hc        1 1L6      0.089000
     46 H15         2.3740   -1.6610    1.4410 ha        1 1L6      0.139000
     47 H16         0.6630    1.8520    2.7010 ha        1 1L6      0.152500
     48 H17         1.6410   -0.2560   -4.8660 ha        1 1L6      0.136000
     49 H18         0.7750    0.9270   -5.5030 ha        1 1L6      0.136000
     50 H19         0.1600   -1.8270   -5.7600 h1        1 1L6      0.098500
     51 H20        -0.7390   -0.6610   -6.3640 h1        1 1L6      0.098500
     52 H21         1.0120   -1.7180   -7.6170 ho        1 1L6      0.203000
     53 H22         1.1920    2.2170   -1.7780 hn        1 1L6      0.245000
     54 H23         2.9460    1.1370   -0.3780 h1        1 1L6      0.107500
     55 H24         2.0140    2.2540   -0.0080 h1        1 1L6      0.107500
     56 H27         1.2640    1.3550    4.9450 ha        1 1L6      0.152500
     57 H28         4.5710    1.0310    5.5550 ha        1 1L6      0.099000
     58 H29         5.5590    0.3710    6.6160 ha        1 1L6      0.099000
     59 H30         5.3110   -0.3300    5.2080 ha        1 1L6      0.099000
@<TRIPOS>BOND
     1    1   14 1   
     2    1   23 1   
     3    2   24 1   
     4    2   32 1   
     5    2   33 1   
     6    2   34 1   
     7    3   24 1   
     8    3   35 1   
     9    3   36 1   
    10    3   37 1   
    11    4    8 1   
    12    4   38 1   
    13    4   39 1   
    14    4   40 1   
    15    5   27 1   
    16    5   41 1   
    17    6    7 1   
    18    6   28 1   
    19    7   31 1   
    20    8   24 1   
    21    8   44 1   
    22    8   45 1   
    23    9   25 1   
    24    9   46 1   
    25   10   26 1   
    26   10   47 1   
    27   11   12 1   
    28   11   13 1   
    29   13   14 1   
    30   13   22 1   
    31   15   16 1   
    32   15   48 1   
    33   15   49 1   
    34   16   17 1   
    35   16   50 1   
    36   16   51 1   
    37   17   52 1   
    38   18   19 1   
    39   18   53 1   
    40   19   20 1   
    41   19   54 1   
    42   19   55 1   
    43   20   21 1   
    44   20   25 1   
    45   22   23 1   
    46   26   56 1   
    47   28   29 1   
    48   29   31 1   
    49   30   57 1   
    50   30   58 1   
    51   30   59 1   
@<TRIPOS>SUBSTRUCTURE
     1 1L6         1 TEMP              0 ****  ****    0 ROOT
