@<TRIPOS>MOLECULE
1L6
   59    62     1     0     0
SMALL
bcc


@<TRIPOS>ATOM
      1 N3         -0.0830   -0.0340   -0.0750 nc        1 1L6     -0.492800
      2 C7         -2.3930    0.9050    2.4960 c3        1 1L6     -0.088600
      3 C6         -2.0760   -1.5700    2.3950 c3        1 1L6     -0.088600
      4 C9         -4.3140   -0.5210    0.6520 c3        1 1L6     -0.093100
      5 C13         0.2210    0.7350    7.7440 ca        1 1L6     -0.146500
      6 C20         0.5560    1.2520   10.6950 cc        1 1L6     -0.250600
      7 C21         0.7940    0.8500   12.0160 cd        1 1L6      0.301200
      8 C8         -2.8470   -0.3230    0.3680 c3        1 1L6     -0.073400
      9 C18         0.2590    0.8000    6.3560 ca        1 1L6     -0.087500
     10 C16         2.6380    0.3780    6.3910 ca        1 1L6     -0.087500
     11 C26         3.1750    0.3390    1.5670 c         1 1L6      0.742100
     12 O31         4.0760   -0.1250    0.8330 o         1 1L6     -0.662500
     13 C1          1.7460    0.2460    1.2200 cc        1 1L6     -0.185900
     14 N4          1.2390    0.1530   -0.0800 na        1 1L6      0.140400
     15 C10         2.0340    0.1650   -1.3010 c3        1 1L6      0.007300
     16 C11         2.4110   -1.2310   -1.8340 c3        1 1L6      0.124400
     17 O25         3.8110   -1.3790   -1.8910 oh        1 1L6     -0.603800
     18 N27         3.5250    0.9420    2.7560 ns        1 1L6     -0.557900
     19 C28         2.6070    1.6050    3.6310 c3        1 1L6      0.015700
     20 C29         1.5080    0.7100    4.1960 ce        1 1L6      0.442900
     21 N30         0.6200    0.0810    3.4870 nf        1 1L6     -0.509100
     22 C12         0.6340    0.1150    2.1040 cd        1 1L6     -0.007900
     23 C2         -0.5180   -0.0690    1.2180 cd        1 1L6      0.355600
     24 C5         -1.9560   -0.2620    1.6190 c3        1 1L6     -0.062300
     25 C17         1.4670    0.6300    5.6690 ca        1 1L6     -0.141900
     26 C15         2.6140    0.3090    7.7800 ca        1 1L6     -0.146500
     27 C14         1.4010    0.4870    8.4800 ca        1 1L6      0.027800
     28 N19         1.3590    0.4340    9.8840 na        1 1L6     -0.147000
     29 C23         2.0480   -0.4520   10.7550 cc        1 1L6      0.419800
     30 C24         2.9900   -1.5040   10.2980 c3        1 1L6     -0.127400
     31 N22         1.7110   -0.2000   12.0430 nd        1 1L6     -0.664000
     32 H1         -1.7860    0.9580    3.4300 hc        1 1L6      0.042033
     33 H2         -2.2880    1.8680    1.9410 hc        1 1L6      0.042033
     34 H3         -3.4620    0.7760    2.7930 hc        1 1L6      0.042033
     35 H4         -1.8710   -2.4370    1.7230 hc        1 1L6      0.042033
     36 H5         -1.3580   -1.5990    3.2470 hc        1 1L6      0.042033
     37 H6         -3.1090   -1.6710    2.8070 hc        1 1L6      0.042033
     38 H7         -4.8710   -0.6040   -0.3140 hc        1 1L6      0.033700
     39 H8         -4.7410    0.3390    1.2220 hc        1 1L6      0.033700
     40 H9         -4.4930   -1.4560    1.2350 hc        1 1L6      0.033700
     41 H10        -0.7410    0.8700    8.2660 ha        1 1L6      0.150000
     42 H11        -0.0800    2.0300   10.2790 h4        1 1L6      0.180000
     43 H12         0.3650    1.2500   12.9340 h4        1 1L6      0.045100
     44 H13        -2.4950   -1.1670   -0.2830 hc        1 1L6      0.049700
     45 H14        -2.7190    0.6310   -0.2100 hc        1 1L6      0.049700
     46 H15        -0.6720    0.9800    5.7950 ha        1 1L6      0.146500
     47 H16         3.5900    0.2230    5.8610 ha        1 1L6      0.146500
     48 H17         1.4510    0.7170   -2.0910 h1        1 1L6      0.087700
     49 H18         2.9800    0.7390   -1.0780 h1        1 1L6      0.087700
     50 H19         2.0720   -1.3280   -2.9000 h1        1 1L6      0.059700
     51 H20         1.9530   -2.0550   -1.2260 h1        1 1L6      0.059700
     52 H21         4.1540   -1.3240   -0.9870 ho        1 1L6      0.428000
     53 H22         4.4780    0.8800    3.0340 hn        1 1L6      0.331500
     54 H23         3.1940    2.0610    4.4780 h1        1 1L6      0.071200
     55 H24         2.0980    2.4470    3.0700 h1        1 1L6      0.071200
     56 H27         3.5510    0.1200    8.3280 ha        1 1L6      0.150000
     57 H28         2.6930   -1.9000    9.2950 hc        1 1L6      0.061033
     58 H29         4.0240   -1.0820   10.2330 hc        1 1L6      0.061033
     59 H30         2.9980   -2.3500   11.0310 hc        1 1L6      0.061033
@<TRIPOS>BOND
     1    1   14 1   
     2    1   23 2   
     3    2   24 1   
     4    2   32 1   
     5    2   33 1   
     6    2   34 1   
     7    3   24 1   
     8    3   35 1   
     9    3   36 1   
    10    3   37 1   
    11    4    8 1   
    12    4   38 1   
    13    4   39 1   
    14    4   40 1   
    15    5    9 ar  
    16    5   27 ar  
    17    5   41 1   
    18    6    7 2   
    19    6   28 1   
    20    6   42 1   
    21    7   31 1   
    22    7   43 1   
    23    8   24 1   
    24    8   44 1   
    25    8   45 1   
    26    9   25 ar  
    27    9   46 1   
    28   10   25 ar  
    29   10   26 ar  
    30   10   47 1   
    31   11   12 2   
    32   11   13 1   
    33   11   18 1   
    34   13   14 1   
    35   13   22 2   
    36   14   15 1   
    37   15   16 1   
    38   15   48 1   
    39   15   49 1   
    40   16   17 1   
    41   16   50 1   
    42   16   51 1   
    43   17   52 1   
    44   18   19 1   
    45   18   53 1   
    46   19   20 1   
    47   19   54 1   
    48   19   55 1   
    49   20   21 2   
    50   20   25 1   
    51   21   22 1   
    52   22   23 1   
    53   23   24 1   
    54   26   27 ar  
    55   26   56 1   
    56   27   28 1   
    57   28   29 1   
    58   29   30 1   
    59   29   31 2   
    60   30   57 1   
    61   30   58 1   
    62   30   59 1   
@<TRIPOS>SUBSTRUCTURE
     1 1L6         1 TEMP              0 ****  ****    0 ROOT
