@<TRIPOS>MOLECULE
1L6
   59    62     1     0     0
SMALL
bcc


@<TRIPOS>ATOM
      1 N3         -0.0660   -0.0320   -0.0780 nc        1 1L6     -0.492800
      2 C7         -2.3890    0.8950    2.4860 c3        1 1L6     -0.088600
      3 C6         -2.0620   -1.5780    2.3820 c3        1 1L6     -0.088600
      4 C9         -4.2980   -0.5360    0.6320 c3        1 1L6     -0.093100
      5 C13         0.2030    0.7300    7.7440 ca        1 1L6     -0.146500
      6 C20         0.5260    1.2450   10.6960 cc        1 1L6     -0.250600
      7 C21         0.7600    0.8420   12.0180 cd        1 1L6      0.301200
      8 C8         -2.8300   -0.3320    0.3540 c3        1 1L6     -0.073400
      9 C18         0.2470    0.7970    6.3560 ca        1 1L6     -0.087500
     10 C16         2.6270    0.3810    6.4010 ca        1 1L6     -0.087500
     11 C26         3.1850    0.3510    1.5780 c         1 1L6      0.742100
     12 O31         4.0900   -0.1080    0.8470 o         1 1L6     -0.662500
     13 C1          1.7580    0.2540    1.2260 cc        1 1L6     -0.185900
     14 N4          1.2560    0.1600   -0.0770 na        1 1L6      0.140400
     15 C10         2.0560    0.1770   -1.2940 c3        1 1L6      0.007300
     16 C11         2.4410   -1.2170   -1.8270 c3        1 1L6      0.124400
     17 O25         3.8410   -1.3600   -1.8790 oh        1 1L6     -0.603800
     18 N27         3.5270    0.9540    2.7700 n         1 1L6     -0.557900
     19 C28         2.6030    1.6130    3.6420 c3        1 1L6      0.015700
     20 C29         1.5050    0.7130    4.2010 ce        1 1L6      0.442900
     21 N30         0.6230    0.0820    3.4880 nf        1 1L6     -0.509100
     22 C12         0.6420    0.1170    2.1050 cd        1 1L6     -0.007900
     23 C2         -0.5050   -0.0700    1.2140 cd        1 1L6      0.355600
     24 C5         -1.9440   -0.2690    1.6090 c3        1 1L6     -0.062300
     25 C17         1.4580    0.6310    5.6740 ca        1 1L6     -0.141900
     26 C15         2.5980    0.3110    7.7890 ca        1 1L6     -0.146500
     27 C14         1.3820    0.4840    8.4840 ca        1 1L6      0.027800
     28 N19         1.3340    0.4290    9.8880 na        1 1L6     -0.147000
     29 C23         2.0220   -0.4550   10.7610 cc        1 1L6      0.419800
     30 C24         2.9680   -1.5050   10.3070 c3        1 1L6     -0.127400
     31 N22         1.6790   -0.2050   12.0480 nd        1 1L6     -0.664000
     32 H1         -3.4590    0.7620    2.7770 hc        1 1L6      0.042033
     33 H2         -2.2860    1.8590    1.9330 hc        1 1L6      0.042033
     34 H3         -1.7860    0.9480    3.4220 hc        1 1L6      0.042033
     35 H4         -1.3470   -1.6060    3.2380 hc        1 1L6      0.042033
     36 H5         -3.0970   -1.6840    2.7910 hc        1 1L6      0.042033
     37 H6         -1.8520   -2.4440    1.7100 hc        1 1L6      0.042033
     38 H7         -4.8500   -0.6190   -0.3370 hc        1 1L6      0.033700
     39 H8         -4.7300    0.3210    1.2020 hc        1 1L6      0.033700
     40 H9         -4.4750   -1.4730    1.2130 hc        1 1L6      0.033700
     41 H10        -0.7600    0.8610    8.2620 ha        1 1L6      0.150000
     42 H11        -0.1110    2.0220   10.2790 h4        1 1L6      0.180000
     43 H12         0.3260    1.2400   12.9350 h4        1 1L6      0.045100
     44 H13        -2.4720   -1.1730   -0.2970 hc        1 1L6      0.049700
     45 H14        -2.7040    0.6230   -0.2220 hc        1 1L6      0.049700
     46 H15        -0.6820    0.9750    5.7910 ha        1 1L6      0.146500
     47 H16         3.5820    0.2300    5.8740 ha        1 1L6      0.146500
     48 H17         2.9990    0.7540   -1.0670 h1        1 1L6      0.087700
     49 H18         1.4740    0.7280   -2.0860 h1        1 1L6      0.087700
     50 H19         1.9820   -2.0430   -1.2230 h1        1 1L6      0.059700
     51 H20         2.1060   -1.3140   -2.8960 h1        1 1L6      0.059700
     52 H21         4.1790   -1.3050   -0.9730 ho        1 1L6      0.428000
     53 H22         4.4800    0.8960    3.0510 hn        1 1L6      0.331500
     54 H23         3.1850    2.0700    4.4920 h1        1 1L6      0.071200
     55 H24         2.0930    2.4530    3.0800 h1        1 1L6      0.071200
     56 H27         3.5330    0.1240    8.3410 ha        1 1L6      0.150000
     57 H28         4.0020   -1.0790   10.2460 hc        1 1L6      0.061033
     58 H29         2.9760   -2.3510   11.0380 hc        1 1L6      0.061033
     59 H30         2.6770   -1.9000    9.3020 hc        1 1L6      0.061033
@<TRIPOS>BOND
     1    1   14 1   
     2    1   23 2   
     3    2   24 1   
     4    2   32 1   
     5    2   33 1   
     6    2   34 1   
     7    3   24 1   
     8    3   35 1   
     9    3   36 1   
    10    3   37 1   
    11    4    8 1   
    12    4   38 1   
    13    4   39 1   
    14    4   40 1   
    15    5    9 ar  
    16    5   27 ar  
    17    5   41 1   
    18    6    7 2   
    19    6   28 1   
    20    6   42 1   
    21    7   31 1   
    22    7   43 1   
    23    8   24 1   
    24    8   44 1   
    25    8   45 1   
    26    9   25 ar  
    27    9   46 1   
    28   10   25 ar  
    29   10   26 ar  
    30   10   47 1   
    31   11   12 2   
    32   11   13 1   
    33   11   18 1   
    34   13   14 1   
    35   13   22 2   
    36   14   15 1   
    37   15   16 1   
    38   15   48 1   
    39   15   49 1   
    40   16   17 1   
    41   16   50 1   
    42   16   51 1   
    43   17   52 1   
    44   18   19 1   
    45   18   53 1   
    46   19   20 1   
    47   19   54 1   
    48   19   55 1   
    49   20   21 2   
    50   20   25 1   
    51   21   22 1   
    52   22   23 1   
    53   23   24 1   
    54   26   27 ar  
    55   26   56 1   
    56   27   28 1   
    57   28   29 1   
    58   29   30 1   
    59   29   31 2   
    60   30   57 1   
    61   30   58 1   
    62   30   59 1   
@<TRIPOS>SUBSTRUCTURE
     1 1L6         1 TEMP              0 ****  ****    0 ROOT
