@<TRIPOS>MOLECULE
1L7
   34    35     1     0     0
SMALL
bcc


@<TRIPOS>ATOM
      1 C10        -0.2410   -0.3410   -0.5710 c2        1 1L7     -0.195000
      2 N12        -1.5990    1.2560   -2.0870 n1        1 1L7     -0.032000
      3 C13         0.9700   -0.8580   -0.8190 c1        1 1L7     -0.190000
      4 C15         3.1390    1.2520   -2.7200 c2        1 1L7     -0.253000
      5 C01        -6.7050   -0.7230    1.8700 ca        1 1L7     -0.120000
      6 C02        -7.0010    0.4780    2.5170 ca        1 1L7     -0.084000
      7 C03        -5.9710    1.2680    3.0310 ca        1 1L7     -0.120000
      8 C04        -4.6450    0.8610    2.8970 ca        1 1L7     -0.102500
      9 C05        -4.3470   -0.3420    2.2470 ca        1 1L7     -0.175000
     10 C06        -5.3800   -1.1350    1.7340 ca        1 1L7     -0.102500
     11 C07        -2.9330   -0.7990    2.1360 c3        1 1L7     -0.071000
     12 N08        -2.3050   -0.3040    0.8720 ny        1 1L7     -0.119000
     13 C09        -0.8460   -0.7440    0.6990 c2        1 1L7      0.342000
     14 C11        -0.9950    0.5380   -1.3960 c1        1 1L7     -0.162000
     15 C14         1.9630    0.5450   -2.6180 c2        1 1L7      0.015000
     16 C16         4.3280    0.6890   -2.1970 c2        1 1L7      0.152000
     17 N17         4.3840   -0.5430   -1.6210 n2        1 1L7     -0.184000
     18 C18         3.2640   -1.2290   -1.4810 c2        1 1L7      0.143000
     19 C19         1.9130   -0.7620   -1.9360 c3        1 1L7     -0.125000
     20 O20        -0.3800   -1.3720    1.6360 o         1 1L7     -0.189000
     21 H2          1.0140    0.9550   -3.0080 ha        1 1L7      0.182000
     22 H4          3.1730    2.2470   -3.1960 ha        1 1L7      0.191000
     23 H5         -7.5180   -1.3510    1.4720 ha        1 1L7      0.156000
     24 H6         -8.0490    0.8000    2.6270 ha        1 1L7      0.157000
     25 H7         -6.2060    2.2120    3.5480 ha        1 1L7      0.156000
     26 H8         -3.8370    1.4790    3.3190 ha        1 1L7      0.138000
     27 H9         -5.1520   -2.0910    1.2390 ha        1 1L7      0.138000
     28 H10        -2.3120   -0.4170    2.9990 hx        1 1L7      0.151500
     29 H11        -2.8670   -1.9250    2.1320 hx        1 1L7      0.151500
     30 H12        -2.8450   -0.6450    0.0700 hn        1 1L7      0.246000
     31 H13         5.2930    1.2400   -2.2370 h4        1 1L7      0.208000
     32 H14         3.3190   -2.2240   -0.9850 h4        1 1L7      0.220000
     33 H15         1.5330   -1.5510   -2.6820 hc        1 1L7      0.232000
     34 H082       -2.3410    0.7200    0.8560 hn        1 1L7      0.246000
@<TRIPOS>BOND
     1    1    3 1   
     2    1   13 1   
     3    1   14 1   
     4    2   14 1   
     5    3   19 1   
     6    4   15 1   
     7    4   16 1   
     8    4   22 1   
     9    5    6 1   
    10    5   10 1   
    11    5   23 1   
    12    6    7 1   
    13    6   24 1   
    14    7    8 1   
    15    7   25 1   
    16    8    9 1   
    17    8   26 1   
    18    9   10 1   
    19    9   11 1   
    20   10   27 1   
    21   11   12 1   
    22   11   28 1   
    23   11   29 1   
    24   12   13 1   
    25   12   30 1   
    26   12   34 1   
    27   13   20 1   
    28   15   19 1   
    29   15   21 1   
    30   16   17 1   
    31   16   31 1   
    32   17   18 1   
    33   18   19 1   
    34   18   32 1   
    35   19   33 1   
@<TRIPOS>SUBSTRUCTURE
     1 1L7         1 TEMP              0 ****  ****    0 ROOT
