@<TRIPOS>MOLECULE
1L7
   33    25     1     0     0
SMALL
bcc


@<TRIPOS>ATOM
      1 C10         1.2700    0.7680   -1.8290 c1        1 1L7     -0.074000
      2 N12        -0.1070    0.6240   -4.1180 n1        1 1L7     -0.013000
      3 C13         2.6170    0.7660   -1.8530 c1        1 1L7     -0.016000
      4 C15         3.6180    2.0570    0.0060 c1        1 1L7     -0.136000
      5 C01        -3.8680   -2.6450    1.1820 c1        1 1L7     -0.120833
      6 C02        -5.0450   -2.1940    0.6060 c1        1 1L7     -0.120833
      7 C03        -5.0970   -0.9310    0.0220 c1        1 1L7     -0.120833
      8 C04        -3.9660   -0.1210    0.0180 c1        1 1L7     -0.120833
      9 C05        -2.7880   -0.5720    0.5950 c1        1 1L7     -0.082500
     10 C06        -2.7380   -1.8350    1.1770 c1        1 1L7     -0.136000
     11 C07        -1.5870    0.3710    0.7120 c2        1 1L7      0.003000
     12 N08        -0.5770   -0.0160   -0.2400 n3        1 1L7     -0.354000
     13 C09         0.5320    0.8510   -0.4990 c1        1 1L7      0.348000
     14 C11         0.4890    0.6870   -3.1280 c1        1 1L7     -0.110000
     15 C14         3.3870    0.8440   -0.5760 c1        1 1L7     -0.082500
     16 C16         4.4500    2.1490    1.1110 c1        1 1L7     -0.072000
     17 N17         5.0350    1.0330    1.6150 n1        1 1L7     -0.125000
     18 C18         4.8060   -0.1790    1.0360 c1        1 1L7     -0.120833
     19 C19         3.9750   -0.2740   -0.0700 c1        1 1L7     -0.120833
     20 O20         0.9020    1.6470    0.3590 o         1 1L7     -0.353000
     21 H2          3.0860    0.7130   -2.6990 ha        1 1L7      0.148000
     22 H4          3.1950    2.8650   -0.3580 ha        1 1L7      0.154500
     23 H5         -3.8320   -3.5210    1.5870 ha        1 1L7      0.142333
     24 H6         -5.8430   -2.7660    0.6090 ha        1 1L7      0.142333
     25 H7         -5.9270   -0.6140   -0.3840 ha        1 1L7      0.142333
     26 H8         -4.0010    0.7600   -0.3890 ha        1 1L7      0.142333
     27 H9         -1.9100   -2.1530    1.5830 ha        1 1L7      0.154500
     28 H10        -1.8730    1.2840    0.5290 h4        1 1L7      0.112000
     29 H11        -1.2160    0.3190    1.6250 h4        1 1L7      0.112000
     30 H12        -0.6400   -0.8120   -0.6700 hn        1 1L7      0.227000
     31 H13         4.6160    3.0240    1.5300 ha        1 1L7      0.167000
     32 H14         5.2270   -0.9800    1.3990 ha        1 1L7      0.142333
     33 H15         3.8090   -1.1500   -0.4890 ha        1 1L7      0.142333
@<TRIPOS>BOND
     1    1    3 1   
     2    1   14 1   
     3    2   14 1   
     4    3   21 1   
     5    4   15 1   
     6    4   22 1   
     7    5    6 1   
     8    5   23 1   
     9    6   24 1   
    10    7    8 1   
    11    7   25 1   
    12    8   26 1   
    13    9   10 1   
    14   10   27 1   
    15   11   12 1   
    16   11   28 1   
    17   11   29 1   
    18   12   13 1   
    19   12   30 1   
    20   13   20 1   
    21   16   17 1   
    22   16   31 1   
    23   18   19 1   
    24   18   32 1   
    25   19   33 1   
@<TRIPOS>SUBSTRUCTURE
     1 1L7         1 TEMP              0 ****  ****    0 ROOT
