@<TRIPOS>MOLECULE
1L7
   33    34     1     0     0
SMALL
bcc


@<TRIPOS>ATOM
      1 C10         0.9470   -0.3120   -0.4750 ce        1 1L7     -0.075900
      2 N12         0.8860    1.9900   -1.6460 n1        1 1L7     -0.354800
      3 C13         2.0460   -0.8300    0.1150 cf        1 1L7      0.019800
      4 C15         4.1220   -0.3560    1.3540 ca        1 1L7     -0.218800
      5 C01        -5.1760    1.5120   -0.1480 ca        1 1L7     -0.130000
      6 C02        -5.6370    1.0980    1.1020 ca        1 1L7     -0.122000
      7 C03        -5.1430   -0.0740    1.6730 ca        1 1L7     -0.130000
      8 C04        -4.1880   -0.8340    0.9980 ca        1 1L7     -0.116000
      9 C05        -3.7280   -0.4240   -0.2560 ca        1 1L7     -0.124300
     10 C06        -4.2240    0.7530   -0.8270 ca        1 1L7     -0.116000
     11 C07        -2.7180   -1.2520   -1.0010 c3        1 1L7      0.126300
     12 N08        -1.4230   -0.6300   -1.1190 n         1 1L7     -0.542900
     13 C09        -0.3270   -1.1040   -0.4250 c         1 1L7      0.669300
     14 C11         0.9220    0.9510   -1.1220 cg        1 1L7      0.188500
     15 C14         3.3650   -0.2240    0.1780 ca        1 1L7     -0.059800
     16 C16         5.4020    0.2200    1.3990 ca        1 1L7      0.394200
     17 N17         5.9570    0.8860    0.3660 nb        1 1L7     -0.649000
     18 C18         5.2270    0.9950   -0.7590 ca        1 1L7      0.394200
     19 C19         3.9320    0.4620   -0.9040 ca        1 1L7     -0.218800
     20 O20        -0.3600   -2.1950    0.1840 o         1 1L7     -0.608100
     21 H2          1.9510   -1.8130    0.6250 ha        1 1L7      0.176000
     22 H4          3.7210   -0.8930    2.2250 ha        1 1L7      0.152500
     23 H5         -5.5640    2.4370   -0.6000 ha        1 1L7      0.134500
     24 H6         -6.3890    1.6970    1.6370 ha        1 1L7      0.134000
     25 H7         -5.5050   -0.4010    2.6590 ha        1 1L7      0.134500
     26 H8         -3.7950   -1.7560    1.4540 ha        1 1L7      0.135500
     27 H9         -3.8660    1.0760   -1.8150 ha        1 1L7      0.135500
     28 H10        -2.5990   -2.2560   -0.4990 h1        1 1L7      0.073700
     29 H11        -3.1030   -1.4270   -2.0490 h1        1 1L7      0.073700
     30 H12        -1.4190    0.3100   -1.4410 hn        1 1L7      0.313500
     31 H13         6.0220    0.1440    2.3100 h4        1 1L7      0.029100
     32 H14         5.7040    1.5430   -1.5920 h4        1 1L7      0.029100
     33 H15         3.3890    0.5780   -1.8520 ha        1 1L7      0.152500
@<TRIPOS>BOND
     1    1    3 2   
     2    1   13 1   
     3    1   14 1   
     4    2   14 3   
     5    3   15 1   
     6    3   21 1   
     7    4   15 ar  
     8    4   16 ar  
     9    4   22 1   
    10    5    6 ar  
    11    5   10 ar  
    12    5   23 1   
    13    6    7 ar  
    14    6   24 1   
    15    7    8 ar  
    16    7   25 1   
    17    8    9 ar  
    18    8   26 1   
    19    9   10 ar  
    20    9   11 1   
    21   10   27 1   
    22   11   12 1   
    23   11   28 1   
    24   11   29 1   
    25   12   13 1   
    26   12   30 1   
    27   13   20 2   
    28   15   19 ar  
    29   16   17 ar  
    30   16   31 1   
    31   17   18 ar  
    32   18   19 ar  
    33   18   32 1   
    34   19   33 1   
@<TRIPOS>SUBSTRUCTURE
     1 1L7         1 TEMP              0 ****  ****    0 ROOT
