@<TRIPOS>MOLECULE
1L7
   34    35     1     0     0
SMALL
bcc


@<TRIPOS>ATOM
      1 C10        -0.2460   -0.3420   -0.5780 c2        1 1L7     -0.195000
      2 N12        -1.5420    1.3730   -2.0180 n1        1 1L7     -0.032000
      3 C13         0.9470   -0.8870   -0.8470 c1        1 1L7     -0.190000
      4 C15         3.1960    1.2350   -2.6390 c2        1 1L7     -0.253000
      5 C01        -6.7290   -0.6160    1.8070 ca        1 1L7     -0.120000
      6 C02        -6.9900    0.5530    2.5230 ca        1 1L7     -0.084000
      7 C03        -5.9390    1.2750    3.0910 ca        1 1L7     -0.120000
      8 C04        -4.6260    0.8310    2.9430 ca        1 1L7     -0.102500
      9 C05        -4.3640   -0.3400    2.2230 ca        1 1L7     -0.175000
     10 C06        -5.4180   -1.0650    1.6560 ca        1 1L7     -0.102500
     11 C07        -2.9650   -0.8380    2.0960 c3        1 1L7     -0.071000
     12 N08        -2.3140   -0.3030    0.8600 n4        1 1L7     -0.119000
     13 C09        -0.8700   -0.7840    0.6690 c2        1 1L7      0.342000
     14 C11        -0.9660    0.6020   -1.3610 c1        1 1L7     -0.162000
     15 C14         1.9960    0.5650   -2.5740 c2        1 1L7      0.015000
     16 C16         4.3630    0.6060   -2.1400 c2        1 1L7      0.152000
     17 N17         4.3740   -0.6530   -1.6240 n2        1 1L7     -0.184000
     18 C18         3.2300   -1.3060   -1.5200 c2        1 1L7      0.143000
     19 C19         1.8980   -0.7710   -1.9560 c3        1 1L7     -0.125000
     20 O20        -0.4300   -1.4720    1.5770 o         1 1L7     -0.189000
     21 H2          1.0630    1.0260   -2.9460 ha        1 1L7      0.182000
     22 H4          3.2660    2.2500   -3.0660 ha        1 1L7      0.191000
     23 H5         -7.5600   -1.1900    1.3660 ha        1 1L7      0.156000
     24 H6         -8.0280    0.9040    2.6440 ha        1 1L7      0.157000
     25 H7         -6.1460    2.1940    3.6630 ha        1 1L7      0.156000
     26 H8         -3.8020    1.3940    3.4070 ha        1 1L7      0.138000
     27 H9         -5.2180   -1.9970    1.1060 ha        1 1L7      0.138000
     28 H10        -2.3360   -0.5220    2.9780 hx        1 1L7      0.151500
     29 H11        -2.9370   -1.9650    2.0350 hx        1 1L7      0.151500
     30 H12        -2.8610   -0.5840    0.0400 hn        1 1L7      0.246000
     31 H13         5.3460    1.1250   -2.1510 h4        1 1L7      0.208000
     32 H14         3.2490   -2.3240   -1.0730 h4        1 1L7      0.220000
     33 H15         1.4940   -1.5090   -2.7400 hc        1 1L7      0.232000
     34 H082       -2.3140    0.7210    0.8950 hn        1 1L7      0.246000
@<TRIPOS>BOND
     1    1    3 1   
     2    1   13 1   
     3    1   14 1   
     4    2   14 1   
     5    3   19 1   
     6    4   15 1   
     7    4   16 1   
     8    4   22 1   
     9    5    6 1   
    10    5   10 1   
    11    5   23 1   
    12    6    7 1   
    13    6   24 1   
    14    7    8 1   
    15    7   25 1   
    16    8    9 1   
    17    8   26 1   
    18    9   10 1   
    19    9   11 1   
    20   10   27 1   
    21   11   12 1   
    22   11   28 1   
    23   11   29 1   
    24   12   13 1   
    25   12   30 1   
    26   12   34 1   
    27   13   20 1   
    28   15   19 1   
    29   15   21 1   
    30   16   17 1   
    31   16   31 1   
    32   17   18 1   
    33   18   19 1   
    34   18   32 1   
    35   19   33 1   
@<TRIPOS>SUBSTRUCTURE
     1 1L7         1 TEMP              0 ****  ****    0 ROOT
