@<TRIPOS>MOLECULE
1L7
   34    35     1     0     0
SMALL
bcc


@<TRIPOS>ATOM
      1 C10        -0.2690   -0.3530   -0.5760 c2        1 1L7     -0.195000
      2 N12        -1.5720    1.2900   -2.0910 n1        1 1L7     -0.032000
      3 C13         0.9370   -0.8870   -0.8110 c1        1 1L7     -0.190000
      4 C15         3.1770    1.2120   -2.6410 c2        1 1L7     -0.253000
      5 C01        -6.7820   -0.6650    1.7860 ca        1 1L7     -0.120000
      6 C02        -7.0620    0.5500    2.4140 ca        1 1L7     -0.084000
      7 C03        -6.0230    1.3300    2.9240 ca        1 1L7     -0.120000
      8 C04        -4.7030    0.8990    2.8050 ca        1 1L7     -0.102500
      9 C05        -4.4210   -0.3180    2.1740 ca        1 1L7     -0.175000
     10 C06        -5.4630   -1.1010    1.6650 ca        1 1L7     -0.102500
     11 C07        -3.0140   -0.7990    2.0800 c3        1 1L7     -0.071000
     12 N08        -2.3570   -0.3020    0.8320 n4        1 1L7     -0.119000
     13 C09        -0.9020   -0.7630    0.6770 c2        1 1L7      0.342000
     14 C11        -0.9930    0.5510   -1.4000 c1        1 1L7     -0.162000
     15 C14         1.9860    0.5250   -2.5700 c2        1 1L7      0.015000
     16 C16         4.3460    0.6180   -2.1060 c2        1 1L7      0.152000
     17 N17         4.3700   -0.6230   -1.5490 n2        1 1L7     -0.184000
     18 C18         3.2350   -1.2900   -1.4400 c2        1 1L7      0.143000
     19 C19         1.9010   -0.7920   -1.9100 c3        1 1L7     -0.125000
     20 O20        -0.4640   -1.4120    1.6140 o         1 1L7     -0.189000
     21 H2          1.0520    0.9590   -2.9690 ha        1 1L7      0.182000
     22 H4          3.2360    2.2130   -3.0990 ha        1 1L7      0.191000
     23 H5         -7.6030   -1.2850    1.3910 ha        1 1L7      0.156000
     24 H6         -8.1060    0.8900    2.5120 ha        1 1L7      0.157000
     25 H7         -6.2460    2.2850    3.4260 ha        1 1L7      0.156000
     26 H8         -3.8880    1.5090    3.2250 ha        1 1L7      0.138000
     27 H9         -5.2480   -2.0670    1.1840 ha        1 1L7      0.138000
     28 H10        -2.9670   -1.9260    2.0650 hx        1 1L7      0.151500
     29 H11        -2.4000   -0.4380    2.9560 hx        1 1L7      0.151500
     30 H12        -2.3770    0.7230    0.8250 hn        1 1L7      0.246500
     31 H13         5.3220    1.1520   -2.1210 h4        1 1L7      0.208000
     32 H14         3.2640   -2.2940   -0.9600 h4        1 1L7      0.220000
     33 H15         1.5190   -1.5610   -2.6750 hc        1 1L7      0.232000
     34 H082       -2.8880   -0.6260    0.0180 hn        1 1L7      0.246500
@<TRIPOS>BOND
     1    1    3 1   
     2    1   13 1   
     3    1   14 1   
     4    2   14 1   
     5    3   19 1   
     6    4   15 1   
     7    4   16 1   
     8    4   22 1   
     9    5    6 1   
    10    5   10 1   
    11    5   23 1   
    12    6    7 1   
    13    6   24 1   
    14    7    8 1   
    15    7   25 1   
    16    8    9 1   
    17    8   26 1   
    18    9   10 1   
    19    9   11 1   
    20   10   27 1   
    21   11   12 1   
    22   11   28 1   
    23   11   29 1   
    24   12   13 1   
    25   12   30 1   
    26   12   34 1   
    27   13   20 1   
    28   15   19 1   
    29   15   21 1   
    30   16   17 1   
    31   16   31 1   
    32   17   18 1   
    33   18   19 1   
    34   18   32 1   
    35   19   33 1   
@<TRIPOS>SUBSTRUCTURE
     1 1L7         1 TEMP              0 ****  ****    0 ROOT
