@<TRIPOS>MOLECULE
1L8
   60    63     1     0     0
SMALL
bcc


@<TRIPOS>ATOM
      1 FAE         1.8860   -1.0390    2.0490 f         1 1L8     -0.228967
      2 CBG         2.4500   -0.9010    0.8080 c3        1 1L8      0.690200
      3 FAF         3.3830   -1.9030    0.7310 f         1 1L8     -0.228967
      4 FAG         1.4580   -1.2920   -0.0640 f         1 1L8     -0.228967
      5 CBB         2.9970    0.4910    0.5000 ca        1 1L8     -0.163300
      6 CD2         3.7640    0.6640   -0.6550 ca        1 1L8     -0.114000
      7 CAJ         2.7270    1.5650    1.3470 ca        1 1L8     -0.061000
      8 CAH         3.2210    2.8310    1.0230 ca        1 1L8     -0.118000
      9 CD1         3.9700    3.0160   -0.1360 ca        1 1L8     -0.088000
     10 CG          4.2470    1.9340   -0.9860 ca        1 1L8     -0.141300
     11 CB          5.1050    2.1590   -2.1790 c3        1 1L8     -0.051100
     12 CA          4.7030    1.3410   -3.4140 c3        1 1L8      0.051500
     13 C           5.5360    1.8880   -4.6090 c         1 1L8      0.647100
     14 O           5.0240    2.7870   -5.3150 o         1 1L8     -0.612100
     15 NBF         6.7870    1.4050   -4.8130 n         1 1L8     -0.436800
     16 CAR         7.4060    0.2980   -4.1070 c3        1 1L8      0.086000
     17 CAN         8.7790    0.0550   -4.7560 c3        1 1L8     -0.089400
     18 CAO         8.9040    1.0480   -5.9080 c3        1 1L8     -0.089400
     19 CAS         7.6250    1.8960   -5.9040 c3        1 1L8      0.086000
     20 N           3.2480    1.4290   -3.7310 ny        1 1L8     -0.700900
     21 SBH         2.5060   -0.2070   -4.3600 sy        1 1L8      1.482200
     22 OAB         2.9760   -0.2690   -5.6560 o         1 1L8     -0.573300
     23 OAC         2.9700   -1.0930   -3.4040 o         1 1L8     -0.573300
     24 CBC         0.9640    0.2170   -4.2200 ca        1 1L8     -0.516500
     25 CAM         0.2850    0.8190   -5.2980 ca        1 1L8     -0.010000
     26 CBA        -1.0680    1.1410   -5.2230 ca        1 1L8     -0.059300
     27 CAQ        -1.7360    1.7990   -6.3800 c3        1 1L8     -0.048100
     28 CAP        -3.2620    1.7350   -6.2890 c3        1 1L8      0.158800
     29 NAV        -3.7450    2.0600   -4.9630 n7        1 1L8     -0.822200
     30 CAT        -3.2490    1.1770   -3.9300 c3        1 1L8      0.184100
     31 CBD        -1.7890    0.8640   -4.0490 ca        1 1L8      0.021700
     32 CAZ        -1.1200    0.2520   -2.9580 ca        1 1L8      0.114900
     33 FAD        -1.7980   -0.0260   -1.8220 f         1 1L8     -0.104900
     34 CAL         0.2380   -0.0680   -3.0460 ca        1 1L8     -0.048000
     35 H1          3.9910   -0.2170   -1.2800 ha        1 1L8      0.158000
     36 H2          2.1350    1.4130    2.2660 ha        1 1L8      0.173000
     37 H3          3.0200    3.6840    1.6920 ha        1 1L8      0.164000
     38 H4          4.3590    4.0190   -0.3800 ha        1 1L8      0.153000
     39 H5          5.1070    3.2510   -2.4500 hc        1 1L8      0.095200
     40 H6          6.1660    1.8770   -1.9250 hc        1 1L8      0.095200
     41 H7          4.9320    0.2470   -3.2270 hx        1 1L8      0.117700
     42 H8          7.5200    0.5540   -3.0180 h1        1 1L8      0.060700
     43 H9          6.7640   -0.6240   -4.1890 h1        1 1L8      0.060700
     44 H10         9.5910    0.2110   -4.0040 hc        1 1L8      0.070700
     45 H11         8.8480   -0.9980   -5.1240 hc        1 1L8      0.070700
     46 H12         9.0080    0.5140   -6.8850 hc        1 1L8      0.070700
     47 H13         9.8010    1.7020   -5.7770 hc        1 1L8      0.070700
     48 H14         7.0650    1.8080   -6.8760 h1        1 1L8      0.060700
     49 H15         7.8520    2.9840   -5.7310 h1        1 1L8      0.060700
     50 H16         3.1280    2.1680   -4.4370 hn        1 1L8      0.463300
     51 H17         0.8350    1.0260   -6.2360 ha        1 1L8      0.171000
     52 H18        -1.4080    2.8740   -6.4160 hc        1 1L8      0.077700
     53 H19        -1.4150    1.3130   -7.3400 hc        1 1L8      0.077700
     54 H20        -3.5970    0.7110   -6.6280 h1        1 1L8      0.053200
     55 H21        -3.6960    2.4910   -7.0030 h1        1 1L8      0.053200
     56 H22        -4.7470    2.0920   -4.9410 hn        1 1L8      0.395800
     57 H24        -3.4310    1.6860   -2.9360 h1        1 1L8      0.078200
     58 H25        -3.7890    0.1790   -3.8960 h1        1 1L8      0.078200
     59 H26         0.7290   -0.5690   -2.1880 ha        1 1L8      0.191000
     60 H23         2.7580    1.7330   -2.8890 hn        1 1L8      0.463300
@<TRIPOS>BOND
     1    1    2 1   
     2    2    3 1   
     3    2    4 1   
     4    2    5 1   
     5    5    6 ar  
     6    5    7 ar  
     7    6   10 ar  
     8    6   35 1   
     9    7    8 ar  
    10    7   36 1   
    11    8    9 ar  
    12    8   37 1   
    13    9   10 ar  
    14    9   38 1   
    15   10   11 1   
    16   11   12 1   
    17   11   39 1   
    18   11   40 1   
    19   12   13 1   
    20   12   20 1   
    21   12   41 1   
    22   13   14 2   
    23   13   15 1   
    24   15   16 1   
    25   15   19 1   
    26   16   17 1   
    27   16   42 1   
    28   16   43 1   
    29   17   18 1   
    30   17   44 1   
    31   17   45 1   
    32   18   19 1   
    33   18   46 1   
    34   18   47 1   
    35   19   48 1   
    36   19   49 1   
    37   20   21 1   
    38   20   50 1   
    39   20   60 1   
    40   21   22 2   
    41   21   23 2   
    42   21   24 1   
    43   24   25 ar  
    44   24   34 ar  
    45   25   26 ar  
    46   25   51 1   
    47   26   27 1   
    48   26   31 ar  
    49   27   28 1   
    50   27   52 1   
    51   27   53 1   
    52   28   29 1   
    53   28   54 1   
    54   28   55 1   
    55   29   30 1   
    56   29   56 1   
    57   30   31 1   
    58   30   57 1   
    59   30   58 1   
    60   31   32 ar  
    61   32   33 1   
    62   32   34 ar  
    63   34   59 1   
@<TRIPOS>SUBSTRUCTURE
     1 1L8         1 TEMP              0 ****  ****    0 ROOT
