@<TRIPOS>MOLECULE
1L8
   60    63     1     0     0
SMALL
bcc


@<TRIPOS>ATOM
      1 FAE         1.8570   -1.2660    1.9500 f         1 1L8     -0.228967
      2 CBG         2.4250   -1.0790    0.7170 c3        1 1L8      0.690200
      3 FAF         3.3520   -2.0830    0.5980 f         1 1L8     -0.228967
      4 FAG         1.4330   -1.4260   -0.1730 f         1 1L8     -0.228967
      5 CBB         2.9820    0.3220    0.4700 ca        1 1L8     -0.163300
      6 CD2         3.7530    0.5390   -0.6740 ca        1 1L8     -0.114000
      7 CAJ         2.7150    1.3600    1.3610 ca        1 1L8     -0.061000
      8 CAH         3.2180    2.6350    1.0930 ca        1 1L8     -0.118000
      9 CD1         3.9720    2.8650   -0.0550 ca        1 1L8     -0.088000
     10 CG          4.2450    1.8190   -0.9490 ca        1 1L8     -0.141300
     11 CB          5.1090    2.0890   -2.1290 c3        1 1L8     -0.051100
     12 CA          4.7050    1.3280   -3.3990 c3        1 1L8      0.051500
     13 C           5.5460    1.9200   -4.5670 c         1 1L8      0.647100
     14 O           5.0440    2.8520   -5.2350 o         1 1L8     -0.612100
     15 NBF         6.7950    1.4380   -4.7880 n         1 1L8     -0.436800
     16 CAR         7.4030    0.2960   -4.1280 c3        1 1L8      0.086000
     17 CAN         8.7770    0.0710   -4.7820 c3        1 1L8     -0.089400
     18 CAO         8.9140    1.1130   -5.8890 c3        1 1L8     -0.089400
     19 CAS         7.6410    1.9690   -5.8530 c3        1 1L8      0.086000
     20 N           3.2520    1.4400   -3.7170 n4        1 1L8     -0.700900
     21 SBH         2.5000   -0.1610   -4.4170 sy        1 1L8      1.482200
     22 OAB         2.9710   -0.1700   -5.7140 o         1 1L8     -0.573300
     23 OAC         2.9560   -1.0910   -3.5000 o         1 1L8     -0.573300
     24 CBC         0.9600    0.2670   -4.2610 ca        1 1L8     -0.516500
     25 CAM         0.2870    0.9190   -5.3140 ca        1 1L8     -0.010000
     26 CBA        -1.0630    1.2470   -5.2270 ca        1 1L8     -0.059300
     27 CAQ        -1.7260    1.9580   -6.3560 c3        1 1L8     -0.048100
     28 CAP        -3.2520    1.9010   -6.2690 c3        1 1L8      0.158800
     29 NAV        -3.7350    2.1730   -4.9310 n3        1 1L8     -0.822200
     30 CAT        -3.2460    1.2440   -3.9360 c3        1 1L8      0.184100
     31 CBD        -1.7880    0.9260   -4.0670 ca        1 1L8      0.021700
     32 CAZ        -1.1250    0.2640   -3.0020 ca        1 1L8      0.114900
     33 FAD        -1.8070   -0.0580   -1.8790 f         1 1L8     -0.104900
     34 CAL         0.2310   -0.0620   -3.1020 ca        1 1L8     -0.048000
     35 H1          3.9770   -0.3160   -1.3360 ha        1 1L8      0.158000
     36 H2          2.1190    1.1730    2.2710 ha        1 1L8      0.173000
     37 H3          3.0190    3.4600    1.7970 ha        1 1L8      0.164000
     38 H4          4.3680    3.8750   -0.2540 ha        1 1L8      0.153000
     39 H5          5.1200    3.1920   -2.3520 hc        1 1L8      0.095200
     40 H6          6.1670    1.7880   -1.8840 hc        1 1L8      0.095200
     41 H7          4.9260    0.2260   -3.2590 hx        1 1L8      0.117700
     42 H8          6.7550   -0.6160   -4.2520 h1        1 1L8      0.060700
     43 H9          7.5150    0.5040   -3.0280 h1        1 1L8      0.060700
     44 H10         9.5870    0.1880   -4.0210 hc        1 1L8      0.070700
     45 H11         8.8390   -0.9650   -5.1960 hc        1 1L8      0.070700
     46 H12         9.0190    0.6220   -6.8880 hc        1 1L8      0.070700
     47 H13         9.8150    1.7540   -5.7250 hc        1 1L8      0.070700
     48 H14         7.0840    1.9270   -6.8300 h1        1 1L8      0.060700
     49 H15         7.8740    3.0470   -5.6320 h1        1 1L8      0.060700
     50 H16         3.1410    2.2100   -4.3910 hn        1 1L8      0.463300
     51 H17         0.8400    1.1620   -6.2420 ha        1 1L8      0.171000
     52 H18        -1.3890    3.0310   -6.3460 hc        1 1L8      0.077700
     53 H19        -1.4070    1.5100   -7.3350 hc        1 1L8      0.077700
     54 H20        -3.5930    0.8940   -6.6520 h1        1 1L8      0.053200
     55 H21        -3.6800    2.6900   -6.9520 h1        1 1L8      0.053200
     56 H22        -4.7370    2.2110   -4.9100 hn        1 1L8      0.395800
     57 H24        -3.4250    1.7120   -2.9210 h1        1 1L8      0.078200
     58 H25        -3.7930    0.2500   -3.9440 h1        1 1L8      0.078200
     59 H26         0.7170   -0.6020   -2.2650 ha        1 1L8      0.191000
     60 H23         2.7610    1.7130   -2.8640 hn        1 1L8      0.463300
@<TRIPOS>BOND
     1    1    2 1   
     2    2    3 1   
     3    2    4 1   
     4    2    5 1   
     5    5    6 ar  
     6    5    7 ar  
     7    6   10 ar  
     8    6   35 1   
     9    7    8 ar  
    10    7   36 1   
    11    8    9 ar  
    12    8   37 1   
    13    9   10 ar  
    14    9   38 1   
    15   10   11 1   
    16   11   12 1   
    17   11   39 1   
    18   11   40 1   
    19   12   13 1   
    20   12   20 1   
    21   12   41 1   
    22   13   14 2   
    23   13   15 1   
    24   15   16 1   
    25   15   19 1   
    26   16   17 1   
    27   16   42 1   
    28   16   43 1   
    29   17   18 1   
    30   17   44 1   
    31   17   45 1   
    32   18   19 1   
    33   18   46 1   
    34   18   47 1   
    35   19   48 1   
    36   19   49 1   
    37   20   21 1   
    38   20   50 1   
    39   20   60 1   
    40   21   22 2   
    41   21   23 2   
    42   21   24 1   
    43   24   25 ar  
    44   24   34 ar  
    45   25   26 ar  
    46   25   51 1   
    47   26   27 1   
    48   26   31 ar  
    49   27   28 1   
    50   27   52 1   
    51   27   53 1   
    52   28   29 1   
    53   28   54 1   
    54   28   55 1   
    55   29   30 1   
    56   29   56 1   
    57   30   31 1   
    58   30   57 1   
    59   30   58 1   
    60   31   32 ar  
    61   32   33 1   
    62   32   34 ar  
    63   34   59 1   
@<TRIPOS>SUBSTRUCTURE
     1 1L8         1 TEMP              0 ****  ****    0 ROOT
