@<TRIPOS>MOLECULE
1L8
   59    55     1     0     0
SMALL
bcc


@<TRIPOS>ATOM
      1 FAE         4.5250   -3.7850    4.5860 f         1 1L8     -0.165667
      2 CBG         3.5540   -3.5120    3.6330 c3        1 1L8      0.466000
      3 FAF         2.6700   -4.4410    3.6480 f         1 1L8     -0.165667
      4 FAG         4.1190   -3.4540    2.4250 f         1 1L8     -0.165667
      5 CBB         2.8970   -2.1820    3.9500 c1        1 1L8     -0.163000
      6 CD2         1.6960   -1.8220    3.3180 c1        1 1L8     -0.080000
      7 CAJ         3.5120   -1.2990    4.8170 c1        1 1L8     -0.107500
      8 CAH         2.9370   -0.0440    5.0650 c1        1 1L8     -0.107500
      9 CD1         1.7480    0.3150    4.4400 c1        1 1L8     -0.091000
     10 CG          1.1250   -0.5720    3.5660 c1        1 1L8     -0.089000
     11 CB         -0.2730   -0.2270    2.9870 c3        1 1L8     -0.135000
     12 CA         -0.1090    0.4050    1.5940 c3        1 1L8      0.039000
     13 C          -0.0190    1.9130    1.7300 c2        1 1L8      0.282000
     14 O          -1.0250    2.5780    2.1430 o         1 1L8     -0.379000
     15 NBF         1.2220    2.6130    1.3390 n         1 1L8     -0.322000
     16 CAR         1.4890    4.2090    1.3630 c3        1 1L8     -0.035500
     17 CAN         2.7390    4.3680    1.7390 c3        1 1L8     -0.168500
     18 CAO         3.4600    3.0640    1.2960 c3        1 1L8     -0.168500
     19 CAS         2.3130    2.0660    0.9000 c3        1 1L8     -0.035500
     20 N          -1.2350    0.0650    0.7760 n3        1 1L8     -0.885000
     21 SBH        -1.1590   -1.2430   -0.2480 s4        1 1L8      2.078800
     22 OAB        -1.7940   -2.4200    0.3460 o         1 1L8     -0.543400
     23 OAC         0.2080   -1.7090   -0.4070 o         1 1L8     -0.543400
     24 CBC        -1.9020   -0.8350   -1.8370 c1        1 1L8     -0.807000
     25 CAM        -2.6420   -1.8240   -2.5470 c1        1 1L8     -0.031000
     26 CBA        -3.1170   -1.5540   -3.8340 c1        1 1L8     -0.062000
     27 CAQ        -3.8440   -2.6340   -4.7060 c3        1 1L8     -0.124000
     28 CAP        -4.0620   -2.3010   -6.0850 c3        1 1L8     -0.074000
     29 NAV        -4.3510   -0.9640   -6.3770 n3        1 1L8     -0.297000
     30 CAT        -3.4860    0.0030   -5.9020 c3        1 1L8     -0.047000
     31 CBD        -2.8570   -0.2610   -4.4520 c1        1 1L8     -0.036000
     32 CAZ        -2.1310    0.7100   -3.7560 c1        1 1L8      0.066000
     33 FAD        -1.9210    1.9450   -4.3210 f         1 1L8     -0.101000
     34 CAL        -1.6440    0.4330   -2.4370 c2        1 1L8     -0.050000
     35 H1          1.2660   -2.4390    2.7130 ha        1 1L8      0.153000
     36 H2          4.3570   -1.5520    5.2610 ha        1 1L8      0.148000
     37 H3          3.3800    0.5900    5.6860 ha        1 1L8      0.148000
     38 H4          1.3390    1.2090    4.6180 ha        1 1L8      0.161000
     39 H5         -0.8080   -1.0470    2.9140 hc        1 1L8      0.115000
     40 H6         -0.7320    0.4150    3.5910 hc        1 1L8      0.115000
     41 H7          0.7330    0.0570    1.1650 h1        1 1L8      0.130000
     42 H8          1.3520    4.5950    0.4440 h1        1 1L8      0.098250
     43 H9          0.8880    4.6410    2.0030 h1        1 1L8      0.098250
     44 H10         2.7940    4.4760    2.7130 hc        1 1L8      0.094500
     45 H11         3.1190    5.1190    1.3030 hc        1 1L8      0.094500
     46 H12         4.0050    2.6870    2.0610 hc        1 1L8      0.094500
     47 H13         3.9980    3.2300    0.5730 hc        1 1L8      0.094500
     48 H14         2.2700    1.9600   -0.1220 h1        1 1L8      0.098250
     49 H15         2.4560    1.1880    1.3330 h1        1 1L8      0.098250
     50 H16        -1.9630    0.5330    0.8250 hn        1 1L8      0.253000
     51 H17        -2.7760   -2.7250   -2.1470 ha        1 1L8      0.163000
     52 H18        -4.7800   -2.8350   -4.2660 hc        1 1L8      0.105500
     53 H19        -3.3170   -3.4450   -4.6760 hc        1 1L8      0.105500
     54 H20        -4.8350   -2.8710   -6.4270 h1        1 1L8      0.076000
     55 H21        -3.2440   -2.5530   -6.5910 h1        1 1L8      0.076000
     56 H22        -4.4560   -0.8640   -7.2850 hn        1 1L8      0.168000
     57 H24        -2.6920    0.0760   -6.5830 h1        1 1L8      0.096500
     58 H25        -4.0050    0.8830   -5.8570 h1        1 1L8      0.096500
     59 H26        -0.9920    1.0660   -2.0020 ha        1 1L8      0.166000
@<TRIPOS>BOND
     1    1    2 1   
     2    2    3 1   
     3    2    4 1   
     4    2    5 1   
     5    5    6 1   
     6    6   35 1   
     7    7    8 1   
     8    7   36 1   
     9    8   37 1   
    10    9   10 1   
    11    9   38 1   
    12   10   11 1   
    13   11   12 1   
    14   11   39 1   
    15   11   40 1   
    16   12   13 1   
    17   12   20 1   
    18   12   41 1   
    19   13   14 1   
    20   13   15 1   
    21   15   16 1   
    22   15   19 1   
    23   16   17 1   
    24   16   42 1   
    25   16   43 1   
    26   17   18 1   
    27   17   44 1   
    28   17   45 1   
    29   18   19 1   
    30   18   46 1   
    31   18   47 1   
    32   19   48 1   
    33   19   49 1   
    34   20   21 1   
    35   20   50 1   
    36   21   22 1   
    37   21   23 1   
    38   24   34 1   
    39   25   26 1   
    40   25   51 1   
    41   26   27 1   
    42   27   28 1   
    43   27   52 1   
    44   27   53 1   
    45   28   29 1   
    46   28   54 1   
    47   28   55 1   
    48   29   30 1   
    49   29   56 1   
    50   30   31 1   
    51   30   57 1   
    52   30   58 1   
    53   31   32 1   
    54   32   34 1   
    55   34   59 1   
@<TRIPOS>SUBSTRUCTURE
     1 1L8         1 TEMP              0 ****  ****    0 ROOT
