@<TRIPOS>MOLECULE
1L8
   59    62     1     0     0
SMALL
bcc


@<TRIPOS>ATOM
      1 FAE        -2.8010    4.5020    0.1010 f         1 1L8     -0.236633
      2 CBG        -1.5010    4.3740   -0.3240 c3        1 1L8      0.687200
      3 FAF        -1.2610    5.5370   -1.0170 f         1 1L8     -0.236633
      4 FAG        -0.7570    4.5120    0.8240 f         1 1L8     -0.236633
      5 CBB        -1.2110    3.1050   -1.1160 ca        1 1L8     -0.164300
      6 CD2         0.0900    2.6020   -1.1480 ca        1 1L8     -0.086000
      7 CAJ        -2.2390    2.4720   -1.8170 ca        1 1L8     -0.081000
      8 CAH        -1.9550    1.3240   -2.5560 ca        1 1L8     -0.129000
      9 CD1        -0.6570    0.8170   -2.5960 ca        1 1L8     -0.093000
     10 CG          0.3750    1.4500   -1.8920 ca        1 1L8     -0.085300
     11 CB          1.7680    0.9420   -1.9690 c3        1 1L8     -0.049100
     12 CA          2.2320    0.2470   -0.6730 c3        1 1L8      0.191500
     13 C           3.7660    0.0480   -0.8480 c         1 1L8      0.629100
     14 O           4.1850   -0.6350   -1.8060 o         1 1L8     -0.608100
     15 NBF         4.6330    0.6940    0.0020 n         1 1L8     -0.456800
     16 CAR         4.2630    1.2300    1.3020 c3        1 1L8      0.077000
     17 CAN         5.5450    1.3330    2.1460 c3        1 1L8     -0.089900
     18 CAO         6.6860    0.8240    1.2720 c3        1 1L8     -0.089900
     19 CAS         6.0680    0.4600   -0.0860 c3        1 1L8      0.077000
     20 N           1.6000   -1.0160   -0.4160 n3        1 1L8     -0.907100
     21 SBH         1.1010   -1.5320    1.0360 sy        1 1L8      1.516200
     22 OAB         1.4060   -2.9010    1.1610 o         1 1L8     -0.653300
     23 OAC         1.5940   -0.6630    2.0380 o         1 1L8     -0.653300
     24 CBC        -0.5810   -1.3810    0.9620 ca        1 1L8     -0.353500
     25 CAM        -1.3470   -2.3600    0.3250 ca        1 1L8     -0.033000
     26 CBA        -2.7420   -2.2820    0.2860 ca        1 1L8     -0.069300
     27 CAQ        -3.5240   -3.3300   -0.4220 c3        1 1L8     -0.037100
     28 CAP        -4.9920   -3.3450    0.0070 c3        1 1L8      0.161800
     29 NAV        -5.5780   -2.0210    0.0360 n3        1 1L8     -0.818200
     30 CAT        -4.8900   -1.0850    0.9030 c3        1 1L8      0.197100
     31 CBD        -3.3970   -1.2070    0.9010 ca        1 1L8     -0.047300
     32 CAZ        -2.6270   -0.2190    1.5560 ca        1 1L8      0.102900
     33 FAD        -3.2410    0.8230    2.1670 f         1 1L8     -0.131900
     34 CAL        -1.2270   -0.3090    1.5810 ca        1 1L8     -0.054000
     35 H1          0.8910    3.1140   -0.5900 ha        1 1L8      0.150000
     36 H2         -3.2620    2.8770   -1.7810 ha        1 1L8      0.154000
     37 H3         -2.7600    0.8190   -3.1110 ha        1 1L8      0.146000
     38 H4         -0.4390   -0.0850   -3.1890 ha        1 1L8      0.140000
     39 H5          1.8850    0.2320   -2.8330 hc        1 1L8      0.076200
     40 H6          2.4660    1.8040   -2.1540 hc        1 1L8      0.076200
     41 H7          2.0120    0.9360    0.1970 h1        1 1L8      0.085700
     42 H8          3.8050    2.2480    1.1580 h1        1 1L8      0.060200
     43 H9          3.5060    0.5720    1.8170 h1        1 1L8      0.060200
     44 H10         5.7180    2.3930    2.4530 hc        1 1L8      0.054700
     45 H11         5.4440    0.7190    3.0730 hc        1 1L8      0.054700
     46 H12         7.4720    1.6070    1.1410 hc        1 1L8      0.054700
     47 H13         7.1690   -0.0740    1.7290 hc        1 1L8      0.054700
     48 H14         6.2720   -0.6130   -0.3570 h1        1 1L8      0.060200
     49 H15         6.4850    1.1060   -0.9060 h1        1 1L8      0.060200
     50 H16         1.6130   -1.6210   -1.2060 hn        1 1L8      0.458800
     51 H17        -0.8420   -3.2260   -0.1390 ha        1 1L8      0.152000
     52 H18        -3.4580   -3.1400   -1.5280 hc        1 1L8      0.064200
     53 H19        -3.0840   -4.3430   -0.2240 hc        1 1L8      0.064200
     54 H20        -5.5790   -3.9570   -0.7340 h1        1 1L8      0.037200
     55 H21        -5.0610   -3.8640    1.0090 h1        1 1L8      0.037200
     56 H22        -6.5450   -2.0750    0.2980 hn        1 1L8      0.372800
     57 H24        -5.1650   -0.0470    0.5500 h1        1 1L8      0.057200
     58 H25        -5.2240   -1.1680    1.9830 h1        1 1L8      0.057200
     59 H26        -0.6410    0.4650    2.1090 ha        1 1L8      0.173000
@<TRIPOS>BOND
     1    1    2 1   
     2    2    3 1   
     3    2    4 1   
     4    2    5 1   
     5    5    6 ar  
     6    5    7 ar  
     7    6   10 ar  
     8    6   35 1   
     9    7    8 ar  
    10    7   36 1   
    11    8    9 ar  
    12    8   37 1   
    13    9   10 ar  
    14    9   38 1   
    15   10   11 1   
    16   11   12 1   
    17   11   39 1   
    18   11   40 1   
    19   12   13 1   
    20   12   20 1   
    21   12   41 1   
    22   13   14 2   
    23   13   15 1   
    24   15   16 1   
    25   15   19 1   
    26   16   17 1   
    27   16   42 1   
    28   16   43 1   
    29   17   18 1   
    30   17   44 1   
    31   17   45 1   
    32   18   19 1   
    33   18   46 1   
    34   18   47 1   
    35   19   48 1   
    36   19   49 1   
    37   20   21 1   
    38   20   50 1   
    39   21   22 2   
    40   21   23 2   
    41   21   24 1   
    42   24   25 ar  
    43   24   34 ar  
    44   25   26 ar  
    45   25   51 1   
    46   26   27 1   
    47   26   31 ar  
    48   27   28 1   
    49   27   52 1   
    50   27   53 1   
    51   28   29 1   
    52   28   54 1   
    53   28   55 1   
    54   29   30 1   
    55   29   56 1   
    56   30   31 1   
    57   30   57 1   
    58   30   58 1   
    59   31   32 ar  
    60   32   33 1   
    61   32   34 ar  
    62   34   59 1   
@<TRIPOS>SUBSTRUCTURE
     1 1L8         1 TEMP              0 ****  ****    0 ROOT
