@<TRIPOS>MOLECULE
1L8
   60    63     1     0     0
SMALL
bcc


@<TRIPOS>ATOM
      1 FAE         1.8810   -0.9440    2.0840 f         1 1L8     -0.228967
      2 CBG         2.4460   -0.8270    0.8420 c3        1 1L8      0.690200
      3 FAF         3.3810   -1.8290    0.7830 f         1 1L8     -0.228967
      4 FAG         1.4570   -1.2360   -0.0250 f         1 1L8     -0.228967
      5 CBB         2.9920    0.5600    0.5100 ca        1 1L8     -0.163300
      6 CD2         3.7600    0.7150   -0.6470 ca        1 1L8     -0.114000
      7 CAJ         2.7180    1.6490    1.3380 ca        1 1L8     -0.061000
      8 CAH         3.2100    2.9090    0.9920 ca        1 1L8     -0.118000
      9 CD1         3.9620    3.0750   -0.1690 ca        1 1L8     -0.088000
     10 CG          4.2410    1.9780   -0.9990 ca        1 1L8     -0.141300
     11 CB          5.1010    2.1840   -2.1950 c3        1 1L8     -0.051100
     12 CA          4.7020    1.3440   -3.4160 c3        1 1L8      0.051500
     13 C           5.5360    1.8710   -4.6190 c         1 1L8      0.647100
     14 O           5.0240    2.7560   -5.3410 o         1 1L8     -0.612100
     15 NBF         6.7890    1.3870   -4.8120 n         1 1L8     -0.436800
     16 CAR         7.4080    0.2930   -4.0860 c3        1 1L8      0.086000
     17 CAN         8.7830    0.0420   -4.7280 c3        1 1L8     -0.089400
     18 CAO         8.9080    1.0140   -5.8970 c3        1 1L8     -0.089400
     19 CAS         7.6280    1.8610   -5.9100 c3        1 1L8      0.086000
     20 N           3.2480    1.4230   -3.7370 n4        1 1L8     -0.700900
     21 SBH         2.5100   -0.2240   -4.3380 sy        1 1L8      1.482200
     22 OAB         2.9820   -0.3080   -5.6310 o         1 1L8     -0.573300
     23 OAC         2.9740   -1.0930   -3.3660 o         1 1L8     -0.573300
     24 CBC         0.9670    0.1990   -4.2070 ca        1 1L8     -0.516500
     25 CAM         0.2880    0.7800   -5.2970 ca        1 1L8     -0.010000
     26 CBA        -1.0650    1.1010   -5.2300 ca        1 1L8     -0.059300
     27 CAQ        -1.7330    1.7360   -6.4000 c3        1 1L8     -0.048100
     28 CAP        -3.2590    1.6720   -6.3100 c3        1 1L8      0.158800
     29 NAV        -3.7440    2.0200   -4.9910 n3        1 1L8     -0.822200
     30 CAT        -3.2480    1.1570   -3.9410 c3        1 1L8      0.184100
     31 CBD        -1.7880    0.8450   -4.0530 ca        1 1L8      0.021700
     32 CAZ        -1.1190    0.2530   -2.9500 ca        1 1L8      0.114900
     33 FAD        -1.7990   -0.0050   -1.8090 f         1 1L8     -0.104900
     34 CAL         0.2390   -0.0660   -3.0300 ca        1 1L8     -0.048000
     35 H1          3.9890   -0.1770   -1.2560 ha        1 1L8      0.158000
     36 H2          2.1250    1.5120    2.2590 ha        1 1L8      0.173000
     37 H3          3.0070    3.7730    1.6450 ha        1 1L8      0.164000
     38 H4          4.3490    4.0740   -0.4300 ha        1 1L8      0.153000
     39 H5          6.1620    1.9090   -1.9340 hc        1 1L8      0.095200
     40 H6          5.1020    3.2720   -2.4850 hc        1 1L8      0.095200
     41 H7          4.9330    0.2540   -3.2090 hx        1 1L8      0.117700
     42 H8          7.5200    0.5690   -3.0010 h1        1 1L8      0.060700
     43 H9          6.7680   -0.6300   -4.1530 h1        1 1L8      0.060700
     44 H10         9.5940    0.2130   -3.9770 hc        1 1L8      0.070700
     45 H11         8.8550   -1.0170   -5.0770 hc        1 1L8      0.070700
     46 H12         9.8040    1.6720   -5.7760 hc        1 1L8      0.070700
     47 H13         9.0150    0.4640   -6.8640 hc        1 1L8      0.070700
     48 H14         7.0700    1.7540   -6.8810 h1        1 1L8      0.060700
     49 H15         7.8520    2.9520   -5.7550 h1        1 1L8      0.060700
     50 H16         2.7560    1.7420   -2.9010 hn        1 1L8      0.463300
     51 H17         0.8400    0.9710   -6.2380 ha        1 1L8      0.171000
     52 H18        -1.4060    2.8120   -6.4550 hc        1 1L8      0.077700
     53 H19        -1.4100    1.2340   -7.3510 hc        1 1L8      0.077700
     54 H20        -3.6930    2.4140   -7.0390 h1        1 1L8      0.053200
     55 H21        -3.5910    0.6410   -6.6310 h1        1 1L8      0.053200
     56 H22        -4.7470    2.0500   -4.9710 hn        1 1L8      0.395800
     57 H24        -3.4320    1.6840   -2.9570 h1        1 1L8      0.078200
     58 H25        -3.7870    0.1590   -3.8900 h1        1 1L8      0.078200
     59 H26         0.7300   -0.5500   -2.1620 ha        1 1L8      0.191000
     60 H23         3.1280    2.1500   -4.4560 hn        1 1L8      0.463300
@<TRIPOS>BOND
     1    1    2 1   
     2    2    3 1   
     3    2    4 1   
     4    2    5 1   
     5    5    6 ar  
     6    5    7 ar  
     7    6   10 ar  
     8    6   35 1   
     9    7    8 ar  
    10    7   36 1   
    11    8    9 ar  
    12    8   37 1   
    13    9   10 ar  
    14    9   38 1   
    15   10   11 1   
    16   11   12 1   
    17   11   39 1   
    18   11   40 1   
    19   12   13 1   
    20   12   20 1   
    21   12   41 1   
    22   13   14 2   
    23   13   15 1   
    24   15   16 1   
    25   15   19 1   
    26   16   17 1   
    27   16   42 1   
    28   16   43 1   
    29   17   18 1   
    30   17   44 1   
    31   17   45 1   
    32   18   19 1   
    33   18   46 1   
    34   18   47 1   
    35   19   48 1   
    36   19   49 1   
    37   20   21 1   
    38   20   50 1   
    39   20   60 1   
    40   21   22 2   
    41   21   23 2   
    42   21   24 1   
    43   24   25 ar  
    44   24   34 ar  
    45   25   26 ar  
    46   25   51 1   
    47   26   27 1   
    48   26   31 ar  
    49   27   28 1   
    50   27   52 1   
    51   27   53 1   
    52   28   29 1   
    53   28   54 1   
    54   28   55 1   
    55   29   30 1   
    56   29   56 1   
    57   30   31 1   
    58   30   57 1   
    59   30   58 1   
    60   31   32 ar  
    61   32   33 1   
    62   32   34 ar  
    63   34   59 1   
@<TRIPOS>SUBSTRUCTURE
     1 1L8         1 TEMP              0 ****  ****    0 ROOT
