@<TRIPOS>MOLECULE
1LB
   26    20     1     0     0
SMALL
bcc


@<TRIPOS>ATOM
      1 C01        -1.7960   -0.3210    1.1370 c3        1 1LB     -0.039000
      2 C02        -1.3480   -0.5560    2.5630 c1        1 1LB     -0.146000
      3 N03        -1.0090   -0.7330    3.6370 n1        1 1LB     -0.030000
      4 C04        -3.2990   -0.1440    1.1040 c1        1 1LB      0.306000
      5 N05        -4.1330   -1.2340    0.7460 n2        1 1LB     -0.423000
      6 O06        -3.7910    0.9230    1.4130 o         1 1LB     -0.362000
      7 C07        -1.1300    0.9260    0.5980 c3        1 1LB     -0.106000
      8 C08         0.1170    0.5400   -0.1670 c1        1 1LB     -0.123000
      9 C09         0.0200    0.2930   -1.5250 c1        1 1LB     -0.115500
     10 C10         1.1620    0.0380   -2.2660 c1        1 1LB     -0.115500
     11 C11         2.4220    0.0310   -1.6380 c1        1 1LB      0.000000
     12 N12         3.6840   -0.1930   -2.1180 n1        1 1LB     -0.198000
     13 N13         4.5650   -0.0870   -1.0660 n2        1 1LB     -0.040000
     14 C14         3.8540    0.2000    0.0500 c1        1 1LB     -0.152000
     15 C15         2.5180    0.2740   -0.3020 c1        1 1LB     -0.131000
     16 C16         1.3570    0.5330    0.4510 c1        1 1LB     -0.046000
     17 H011       -1.5470   -1.0870    0.5870 hc        1 1LB      0.159000
     18 H051       -3.7670   -2.0550    0.5800 hn        1 1LB      0.232000
     19 H052       -5.0390   -1.1180    0.6950 hn        1 1LB      0.232000
     20 H071       -1.7470    1.3930    0.0000 hc        1 1LB      0.107000
     21 H072       -0.8870    1.5140    1.3410 hc        1 1LB      0.107000
     22 H091       -0.8510    0.3160   -1.9640 ha        1 1LB      0.140500
     23 H101        1.0930   -0.1360   -3.2240 ha        1 1LB      0.140500
     24 H121        3.9030   -0.3800   -2.9830 DU        1 1LB      0.230500
     25 H141        4.2200    0.3310    0.9460 DU        1 1LB      0.230500
     26 H161        1.4280    0.7310    1.4050 ha        1 1LB      0.141000
@<TRIPOS>BOND
     1    1    2 1   
     2    1    4 1   
     3    1    7 1   
     4    1   17 1   
     5    2    3 1   
     6    4    6 1   
     7    5   18 1   
     8    5   19 1   
     9    7    8 1   
    10    7   20 1   
    11    7   21 1   
    12    8   16 1   
    13    9   10 1   
    14    9   22 1   
    15   10   23 1   
    16   11   15 1   
    17   12   13 1   
    18   13   14 1   
    19   14   15 1   
    20   16   26 1   
@<TRIPOS>SUBSTRUCTURE
     1 1LB         1 TEMP              0 ****  ****    0 ROOT
