@<TRIPOS>MOLECULE
1LB
   27    28     1     0     0
SMALL
bcc


@<TRIPOS>ATOM
      1 C01         1.5590   -0.2120   -0.1420 c3        1 1LB     -0.057600
      2 C02         1.8850   -0.5660    1.2230 c1        1 1LB      0.136700
      3 N03         2.1970   -0.8450    2.3080 n1        1 1LB     -0.251800
      4 C04         0.0730   -0.2660   -0.4110 c         1 1LB      0.547100
      5 N05        -0.8360   -0.5790    0.7630 nz        1 1LB     -0.763400
      6 O06        -0.5030   -0.0870   -1.4680 o         1 1LB     -0.378100
      7 C07         2.0940    1.1840   -0.5220 c3        1 1LB     -0.006100
      8 C08         3.5670    1.1440   -0.7090 ca        1 1LB     -0.177300
      9 C09         4.4100    1.6580    0.3030 ca        1 1LB     -0.086000
     10 C10         5.7880    1.6720    0.1740 ca        1 1LB     -0.123000
     11 C11         6.3320    1.1520   -1.0120 ca        1 1LB     -0.028200
     12 N12         7.6410    1.0010   -1.4780 na        1 1LB     -0.009100
     13 N13         7.6730    0.4520   -2.6990 nc        1 1LB     -0.477100
     14 C14         6.4090    0.2050   -3.0950 cd        1 1LB      0.351800
     15 C15         5.4750    0.6280   -2.0590 ca        1 1LB     -0.218900
     16 C16         4.0960    0.6340   -1.8940 ca        1 1LB     -0.039000
     17 H011        2.0390   -0.9700   -0.8450 hc        1 1LB      0.163700
     18 H051       -0.7070    0.1240    1.5000 hn        1 1LB      0.474467
     19 H052       -1.8200   -0.5780    0.4640 hn        1 1LB      0.474467
     20 H071        1.5970    1.5000   -1.4810 hc        1 1LB      0.077700
     21 H072        1.8160    1.9220    0.2760 hc        1 1LB      0.077700
     22 H091        3.9570    2.0700    1.2190 ha        1 1LB      0.135000
     23 H101        6.4310    2.0780    0.9670 ha        1 1LB      0.157000
     24 H121        8.4800    1.2850   -1.0280 hn        1 1LB      0.340700
     25 H141        6.1740   -0.2450   -4.0610 h4        1 1LB      0.066800
     26 H161        3.4420    0.2540   -2.6920 ha        1 1LB      0.136000
     27 H053       -0.6020   -1.5010    1.1480 hn        1 1LB      0.474467
@<TRIPOS>BOND
     1    1    2 1   
     2    1    4 1   
     3    1    7 1   
     4    1   17 1   
     5    2    3 3   
     6    4    5 1   
     7    4    6 2   
     8    5   18 1   
     9    5   19 1   
    10    5   27 1   
    11    7    8 1   
    12    7   20 1   
    13    7   21 1   
    14    8    9 ar  
    15    8   16 ar  
    16    9   10 ar  
    17    9   22 1   
    18   10   11 ar  
    19   10   23 1   
    20   11   12 1   
    21   11   15 ar  
    22   12   13 1   
    23   12   24 1   
    24   13   14 2   
    25   14   15 1   
    26   14   25 1   
    27   15   16 ar  
    28   16   26 1   
@<TRIPOS>SUBSTRUCTURE
     1 1LB         1 TEMP              0 ****  ****    0 ROOT
