@<TRIPOS>MOLECULE
1LB
   27    28     1     0     0
SMALL
bcc


@<TRIPOS>ATOM
      1 C01         1.5630   -0.2160   -0.1300 c3        1 1LB     -0.057600
      2 C02         1.8870   -0.5310    1.2450 c1        1 1LB      0.136700
      3 N03         2.1970   -0.7790    2.3380 n1        1 1LB     -0.251800
      4 C04         0.0790   -0.2880   -0.4030 c         1 1LB      0.547100
      5 N05        -0.8330   -0.5740    0.7770 n4        1 1LB     -0.763400
      6 O06        -0.4940   -0.1440   -1.4670 o         1 1LB     -0.378100
      7 C07         2.0880    1.1750   -0.5440 c3        1 1LB     -0.006100
      8 C08         3.5620    1.1410   -0.7250 ca        1 1LB     -0.177300
      9 C09         4.3980    1.6870    0.2770 ca        1 1LB     -0.086000
     10 C10         5.7760    1.7080    0.1520 ca        1 1LB     -0.123000
     11 C11         6.3280    1.1640   -1.0190 ca        1 1LB     -0.028200
     12 N12         7.6400    1.0120   -1.4760 na        1 1LB     -0.009100
     13 N13         7.6810    0.4340   -2.6840 nc        1 1LB     -0.477100
     14 C14         6.4200    0.1670   -3.0780 cd        1 1LB      0.352800
     15 C15         5.4790    0.6080   -2.0550 ca        1 1LB     -0.218900
     16 C16         4.1000    0.6080   -1.8960 ca        1 1LB     -0.039000
     17 H011        2.0520   -0.9880   -0.8110 hc        1 1LB      0.163700
     18 H051       -0.5940   -1.4830    1.1880 hn        1 1LB      0.474467
     19 H052       -0.7110    0.1500    1.4930 hn        1 1LB      0.474467
     20 H071        1.5920    1.4620   -1.5120 hc        1 1LB      0.077700
     21 H072        1.8020    1.9310    0.2340 hc        1 1LB      0.077700
     22 H091        3.9380    2.1160    1.1810 ha        1 1LB      0.135000
     23 H101        6.4130    2.1380    0.9370 ha        1 1LB      0.157000
     24 H121        8.4750    1.3130   -1.0300 hn        1 1LB      0.340700
     25 H141        6.1910   -0.3070   -4.0340 h4        1 1LB      0.066800
     26 H161        3.4510    0.2030   -2.6870 ha        1 1LB      0.136000
     27 H053       -1.8150   -0.5890    0.4740 hn        1 1LB      0.474467
@<TRIPOS>BOND
     1    1    2 1   
     2    1    4 1   
     3    1    7 1   
     4    1   17 1   
     5    2    3 3   
     6    4    5 1   
     7    4    6 2   
     8    5   18 1   
     9    5   19 1   
    10    5   27 1   
    11    7    8 1   
    12    7   20 1   
    13    7   21 1   
    14    8    9 ar  
    15    8   16 ar  
    16    9   10 ar  
    17    9   22 1   
    18   10   11 ar  
    19   10   23 1   
    20   11   12 1   
    21   11   15 ar  
    22   12   13 1   
    23   12   24 1   
    24   13   14 2   
    25   14   15 1   
    26   14   25 1   
    27   15   16 ar  
    28   16   26 1   
@<TRIPOS>SUBSTRUCTURE
     1 1LB         1 TEMP              0 ****  ****    0 ROOT
