@<TRIPOS>MOLECULE
1LB
   26    27     1     0     0
SMALL
bcc


@<TRIPOS>ATOM
      1 C01        -2.0850   -0.3220    0.6610 c3        1 1LB     -0.076600
      2 C02        -2.2080    0.9810    1.2830 c1        1 1LB      0.207700
      3 N03        -2.2960    2.0230    1.7910 n1        1 1LB     -0.357800
      4 C04        -3.4470   -0.9950    0.4650 c         1 1LB      0.661100
      5 N05        -4.5230   -0.2250    0.1140 n         1 1LB     -0.664000
      6 O06        -3.5530   -2.2320    0.5840 o         1 1LB     -0.600100
      7 C07        -1.3720   -0.2450   -0.6910 c3        1 1LB     -0.020100
      8 C08         0.0880    0.0030   -0.5400 ca        1 1LB     -0.129300
      9 C09         0.6200    1.2660   -0.8810 ca        1 1LB     -0.087000
     10 C10         1.9720    1.5500   -0.7800 ca        1 1LB     -0.138000
     11 C11         2.8120    0.5270   -0.3170 ca        1 1LB     -0.046200
     12 N12         4.2000    0.4400   -0.1270 na        1 1LB     -0.022100
     13 N13         4.5560   -0.7580    0.3600 nc        1 1LB     -0.507100
     14 C14         3.4550   -1.5280    0.4520 cd        1 1LB      0.349800
     15 C15         2.2800   -0.7720    0.0340 ca        1 1LB     -0.213900
     16 C16         0.9170   -1.0210   -0.0860 ca        1 1LB     -0.052000
     17 H011       -1.4880   -0.9920    1.3510 hc        1 1LB      0.120700
     18 H051       -5.4120   -0.6500    0.0120 hn        1 1LB      0.318000
     19 H052       -4.4610    0.7600    0.0880 hn        1 1LB      0.318000
     20 H071       -1.5280   -1.2270   -1.2180 hc        1 1LB      0.067700
     21 H072       -1.8440    0.5550   -1.3190 hc        1 1LB      0.067700
     22 H091       -0.0650    2.0520   -1.2390 ha        1 1LB      0.136000
     23 H101        2.3700    2.5360   -1.0520 ha        1 1LB      0.142000
     24 H121        4.8400    1.1980   -0.1020 hn        1 1LB      0.323700
     25 H141        3.4880   -2.5640    0.7930 h4        1 1LB      0.057800
     26 H161        0.5050   -2.0090    0.1680 ha        1 1LB      0.144000
@<TRIPOS>BOND
     1    1    2 1   
     2    1    4 1   
     3    1    7 1   
     4    1   17 1   
     5    2    3 3   
     6    4    5 1   
     7    4    6 2   
     8    5   18 1   
     9    5   19 1   
    10    7    8 1   
    11    7   20 1   
    12    7   21 1   
    13    8    9 ar  
    14    8   16 ar  
    15    9   10 ar  
    16    9   22 1   
    17   10   11 ar  
    18   10   23 1   
    19   11   12 1   
    20   11   15 ar  
    21   12   13 1   
    22   12   24 1   
    23   13   14 2   
    24   14   15 1   
    25   14   25 1   
    26   15   16 ar  
    27   16   26 1   
@<TRIPOS>SUBSTRUCTURE
     1 1LB         1 TEMP              0 ****  ****    0 ROOT
