@<TRIPOS>MOLECULE
1LB
   27    28     1     0     0
SMALL
bcc


@<TRIPOS>ATOM
      1 C01         1.5690   -0.2210   -0.1230 c3        1 1LB     -0.057600
      2 C02         1.8910   -0.5090    1.2580 c1        1 1LB      0.136700
      3 N03         2.1990   -0.7360    2.3560 n1        1 1LB     -0.251800
      4 C04         0.0860   -0.3100   -0.3990 c         1 1LB      0.547100
      5 N05        -0.8270   -0.5840    0.7830 n4        1 1LB     -0.763400
      6 O06        -0.4860   -0.1880   -1.4670 o         1 1LB     -0.378100
      7 C07         2.0840    1.1670   -0.5600 c3        1 1LB     -0.006100
      8 C08         3.5590    1.1420   -0.7360 ca        1 1LB     -0.177300
      9 C09         4.3870    1.7120    0.2590 ca        1 1LB     -0.086000
     10 C10         5.7650    1.7420    0.1370 ca        1 1LB     -0.123000
     11 C11         6.3250    1.1820   -1.0220 ca        1 1LB     -0.028200
     12 N12         7.6390    1.0320   -1.4730 na        1 1LB     -0.009100
     13 N13         7.6880    0.4330   -2.6700 nc        1 1LB     -0.477100
     14 C14         6.4310    0.1490   -3.0630 cd        1 1LB      0.352800
     15 C15         5.4840    0.6000   -2.0510 ca        1 1LB     -0.218900
     16 C16         4.1040    0.5920   -1.8950 ca        1 1LB     -0.039000
     17 H011        2.0660   -1.0000   -0.7890 hc        1 1LB      0.163700
     18 H051       -0.5820   -1.4840    1.2100 hn        1 1LB      0.474467
     19 H052       -0.7140    0.1530    1.4870 hn        1 1LB      0.474467
     20 H071        1.7890    1.9330    0.2040 hc        1 1LB      0.077700
     21 H072        1.5890    1.4330   -1.5340 hc        1 1LB      0.077700
     22 H091        3.9210    2.1540    1.1530 ha        1 1LB      0.135000
     23 H101        6.3960    2.1920    0.9160 ha        1 1LB      0.157000
     24 H121        8.4710    1.3490   -1.0300 hn        1 1LB      0.340700
     25 H141        6.2090   -0.3440   -4.0110 h4        1 1LB      0.066800
     26 H161        3.4610    0.1680   -2.6810 ha        1 1LB      0.136000
     27 H053       -1.8090   -0.6120    0.4770 hn        1 1LB      0.474467
@<TRIPOS>BOND
     1    1    2 1   
     2    1    4 1   
     3    1    7 1   
     4    1   17 1   
     5    2    3 3   
     6    4    5 1   
     7    4    6 2   
     8    5   18 1   
     9    5   19 1   
    10    5   27 1   
    11    7    8 1   
    12    7   20 1   
    13    7   21 1   
    14    8    9 ar  
    15    8   16 ar  
    16    9   10 ar  
    17    9   22 1   
    18   10   11 ar  
    19   10   23 1   
    20   11   12 1   
    21   11   15 ar  
    22   12   13 1   
    23   12   24 1   
    24   13   14 2   
    25   14   15 1   
    26   14   25 1   
    27   15   16 ar  
    28   16   26 1   
@<TRIPOS>SUBSTRUCTURE
     1 1LB         1 TEMP              0 ****  ****    0 ROOT
