@<TRIPOS>MOLECULE
1LC
   38    31     1     0     0
SMALL
bcc


@<TRIPOS>ATOM
      1 O01        -1.5210   -0.6630   -1.3380 o         1 1LC     -0.301000
      2 C02        -0.3110   -0.7660   -1.3590 c1        1 1LC      0.340000
      3 C03         0.4670   -0.8210   -0.0620 c2        1 1LC     -0.136000
      4 C04        -0.2060   -0.7940    1.1500 c1        1 1LC     -0.083000
      5 C05         0.5080   -0.7950    2.3380 c1        1 1LC     -0.092000
      6 C06        -0.2270   -0.8470    3.6610 c3        1 1LC     -0.115000
      7 C07        -0.5390    0.5610    4.1190 c3        1 1LC     -0.034000
      8 C08         0.3590    0.9240    5.2810 c1        1 1LC     -0.146000
      9 N09         1.0360    1.1970    6.1570 n1        1 1LC     -0.030000
     10 C10        -1.9860    0.6390    4.5570 c1        1 1LC      0.307000
     11 N11        -2.7170    1.8420    4.3780 n2        1 1LC     -0.425000
     12 O12        -2.5230   -0.3300    5.0560 o         1 1LC     -0.365000
     13 C13         1.8930   -0.8240    2.3150 c1        1 1LC     -0.101000
     14 C14         2.5650   -0.8520    1.1030 c1        1 1LC     -0.136000
     15 C15         1.8520   -0.8510   -0.0850 c2        1 1LC     -0.105000
     16 C16         0.4230   -0.7960   -2.6820 c1        1 1LC     -0.150000
     17 C17         0.7340   -1.9750   -3.3300 c1        1 1LC      0.003000
     18 N18         0.6330   -1.7580   -4.6760 n2        1 1LC     -0.191000
     19 C19         0.2570   -0.4400   -4.8710 c1        1 1LC      0.003000
     20 N20         0.0170    0.2930   -6.0180 n1        1 1LC     -0.140000
     21 C21        -0.3490    1.6040   -5.9280 c1        1 1LC     -0.054000
     22 C22        -0.4790    2.2040   -4.6820 c1        1 1LC     -0.121000
     23 C23        -0.2420    1.4820   -3.5480 c1        1 1LC     -0.121000
     24 C24         0.1280    0.1500   -3.6400 c1        1 1LC     -0.150000
     25 H041       -1.1820   -0.7920    1.1670 ha        1 1LC      0.150000
     26 H062        0.3340   -1.2900    4.3280 hc        1 1LC      0.120500
     27 H061       -1.0600   -1.3470    3.5510 hc        1 1LC      0.120500
     28 H071       -0.3880    1.1840    3.3830 hc        1 1LC      0.153000
     29 H112       -3.5840    1.8960    4.6630 hn        1 1LC      0.233500
     30 H111       -2.3220    2.5610    3.9750 hn        1 1LC      0.233500
     31 H131        2.3960   -0.8250    3.1520 ha        1 1LC      0.139000
     32 H141        3.5410   -0.8730    1.0860 ha        1 1LC      0.138000
     33 H151        2.3250   -0.8700   -0.9390 ha        1 1LC      0.141000
     34 H171        0.9730   -2.8190   -2.9010 DU        1 1LC      0.222500
     35 H181        0.7860   -2.3740   -5.3310 DU        1 1LC      0.222500
     36 H211       -0.5180    2.1200   -6.7380 ha        1 1LC      0.160000
     37 H1         -0.7410    3.1430   -4.6180 ha        1 1LC      0.155500
     38 H231       -0.3340    1.9030   -2.6720 ha        1 1LC      0.155500
@<TRIPOS>BOND
     1    1    2 1   
     2    2    3 1   
     3    3    4 1   
     4    3   15 1   
     5    4   25 1   
     6    5    6 1   
     7    5   13 1   
     8    6    7 1   
     9    6   26 1   
    10    6   27 1   
    11    7    8 1   
    12    7   10 1   
    13    7   28 1   
    14    8    9 1   
    15   10   12 1   
    16   11   29 1   
    17   11   30 1   
    18   13   31 1   
    19   14   15 1   
    20   14   32 1   
    21   15   33 1   
    22   16   17 1   
    23   16   24 1   
    24   17   18 1   
    25   18   19 1   
    26   19   24 1   
    27   20   21 1   
    28   21   36 1   
    29   22   23 1   
    30   22   37 1   
    31   23   38 1   
@<TRIPOS>SUBSTRUCTURE
     1 1LC         1 TEMP              0 ****  ****    0 ROOT
