@<TRIPOS>MOLECULE
1LC
   39    41     1     0     0
SMALL
bcc


@<TRIPOS>ATOM
      1 O01        -0.1020   -0.1940   -0.0300 o         1 1LC     -0.536100
      2 C02         1.1360   -0.1140   -0.0600 c         1 1LC      0.616900
      3 C03         1.8920   -0.0420    1.2220 ca        1 1LC     -0.144600
      4 C04         1.4190   -0.7860    2.3110 ca        1 1LC     -0.067000
      5 C05         2.0720   -0.7220    3.5450 ca        1 1LC     -0.146300
      6 C06         1.5350   -1.4720    4.7100 c3        1 1LC     -0.016100
      7 C07         2.4010   -2.7030    5.0260 c3        1 1LC     -0.054600
      8 C08         2.3390   -3.7080    3.9860 c1        1 1LC      0.134700
      9 N09         2.3200   -4.4840    3.1200 n1        1 1LC     -0.243800
     10 C10         1.9780   -3.2660    6.3650 c         1 1LC      0.547100
     11 N11         0.9130   -4.3460    6.3360 n4        1 1LC     -0.762400
     12 O12         2.3600   -2.9430    7.4740 o         1 1LC     -0.371100
     13 C13         3.1980    0.0990    3.6920 ca        1 1LC     -0.103000
     14 C14         3.6590    0.8490    2.6140 ca        1 1LC     -0.127000
     15 C15         3.0080    0.7830    1.3800 ca        1 1LC     -0.074000
     16 C16         1.8910   -0.1010   -1.2940 cc        1 1LC     -0.237400
     17 C17         3.2690   -0.3140   -1.4730 cd        1 1LC     -0.040100
     18 N18         3.6040   -0.2450   -2.8130 na        1 1LC     -0.266100
     19 C19         2.4310    0.0170   -3.5520 ca        1 1LC      0.409800
     20 N20         2.3100    0.1650   -4.9050 nb        1 1LC     -0.657000
     21 C21         1.0640    0.4060   -5.3280 ca        1 1LC      0.419200
     22 C22        -0.0800    0.5110   -4.4910 ca        1 1LC     -0.256300
     23 C23         0.0500    0.3610   -3.1190 ca        1 1LC     -0.044000
     24 C24         1.3280    0.1080   -2.6110 ca        1 1LC     -0.158100
     25 H041        0.5120   -1.3990    2.1800 ha        1 1LC      0.152000
     26 H062        0.4800   -1.7970    4.5090 hc        1 1LC      0.073200
     27 H061        1.5310   -0.8030    5.6150 hc        1 1LC      0.073200
     28 H071        3.4810   -2.3590    5.1410 hc        1 1LC      0.164700
     29 H112        1.2790   -5.1790    5.8600 hn        1 1LC      0.475467
     30 H111        0.6330   -4.6010    7.2920 hn        1 1LC      0.475467
     31 H131        3.7080    0.1680    4.6650 ha        1 1LC      0.133000
     32 H141        4.5330    1.5080    2.7370 ha        1 1LC      0.154000
     33 H151        3.3610    1.3980    0.5350 ha        1 1LC      0.160000
     34 H171        4.0330   -0.5250   -0.7180 h4        1 1LC      0.171000
     35 H181        4.5030   -0.3700   -3.2020 hn        1 1LC      0.320700
     36 H211        0.9590    0.5270   -6.4230 h4        1 1LC      0.033100
     37 H1         -1.0590    0.7110   -4.9460 ha        1 1LC      0.153000
     38 H231       -0.8110    0.4290   -2.4350 ha        1 1LC      0.163000
     39 H113        0.0930   -4.0080    5.8210 hn        1 1LC      0.475467
@<TRIPOS>BOND
     1    1    2 2   
     2    2    3 1   
     3    2   16 1   
     4    3    4 ar  
     5    3   15 ar  
     6    4    5 ar  
     7    4   25 1   
     8    5    6 1   
     9    5   13 ar  
    10    6    7 1   
    11    6   26 1   
    12    6   27 1   
    13    7    8 1   
    14    7   10 1   
    15    7   28 1   
    16    8    9 3   
    17   10   11 1   
    18   10   12 2   
    19   11   29 1   
    20   11   30 1   
    21   11   39 1   
    22   13   14 ar  
    23   13   31 1   
    24   14   15 ar  
    25   14   32 1   
    26   15   33 1   
    27   16   17 2   
    28   16   24 1   
    29   17   18 1   
    30   17   34 1   
    31   18   19 1   
    32   18   35 1   
    33   19   20 ar  
    34   19   24 ar  
    35   20   21 ar  
    36   21   22 ar  
    37   21   36 1   
    38   22   23 ar  
    39   22   37 1   
    40   23   24 ar  
    41   23   38 1   
@<TRIPOS>SUBSTRUCTURE
     1 1LC         1 TEMP              0 ****  ****    0 ROOT
