@<TRIPOS>MOLECULE
1LC
   39    41     1     0     0
SMALL
bcc


@<TRIPOS>ATOM
      1 O01        -0.0980   -0.1700   -0.0220 o         1 1LC     -0.536100
      2 C02         1.1410   -0.1040   -0.0570 c         1 1LC      0.616900
      3 C03         1.9020   -0.0420    1.2230 ca        1 1LC     -0.144600
      4 C04         1.4250   -0.7810    2.3130 ca        1 1LC     -0.066000
      5 C05         2.0830   -0.7260    3.5440 ca        1 1LC     -0.146300
      6 C06         1.5420   -1.4700    4.7100 c3        1 1LC     -0.016100
      7 C07         2.3950   -2.7110    5.0230 c3        1 1LC     -0.054600
      8 C08         2.3180   -3.7150    3.9820 c1        1 1LC      0.134700
      9 N09         2.2870   -4.4900    3.1160 n1        1 1LC     -0.243800
     10 C10         1.9700   -3.2700    6.3630 c         1 1LC      0.547100
     11 N11         0.8930   -4.3370    6.3370 nz        1 1LC     -0.762400
     12 O12         2.3600   -2.9520    7.4710 o         1 1LC     -0.371100
     13 C13         3.2190    0.0820    3.6880 ca        1 1LC     -0.103000
     14 C14         3.6840    0.8280    2.6080 ca        1 1LC     -0.127000
     15 C15         3.0280    0.7700    1.3770 ca        1 1LC     -0.074000
     16 C16         1.8910   -0.0980   -1.2940 cc        1 1LC     -0.237400
     17 C17         3.2660   -0.3280   -1.4780 cd        1 1LC     -0.040100
     18 N18         3.5970   -0.2610   -2.8190 na        1 1LC     -0.266100
     19 C19         2.4240    0.0150   -3.5540 ca        1 1LC      0.409800
     20 N20         2.3000    0.1650   -4.9060 nb        1 1LC     -0.657000
     21 C21         1.0550    0.4210   -5.3240 ca        1 1LC      0.419200
     22 C22        -0.0840    0.5380   -4.4830 ca        1 1LC     -0.256300
     23 C23         0.0490    0.3860   -3.1110 ca        1 1LC     -0.044000
     24 C24         1.3260    0.1180   -2.6080 ca        1 1LC     -0.158100
     25 H041        0.5100   -1.3830    2.1840 ha        1 1LC      0.152000
     26 H062        0.4820   -1.7840    4.5130 hc        1 1LC      0.073200
     27 H061        1.5480   -0.8020    5.6160 hc        1 1LC      0.073200
     28 H071        3.4790   -2.3800    5.1350 hc        1 1LC      0.164700
     29 H112        0.0750   -3.9900    5.8250 hn        1 1LC      0.475467
     30 H111        1.2470   -5.1750    5.8600 hn        1 1LC      0.475467
     31 H131        3.7330    0.1440    4.6590 ha        1 1LC      0.133000
     32 H141        4.5670    1.4760    2.7290 ha        1 1LC      0.154000
     33 H151        3.3850    1.3820    0.5310 ha        1 1LC      0.160000
     34 H171        4.0300   -0.5480   -0.7260 h4        1 1LC      0.171000
     35 H181        4.4930   -0.3970   -3.2120 hn        1 1LC      0.320700
     36 H211        0.9470    0.5450   -6.4180 h4        1 1LC      0.033100
     37 H1         -1.0630    0.7500   -4.9340 ha        1 1LC      0.153000
     38 H231       -0.8080    0.4630   -2.4240 ha        1 1LC      0.163000
     39 H113        0.6140   -4.5900    7.2940 hn        1 1LC      0.475467
@<TRIPOS>BOND
     1    1    2 2   
     2    2    3 1   
     3    2   16 1   
     4    3    4 ar  
     5    3   15 ar  
     6    4    5 ar  
     7    4   25 1   
     8    5    6 1   
     9    5   13 ar  
    10    6    7 1   
    11    6   26 1   
    12    6   27 1   
    13    7    8 1   
    14    7   10 1   
    15    7   28 1   
    16    8    9 3   
    17   10   11 1   
    18   10   12 2   
    19   11   29 1   
    20   11   30 1   
    21   11   39 1   
    22   13   14 ar  
    23   13   31 1   
    24   14   15 ar  
    25   14   32 1   
    26   15   33 1   
    27   16   17 2   
    28   16   24 1   
    29   17   18 1   
    30   17   34 1   
    31   18   19 1   
    32   18   35 1   
    33   19   20 ar  
    34   19   24 ar  
    35   20   21 ar  
    36   21   22 ar  
    37   21   36 1   
    38   22   23 ar  
    39   22   37 1   
    40   23   24 ar  
    41   23   38 1   
@<TRIPOS>SUBSTRUCTURE
     1 1LC         1 TEMP              0 ****  ****    0 ROOT
