@<TRIPOS>MOLECULE
1LC
   39    41     1     0     0
SMALL
bcc


@<TRIPOS>ATOM
      1 O01        -0.1020   -0.1900   -0.0270 o         1 1LC     -0.536100
      2 C02         1.1360   -0.1120   -0.0590 c         1 1LC      0.616900
      3 C03         1.8930   -0.0420    1.2230 ca        1 1LC     -0.144600
      4 C04         1.4210   -0.7850    2.3120 ca        1 1LC     -0.067000
      5 C05         2.0750   -0.7240    3.5450 ca        1 1LC     -0.146300
      6 C06         1.5380   -1.4720    4.7100 c3        1 1LC     -0.016100
      7 C07         2.4020   -2.7050    5.0250 c3        1 1LC     -0.054600
      8 C08         2.3370   -3.7090    3.9840 c1        1 1LC      0.134700
      9 N09         2.3160   -4.4850    3.1180 n1        1 1LC     -0.243800
     10 C10         1.9790   -3.2680    6.3640 c         1 1LC      0.547100
     11 N11         0.9120   -4.3460    6.3350 n4        1 1LC     -0.762400
     12 O12         2.3620   -2.9460    7.4730 o         1 1LC     -0.371100
     13 C13         3.2030    0.0960    3.6910 ca        1 1LC     -0.103000
     14 C14         3.6640    0.8450    2.6130 ca        1 1LC     -0.127000
     15 C15         3.0110    0.7810    1.3790 ca        1 1LC     -0.074000
     16 C16         1.8900   -0.1000   -1.2940 cc        1 1LC     -0.237400
     17 C17         3.2670   -0.3160   -1.4740 cd        1 1LC     -0.040100
     18 N18         3.6010   -0.2470   -2.8140 na        1 1LC     -0.266100
     19 C19         2.4270    0.0180   -3.5520 ca        1 1LC      0.409800
     20 N20         2.3050    0.1670   -4.9050 nb        1 1LC     -0.657000
     21 C21         1.0590    0.4110   -5.3260 ca        1 1LC      0.419200
     22 C22        -0.0830    0.5170   -4.4880 ca        1 1LC     -0.256300
     23 C23         0.0480    0.3660   -3.1160 ca        1 1LC     -0.044000
     24 C24         1.3260    0.1110   -2.6090 ca        1 1LC     -0.158100
     25 H041        0.5120   -1.3960    2.1810 ha        1 1LC      0.152000
     26 H062        0.4820   -1.7960    4.5110 hc        1 1LC      0.073200
     27 H061        1.5360   -0.8040    5.6150 hc        1 1LC      0.073200
     28 H071        3.4820   -2.3640    5.1400 hc        1 1LC      0.164700
     29 H112        1.2750   -5.1800    5.8590 hn        1 1LC      0.475467
     30 H111        0.6320   -4.6010    7.2910 hn        1 1LC      0.475467
     31 H131        3.7140    0.1630    4.6640 ha        1 1LC      0.133000
     32 H141        4.5400    1.5020    2.7350 ha        1 1LC      0.154000
     33 H151        3.3650    1.3950    0.5350 ha        1 1LC      0.160000
     34 H171        4.0320   -0.5290   -0.7210 h4        1 1LC      0.171000
     35 H181        4.4990   -0.3740   -3.2050 hn        1 1LC      0.320700
     36 H211        0.9530    0.5330   -6.4210 h4        1 1LC      0.033100
     37 H1         -1.0630    0.7190   -4.9420 ha        1 1LC      0.153000
     38 H231       -0.8120    0.4360   -2.4310 ha        1 1LC      0.163000
     39 H113        0.0910   -4.0060    5.8210 hn        1 1LC      0.475467
@<TRIPOS>BOND
     1    1    2 2   
     2    2    3 1   
     3    2   16 1   
     4    3    4 ar  
     5    3   15 ar  
     6    4    5 ar  
     7    4   25 1   
     8    5    6 1   
     9    5   13 ar  
    10    6    7 1   
    11    6   26 1   
    12    6   27 1   
    13    7    8 1   
    14    7   10 1   
    15    7   28 1   
    16    8    9 3   
    17   10   11 1   
    18   10   12 2   
    19   11   29 1   
    20   11   30 1   
    21   11   39 1   
    22   13   14 ar  
    23   13   31 1   
    24   14   15 ar  
    25   14   32 1   
    26   15   33 1   
    27   16   17 2   
    28   16   24 1   
    29   17   18 1   
    30   17   34 1   
    31   18   19 1   
    32   18   35 1   
    33   19   20 ar  
    34   19   24 ar  
    35   20   21 ar  
    36   21   22 ar  
    37   21   36 1   
    38   22   23 ar  
    39   22   37 1   
    40   23   24 ar  
    41   23   38 1   
@<TRIPOS>SUBSTRUCTURE
     1 1LC         1 TEMP              0 ****  ****    0 ROOT
