@<TRIPOS>MOLECULE
1LC
   38    40     1     0     0
SMALL
bcc


@<TRIPOS>ATOM
      1 O01        -1.3250   -0.9470    1.8800 o         1 1LC     -0.538100
      2 C02        -1.2850   -0.1060    0.9690 c         1 1LC      0.618900
      3 C03        -0.0610    0.7040    0.7400 ca        1 1LC     -0.155600
      4 C04         1.1860    0.0680    0.7540 ca        1 1LC     -0.074000
      5 C05         2.3560    0.8060    0.5550 ca        1 1LC     -0.101300
      6 C06         3.6830    0.1340    0.5820 c3        1 1LC     -0.026100
      7 C07         4.3740    0.1600   -0.7820 c3        1 1LC     -0.075600
      8 C08         3.7200   -0.7110   -1.7390 c1        1 1LC      0.204700
      9 N09         3.1910   -1.3950   -2.5160 n1        1 1LC     -0.353800
     10 C10         5.8510   -0.2050   -0.5980 c         1 1LC      0.662100
     11 N11         6.2010   -1.5260   -0.5410 n         1 1LC     -0.663000
     12 O12         6.7030    0.6960   -0.4640 o         1 1LC     -0.599100
     13 C13         2.2730    2.1920    0.3660 ca        1 1LC     -0.108000
     14 C14         1.0330    2.8270    0.3670 ca        1 1LC     -0.136000
     15 C15        -0.1350    2.0870    0.5490 ca        1 1LC     -0.103000
     16 C16        -2.4060    0.1250    0.0750 cc        1 1LC     -0.228400
     17 C17        -2.4070    0.8600   -1.1200 cd        1 1LC     -0.036100
     18 N18        -3.6620    0.8370   -1.7080 na        1 1LC     -0.277100
     19 C19        -4.5180    0.0650   -0.8960 ca        1 1LC      0.407800
     20 N20        -5.8380   -0.2190   -1.1010 nb        1 1LC     -0.666000
     21 C21        -6.3950   -0.9840   -0.1540 ca        1 1LC      0.410200
     22 C22        -5.7250   -1.4920    0.9900 ca        1 1LC     -0.266300
     23 C23        -4.3840   -1.2000    1.1930 ca        1 1LC     -0.041000
     24 C24        -3.7420   -0.4020    0.2420 ca        1 1LC     -0.157100
     25 H041        1.2330   -1.0190    0.9320 ha        1 1LC      0.151000
     26 H062        4.3500    0.6660    1.3160 hc        1 1LC      0.071700
     27 H061        3.5770   -0.9280    0.9290 hc        1 1LC      0.071700
     28 H071        4.3490    1.2170   -1.1870 hc        1 1LC      0.117700
     29 H112        7.1550   -1.7730   -0.4450 hn        1 1LC      0.319500
     30 H111        5.5380   -2.2390   -0.7110 hn        1 1LC      0.319500
     31 H131        3.1930    2.7810    0.2260 ha        1 1LC      0.139000
     32 H141        0.9750    3.9170    0.2290 ha        1 1LC      0.139000
     33 H151       -1.1140    2.5910    0.5590 ha        1 1LC      0.142000
     34 H171       -1.5770    1.3980   -1.5910 h4        1 1LC      0.180000
     35 H181       -3.9170    1.2560   -2.5640 hn        1 1LC      0.314700
     36 H211       -7.4640   -1.2180   -0.3150 h4        1 1LC      0.023100
     37 H1         -6.2800   -2.1150    1.7030 ha        1 1LC      0.145000
     38 H231       -3.8230   -1.5760    2.0630 ha        1 1LC      0.165000
@<TRIPOS>BOND
     1    1    2 2   
     2    2    3 1   
     3    2   16 1   
     4    3    4 ar  
     5    3   15 ar  
     6    4    5 ar  
     7    4   25 1   
     8    5    6 1   
     9    5   13 ar  
    10    6    7 1   
    11    6   26 1   
    12    6   27 1   
    13    7    8 1   
    14    7   10 1   
    15    7   28 1   
    16    8    9 3   
    17   10   11 1   
    18   10   12 2   
    19   11   29 1   
    20   11   30 1   
    21   13   14 ar  
    22   13   31 1   
    23   14   15 ar  
    24   14   32 1   
    25   15   33 1   
    26   16   17 2   
    27   16   24 1   
    28   17   18 1   
    29   17   34 1   
    30   18   19 1   
    31   18   35 1   
    32   19   20 ar  
    33   19   24 ar  
    34   20   21 ar  
    35   21   22 ar  
    36   21   36 1   
    37   22   23 ar  
    38   22   37 1   
    39   23   24 ar  
    40   23   38 1   
@<TRIPOS>SUBSTRUCTURE
     1 1LC         1 TEMP              0 ****  ****    0 ROOT
