@<TRIPOS>MOLECULE
1LD
   14    14     1     0     0
SMALL
bcc


@<TRIPOS>ATOM
      1 N1          0.0050    0.0020   -0.0700 n         1 1LD     -0.421100
      2 C6          1.3590   -0.0010   -0.0480 cc        1 1LD      0.107600
      3 C2         -0.7660   -0.0010    1.1450 c         1 1LD      0.820900
      4 O2         -1.9970    0.0020    1.0740 o         1 1LD     -0.478500
      5 N3         -0.0700   -0.0080    2.3920 nc        1 1LD     -0.593100
      6 C4          1.2450   -0.0100    2.3740 cd        1 1LD      0.589500
      7 N4          1.9630   -0.0170    3.6740 n4        1 1LD     -0.798600
      8 C5          2.0510   -0.0070    1.1670 cd        1 1LD     -0.163100
      9 F           3.3990   -0.0100    1.2280 f         1 1LD     -0.129500
     10 H1         -0.5000    0.0070   -0.9380 hn        1 1LD      0.386500
     11 H2          1.9100    0.0020   -1.0140 h4        1 1LD      0.219000
     12 H3          2.5600   -0.8550    3.7100 hn        1 1LD      0.486467
     13 H4          2.5550    0.8230    3.7210 hn        1 1LD      0.486467
     14 H43         1.3070   -0.0240    4.4700 hn        1 1LD      0.486467
@<TRIPOS>BOND
     1    1    2 1   
     2    1    3 1   
     3    1   10 1   
     4    2    8 2   
     5    2   11 1   
     6    3    4 2   
     7    3    5 1   
     8    5    6 2   
     9    6    7 1   
    10    6    8 1   
    11    7   12 1   
    12    7   13 1   
    13    7   14 1   
    14    8    9 1   
@<TRIPOS>SUBSTRUCTURE
     1 1LD         1 TEMP              0 ****  ****    0 ROOT
