@<TRIPOS>MOLECULE
1LE
   62    64     1     0     0
SMALL
bcc


@<TRIPOS>ATOM
      1 O01        -0.2360   -0.1300   -1.4890 o         1 1LE     -0.389100
      2 C02         0.7610    0.3130   -0.9440 c         1 1LE      0.550100
      3 N03         1.0070   -0.1470    0.4740 ny        1 1LE     -0.689800
      4 C04         1.5840   -1.5670    0.5550 c3        1 1LE      0.156200
      5 C05         0.5290   -2.5880    0.1410 c3        1 1LE     -0.129100
      6 C06         2.8170   -1.6900   -0.3320 c3        1 1LE     -0.129100
      7 C07         1.9920   -1.8310    2.0340 c3        1 1LE      0.119400
      8 O08         2.5590   -3.1260    2.0400 oh        1 1LE     -0.580800
      9 C09         1.7810    1.2780   -1.5270 c3        1 1LE     -0.052600
     10 C10         2.0130    2.3700   -0.6010 c1        1 1LE      0.142700
     11 N11         2.2220    3.2690    0.1070 n1        1 1LE     -0.260800
     12 C12         1.3250    1.7990   -2.9020 c3        1 1LE     -0.020100
     13 C13         2.0610    1.1460   -4.0180 ca        1 1LE     -0.153300
     14 C14         2.6960    1.9610   -4.9850 ca        1 1LE     -0.086000
     15 C15         3.3410    1.4270   -6.0870 ca        1 1LE     -0.120000
     16 C16         3.3610    0.0290   -6.2120 ca        1 1LE     -0.037200
     17 N17         3.8900   -0.8380   -7.1740 na        1 1LE     -0.004100
     18 N18         3.6710   -2.1190   -6.8730 nc        1 1LE     -0.472100
     19 C19         2.9840   -2.1760   -5.7010 cd        1 1LE      0.388500
     20 C20         2.5780   -3.3950   -5.0200 ca        1 1LE     -0.055900
     21 C21         2.6830   -3.4530   -3.6280 ca        1 1LE     -0.169000
     22 C22         2.2430   -4.5900   -2.9410 ca        1 1LE      0.112100
     23 O23         2.2530   -4.5200   -1.5540 os        1 1LE     -0.347900
     24 C24         3.0920   -5.4840   -0.9110 c3        1 1LE      0.109700
     25 C25         1.7320   -5.7000   -3.6370 ca        1 1LE      0.066100
     26 O26         1.4260   -6.8380   -2.9180 os        1 1LE     -0.330900
     27 C27         0.0810   -7.3020   -3.0630 c3        1 1LE      0.116700
     28 C28         1.6770   -5.6430   -5.0520 ca        1 1LE      0.112100
     29 O29         1.1780   -6.7670   -5.6720 os        1 1LE     -0.347900
     30 C30         1.2220   -6.7810   -7.0980 c3        1 1LE      0.109700
     31 C31         2.0860   -4.4920   -5.7360 ca        1 1LE     -0.169000
     32 C32         2.7380   -0.8170   -5.2160 ca        1 1LE     -0.198900
     33 C33         2.0760   -0.2410   -4.1380 ca        1 1LE     -0.066000
     34 H031        1.6560    0.4950    0.9390 hn        1 1LE      0.457300
     35 H052        0.2070   -2.4410   -0.9180 hc        1 1LE      0.086533
     36 H053        1.0000   -3.6070    0.2170 hc        1 1LE      0.086533
     37 H051       -0.3610   -2.5540    0.8130 hc        1 1LE      0.086533
     38 H063        3.1960   -2.7460   -0.2370 hc        1 1LE      0.086533
     39 H061        2.5590   -1.5240   -1.4070 hc        1 1LE      0.086533
     40 H062        3.6270   -0.9910   -0.0170 hc        1 1LE      0.086533
     41 H071        1.0900   -1.7920    2.7020 h1        1 1LE      0.044700
     42 H072        2.7560   -1.0790    2.3750 h1        1 1LE      0.044700
     43 H081        2.7190   -3.3590    2.9660 ho        1 1LE      0.439000
     44 H091        2.7520    0.7010   -1.6610 hc        1 1LE      0.143700
     45 H121        0.2210    1.6220   -3.0300 hc        1 1LE      0.090200
     46 H122        1.4850    2.9120   -2.9360 hc        1 1LE      0.090200
     47 H141        2.6650    3.0570   -4.8630 ha        1 1LE      0.144000
     48 H151        3.8160    2.0740   -6.8380 ha        1 1LE      0.157000
     49 H171        4.3980   -0.5940   -7.9940 hn        1 1LE      0.341700
     50 H211        3.1170   -2.6140   -3.0670 ha        1 1LE      0.146500
     51 H242        2.9920   -5.2270    0.1740 h1        1 1LE      0.053867
     52 H243        4.1480   -5.3640   -1.2540 h1        1 1LE      0.053867
     53 H241        2.7280   -6.5190   -1.1170 h1        1 1LE      0.053867
     54 H272       -0.1070   -7.6430   -4.1090 h1        1 1LE      0.050367
     55 H273       -0.6400   -6.5020   -2.7730 h1        1 1LE      0.050367
     56 H271        0.0310   -8.1640   -2.3500 h1        1 1LE      0.050367
     57 H302        2.2690   -6.6450   -7.4630 h1        1 1LE      0.053867
     58 H303        0.8420   -7.8030   -7.3530 h1        1 1LE      0.053867
     59 H301        0.5500   -5.9930   -7.5170 h1        1 1LE      0.053867
     60 H311        2.0330   -4.4450   -6.8340 ha        1 1LE      0.146500
     61 H331        1.5550   -0.8790   -3.4070 ha        1 1LE      0.127000
     62 H032        0.1140   -0.1490    0.9810 hn        1 1LE      0.457300
@<TRIPOS>BOND
     1    1    2 2   
     2    2    3 1   
     3    2    9 1   
     4    3    4 1   
     5    3   34 1   
     6    3   62 1   
     7    4    5 1   
     8    4    6 1   
     9    4    7 1   
    10    5   35 1   
    11    5   36 1   
    12    5   37 1   
    13    6   38 1   
    14    6   39 1   
    15    6   40 1   
    16    7    8 1   
    17    7   41 1   
    18    7   42 1   
    19    8   43 1   
    20    9   10 1   
    21    9   12 1   
    22    9   44 1   
    23   10   11 3   
    24   12   13 1   
    25   12   45 1   
    26   12   46 1   
    27   13   14 ar  
    28   13   33 ar  
    29   14   15 ar  
    30   14   47 1   
    31   15   16 ar  
    32   15   48 1   
    33   16   17 1   
    34   16   32 ar  
    35   17   18 1   
    36   17   49 1   
    37   18   19 2   
    38   19   20 1   
    39   19   32 1   
    40   20   21 ar  
    41   20   31 ar  
    42   21   22 ar  
    43   21   50 1   
    44   22   23 1   
    45   22   25 ar  
    46   23   24 1   
    47   24   51 1   
    48   24   52 1   
    49   24   53 1   
    50   25   26 1   
    51   25   28 ar  
    52   26   27 1   
    53   27   54 1   
    54   27   55 1   
    55   27   56 1   
    56   28   29 1   
    57   28   31 ar  
    58   29   30 1   
    59   30   57 1   
    60   30   58 1   
    61   30   59 1   
    62   31   60 1   
    63   32   33 ar  
    64   33   61 1   
@<TRIPOS>SUBSTRUCTURE
     1 1LE         1 TEMP              0 ****  ****    0 ROOT
