@<TRIPOS>MOLECULE
1LE
   61    63     1     0     0
SMALL
bcc


@<TRIPOS>ATOM
      1 O01         3.2480   -1.7760   -0.3120 o         1 1LE     -0.596100
      2 C02         3.7340   -0.6330   -0.4150 c         1 1LE      0.669100
      3 N03         5.0300   -0.3210   -0.0860 n         1 1LE     -0.561900
      4 C04         6.0290   -1.3200    0.2970 c3        1 1LE      0.126400
      5 C05         5.6270   -2.0610    1.5800 c3        1 1LE     -0.107100
      6 C06         6.2610   -2.3590   -0.8100 c3        1 1LE     -0.107100
      7 C07         7.3800   -0.5930    0.5650 c3        1 1LE      0.119400
      8 O08         8.3200   -1.5870    0.9340 oh        1 1LE     -0.591800
      9 C09         2.8260    0.5210   -0.8740 c3        1 1LE     -0.082600
     10 C10         3.4900    1.3730   -1.8390 c1        1 1LE      0.207700
     11 N11         4.0120    2.0570   -2.6220 n1        1 1LE     -0.358800
     12 C12         2.3510    1.3070    0.3510 c3        1 1LE     -0.021100
     13 C13         1.1010    2.0650    0.0700 ca        1 1LE     -0.127300
     14 C14         1.1650    3.4540   -0.1740 ca        1 1LE     -0.088000
     15 C15         0.0300    4.2090   -0.4260 ca        1 1LE     -0.136000
     16 C16        -1.2010    3.5380   -0.4380 ca        1 1LE     -0.051200
     17 N17        -2.5250    3.9820   -0.5980 na        1 1LE     -0.012100
     18 N18        -3.3950    2.9670   -0.5510 nc        1 1LE     -0.500100
     19 C19        -2.7150    1.8220   -0.2810 cd        1 1LE      0.397500
     20 C20        -3.3330    0.5160   -0.1040 ca        1 1LE     -0.037900
     21 C21        -2.6740   -0.6270   -0.5720 ca        1 1LE     -0.207500
     22 C22        -3.2560   -1.8870   -0.3930 ca        1 1LE      0.134600
     23 O23        -2.6750   -3.0730   -0.7890 os        1 1LE     -0.312400
     24 C24        -1.4590   -2.9640   -1.5220 c3        1 1LE      0.110200
     25 C25        -4.5170   -2.0130    0.2300 ca        1 1LE      0.048100
     26 O26        -5.1340   -3.2490    0.2610 os        1 1LE     -0.309900
     27 C27        -5.1900   -3.8310    1.5650 c3        1 1LE      0.115700
     28 C28        -5.1600   -0.8500    0.7030 ca        1 1LE      0.134600
     29 O29        -6.3630   -1.0610    1.3470 os        1 1LE     -0.312400
     30 C30        -7.1210    0.1040    1.6570 c3        1 1LE      0.110200
     31 C31        -4.5730    0.4100    0.5350 ca        1 1LE     -0.207500
     32 C32        -1.2820    2.1160   -0.1950 ca        1 1LE     -0.197900
     33 C33        -0.1220    1.3950    0.0690 ca        1 1LE     -0.055000
     34 H031        5.3680    0.5870   -0.3030 hn        1 1LE      0.311500
     35 H052        4.6860   -2.6390    1.4150 hc        1 1LE      0.054033
     36 H053        6.4490   -2.7650    1.8540 hc        1 1LE      0.054033
     37 H051        5.4730   -1.3450    2.4210 hc        1 1LE      0.054033
     38 H063        6.5890   -1.8680   -1.7560 hc        1 1LE      0.054033
     39 H061        7.0610   -3.0630   -0.4750 hc        1 1LE      0.054033
     40 H062        5.3220   -2.9340   -1.0020 hc        1 1LE      0.054033
     41 H071        7.7320   -0.0650   -0.3630 h1        1 1LE      0.027200
     42 H072        7.2650    0.1500    1.3990 h1        1 1LE      0.027200
     43 H081        9.1510   -1.1250    1.1010 ho        1 1LE      0.406000
     44 H091        1.9300    0.0440   -1.3740 hc        1 1LE      0.118700
     45 H121        2.1610    0.5730    1.1820 hc        1 1LE      0.067200
     46 H122        3.1630    2.0000    0.6930 hc        1 1LE      0.067200
     47 H141        2.1480    3.9520   -0.1640 ha        1 1LE      0.137000
     48 H151        0.0930    5.2900   -0.6080 ha        1 1LE      0.143000
     49 H171       -2.8040    4.8470   -0.9990 hn        1 1LE      0.322700
     50 H211       -1.7080   -0.5230   -1.0860 ha        1 1LE      0.149000
     51 H242       -0.6580   -2.5090   -0.8900 h1        1 1LE      0.047033
     52 H243       -1.2120   -4.0290   -1.7660 h1        1 1LE      0.047033
     53 H241       -1.6100   -2.3700   -2.4550 h1        1 1LE      0.047033
     54 H272       -5.7640   -3.1720    2.2600 h1        1 1LE      0.041700
     55 H273       -5.7270   -4.7980    1.3950 h1        1 1LE      0.041700
     56 H271       -4.1600   -4.0120    1.9530 h1        1 1LE      0.041700
     57 H302       -8.0770   -0.3120    2.0650 h1        1 1LE      0.047033
     58 H303       -6.5960    0.7160    2.4310 h1        1 1LE      0.047033
     59 H301       -7.3130    0.7120    0.7400 h1        1 1LE      0.047033
     60 H311       -5.0800    1.3150    0.8980 ha        1 1LE      0.149000
     61 H331       -0.1720    0.3160    0.2820 ha        1 1LE      0.148000
@<TRIPOS>BOND
     1    1    2 2   
     2    2    3 1   
     3    2    9 1   
     4    3    4 1   
     5    3   34 1   
     6    4    5 1   
     7    4    6 1   
     8    4    7 1   
     9    5   35 1   
    10    5   36 1   
    11    5   37 1   
    12    6   38 1   
    13    6   39 1   
    14    6   40 1   
    15    7    8 1   
    16    7   41 1   
    17    7   42 1   
    18    8   43 1   
    19    9   10 1   
    20    9   12 1   
    21    9   44 1   
    22   10   11 3   
    23   12   13 1   
    24   12   45 1   
    25   12   46 1   
    26   13   14 ar  
    27   13   33 ar  
    28   14   15 ar  
    29   14   47 1   
    30   15   16 ar  
    31   15   48 1   
    32   16   17 1   
    33   16   32 ar  
    34   17   18 1   
    35   17   49 1   
    36   18   19 2   
    37   19   20 1   
    38   19   32 1   
    39   20   21 ar  
    40   20   31 ar  
    41   21   22 ar  
    42   21   50 1   
    43   22   23 1   
    44   22   25 ar  
    45   23   24 1   
    46   24   51 1   
    47   24   52 1   
    48   24   53 1   
    49   25   26 1   
    50   25   28 ar  
    51   26   27 1   
    52   27   54 1   
    53   27   55 1   
    54   27   56 1   
    55   28   29 1   
    56   28   31 ar  
    57   29   30 1   
    58   30   57 1   
    59   30   58 1   
    60   30   59 1   
    61   31   60 1   
    62   32   33 ar  
    63   33   61 1   
@<TRIPOS>SUBSTRUCTURE
     1 1LE         1 TEMP              0 ****  ****    0 ROOT
