@<TRIPOS>MOLECULE
1LE
   62    64     1     0     0
SMALL
bcc


@<TRIPOS>ATOM
      1 O01        -0.2300   -0.1170   -1.5020 o         1 1LE     -0.389100
      2 C02         0.7690    0.3280   -0.9620 c         1 1LE      0.550100
      3 N03         1.0170   -0.1220    0.4590 n4        1 1LE     -0.689800
      4 C04         1.5910   -1.5430    0.5490 c3        1 1LE      0.156200
      5 C05         0.5330   -2.5660    0.1440 c3        1 1LE     -0.129100
      6 C06         2.8220   -1.6740   -0.3390 c3        1 1LE     -0.129100
      7 C07         2.0010   -1.7970    2.0300 c3        1 1LE      0.119400
      8 O08         2.5650   -3.0930    2.0440 oh        1 1LE     -0.580800
      9 C09         1.7900    1.2870   -1.5540 c3        1 1LE     -0.052600
     10 C10         2.0250    2.3850   -0.6360 c1        1 1LE      0.142700
     11 N11         2.2380    3.2880    0.0650 n1        1 1LE     -0.260800
     12 C12         1.3320    1.7980   -2.9310 c3        1 1LE     -0.020100
     13 C13         2.0640    1.1360   -4.0450 ca        1 1LE     -0.153300
     14 C14         2.6980    1.9430   -5.0180 ca        1 1LE     -0.086000
     15 C15         3.3400    1.4000   -6.1180 ca        1 1LE     -0.120000
     16 C16         3.3580    0.0010   -6.2330 ca        1 1LE     -0.037200
     17 N17         3.8840   -0.8740   -7.1900 na        1 1LE     -0.004100
     18 N18         3.6630   -2.1530   -6.8790 nc        1 1LE     -0.472100
     19 C19         2.9780   -2.2000   -5.7050 cd        1 1LE      0.388500
     20 C20         2.5710   -3.4130   -5.0150 ca        1 1LE     -0.055900
     21 C21         2.6790   -3.4610   -3.6220 ca        1 1LE     -0.169000
     22 C22         2.2390   -4.5920   -2.9260 ca        1 1LE      0.112100
     23 O23         2.2510   -4.5120   -1.5400 os        1 1LE     -0.347900
     24 C24         3.0910   -5.4730   -0.8920 c3        1 1LE      0.109700
     25 C25         1.7240   -5.7060   -3.6130 ca        1 1LE      0.066100
     26 O26         1.4180   -6.8390   -2.8850 os        1 1LE     -0.330900
     27 C27         0.0730   -7.3020   -3.0240 c3        1 1LE      0.116700
     28 C28         1.6670   -5.6600   -5.0280 ca        1 1LE      0.112100
     29 O29         1.1650   -6.7880   -5.6390 os        1 1LE     -0.347900
     30 C30         1.2060   -6.8120   -7.0650 c3        1 1LE      0.109700
     31 C31         2.0760   -4.5150   -5.7210 ca        1 1LE     -0.169000
     32 C32         2.7360   -0.8360   -5.2300 ca        1 1LE     -0.198900
     33 C33         2.0770   -0.2520   -4.1540 ca        1 1LE     -0.066000
     34 H031        1.6670    0.5210    0.9170 hn        1 1LE      0.457300
     35 H052       -0.3560   -2.5240    0.8170 hc        1 1LE      0.086533
     36 H053        1.0020   -3.5850    0.2260 hc        1 1LE      0.086533
     37 H051        0.2100   -2.4250   -0.9160 hc        1 1LE      0.086533
     38 H063        2.5630   -1.5160   -1.4150 hc        1 1LE      0.086533
     39 H061        3.2000   -2.7300   -0.2360 hc        1 1LE      0.086533
     40 H062        3.6340   -0.9740   -0.0300 hc        1 1LE      0.086533
     41 H071        2.7660   -1.0450    2.3640 h1        1 1LE      0.044700
     42 H072        1.1000   -1.7520    2.6980 h1        1 1LE      0.044700
     43 H081        2.7260   -3.3200    2.9710 ho        1 1LE      0.439000
     44 H091        2.7590    0.7060   -1.6860 hc        1 1LE      0.143700
     45 H121        1.4940    2.9100   -2.9740 hc        1 1LE      0.090200
     46 H122        0.2270    1.6230   -3.0560 hc        1 1LE      0.090200
     47 H141        2.6700    3.0390   -4.9050 ha        1 1LE      0.144000
     48 H151        3.8150    2.0410   -6.8740 ha        1 1LE      0.157000
     49 H171        4.3900   -0.6360   -8.0120 hn        1 1LE      0.341700
     50 H211        3.1150   -2.6190   -3.0680 ha        1 1LE      0.146500
     51 H242        2.9930   -5.2070    0.1920 h1        1 1LE      0.053867
     52 H243        4.1460   -5.3570   -1.2370 h1        1 1LE      0.053867
     53 H241        2.7250   -6.5090   -1.0890 h1        1 1LE      0.053867
     54 H272        0.0220   -8.1580   -2.3040 h1        1 1LE      0.050367
     55 H273       -0.1180   -7.6510   -4.0670 h1        1 1LE      0.050367
     56 H271       -0.6480   -6.4980   -2.7400 h1        1 1LE      0.050367
     57 H302        0.5340   -6.0260   -7.4880 h1        1 1LE      0.053867
     58 H303        0.8230   -7.8350   -7.3120 h1        1 1LE      0.053867
     59 H301        2.2520   -6.6800   -7.4330 h1        1 1LE      0.053867
     60 H311        2.0210   -4.4750   -6.8200 ha        1 1LE      0.146500
     61 H331        1.5560   -0.8830   -3.4180 ha        1 1LE      0.127000
     62 H032        0.1240   -0.1200    0.9670 hn        1 1LE      0.457300
@<TRIPOS>BOND
     1    1    2 2   
     2    2    3 1   
     3    2    9 1   
     4    3    4 1   
     5    3   34 1   
     6    3   62 1   
     7    4    5 1   
     8    4    6 1   
     9    4    7 1   
    10    5   35 1   
    11    5   36 1   
    12    5   37 1   
    13    6   38 1   
    14    6   39 1   
    15    6   40 1   
    16    7    8 1   
    17    7   41 1   
    18    7   42 1   
    19    8   43 1   
    20    9   10 1   
    21    9   12 1   
    22    9   44 1   
    23   10   11 3   
    24   12   13 1   
    25   12   45 1   
    26   12   46 1   
    27   13   14 ar  
    28   13   33 ar  
    29   14   15 ar  
    30   14   47 1   
    31   15   16 ar  
    32   15   48 1   
    33   16   17 1   
    34   16   32 ar  
    35   17   18 1   
    36   17   49 1   
    37   18   19 2   
    38   19   20 1   
    39   19   32 1   
    40   20   21 ar  
    41   20   31 ar  
    42   21   22 ar  
    43   21   50 1   
    44   22   23 1   
    45   22   25 ar  
    46   23   24 1   
    47   24   51 1   
    48   24   52 1   
    49   24   53 1   
    50   25   26 1   
    51   25   28 ar  
    52   26   27 1   
    53   27   54 1   
    54   27   55 1   
    55   27   56 1   
    56   28   29 1   
    57   28   31 ar  
    58   29   30 1   
    59   30   57 1   
    60   30   58 1   
    61   30   59 1   
    62   31   60 1   
    63   32   33 ar  
    64   33   61 1   
@<TRIPOS>SUBSTRUCTURE
     1 1LE         1 TEMP              0 ****  ****    0 ROOT
