@<TRIPOS>MOLECULE
1LE
   61    54     1     0     0
SMALL
bcc


@<TRIPOS>ATOM
      1 O01        -1.4850    2.3160    3.2210 o         1 1LE     -0.356000
      2 C02        -1.7040    3.0640    2.2750 c1        1 1LE      0.313000
      3 N03        -2.9700    3.7400    2.1720 n2        1 1LE     -0.371000
      4 C04        -4.1290    3.2260    2.8830 c3        1 1LE      0.089000
      5 C05        -4.3920    1.7590    2.4640 c3        1 1LE     -0.225000
      6 C06        -3.8650    3.2810    4.3950 c3        1 1LE     -0.225000
      7 C07        -5.3460    4.0840    2.5470 c3        1 1LE     -0.031000
      8 O08        -6.4990    3.5620    3.1950 oh        1 1LE     -0.319000
      9 C09        -0.6130    3.3150    1.2290 c3        1 1LE     -0.044000
     10 C10        -1.2490    3.5650   -0.1060 c1        1 1LE     -0.148000
     11 N11        -1.7150    3.7460   -1.0890 n1        1 1LE     -0.029000
     12 C12         0.2840    2.1020    1.1380 c3        1 1LE     -0.107000
     13 C13         1.0970    2.1790   -0.1120 c1        1 1LE     -0.117000
     14 C14         1.5090    3.3280   -0.7970 c1        1 1LE     -0.114500
     15 C15         2.2010    3.2090   -2.0000 c1        1 1LE     -0.114500
     16 C16         2.4910    1.9060   -2.5350 c1        1 1LE     -0.007000
     17 N17         3.1800    1.4970   -3.6480 n1        1 1LE     -0.185000
     18 N18         3.1960    0.1430   -3.6530 n2        1 1LE     -0.035000
     19 C19         2.5220   -0.2930   -2.5520 c1        1 1LE     -0.058000
     20 C20         2.5040   -1.8230   -2.4070 c1        1 1LE      0.026000
     21 C21         1.4150   -2.5510   -2.8680 c2        1 1LE     -0.151000
     22 C22         1.3990   -3.9380   -2.7380 c1        1 1LE      0.071000
     23 O23         0.3180   -4.6900   -3.2710 os        1 1LE     -0.219000
     24 C24        -0.7850   -4.8270   -2.3730 c3        1 1LE     -0.074000
     25 C25         2.4590   -4.5840   -2.1530 c1        1 1LE      0.035500
     26 O26         2.4740   -5.9490   -2.0870 os        1 1LE     -0.210000
     27 C27         2.0730   -6.4560   -0.8570 c3        1 1LE     -0.075500
     28 C28         3.5440   -3.8570   -1.6940 c1        1 1LE      0.035500
     29 O29         4.6520   -4.5370   -1.0700 os        1 1LE     -0.210000
     30 C30         4.7690   -4.2870    0.3160 c3        1 1LE     -0.075500
     31 C31         3.5610   -2.4690   -1.8240 c1        1 1LE     -0.179000
     32 C32         2.0880    0.7950   -1.8640 c1        1 1LE     -0.113000
     33 C33         1.3790    0.9170   -0.6330 c1        1 1LE     -0.049000
     34 H031       -3.0500    4.5040    1.6400 hn        1 1LE      0.226000
     35 H052       -5.3720    1.5900    2.4550 hc        1 1LE      0.093000
     36 H053       -4.0160    1.5950    1.5510 hc        1 1LE      0.093000
     37 H051       -3.9490    1.1410    3.1240 hc        1 1LE      0.093000
     38 H063       -3.3970    4.1380    4.6220 hc        1 1LE      0.093000
     39 H061       -4.7550    3.2330    4.9000 hc        1 1LE      0.093000
     40 H062       -3.2860    2.5030    4.6620 hc        1 1LE      0.093000
     41 H071       -5.4890    4.0830    1.5960 h1        1 1LE      0.066500
     42 H072       -5.1920    4.9830    2.8460 h1        1 1LE      0.066500
     43 H081       -7.2180    4.0400    2.9540 ho        1 1LE      0.204000
     44 H091       -0.0930    4.0800    1.4860 hc        1 1LE      0.158000
     45 H121        0.8930    2.0740    1.9330 hc        1 1LE      0.107000
     46 H122       -0.2660    1.2930    1.1200 hc        1 1LE      0.107000
     47 H141        1.4090    4.1720   -0.3980 ha        1 1LE      0.141500
     48 H151        2.4940    4.0240   -2.4890 ha        1 1LE      0.141500
     49 H171        3.5610    2.0400   -4.2740 DU        1 1LE      0.273000
     50 H211        0.7010   -2.1050   -3.3350 ha        1 1LE      0.157000
     51 H242       -1.0850   -3.9200   -2.0710 h1        1 1LE      0.085333
     52 H243       -1.5350   -5.2860   -2.8350 h1        1 1LE      0.085333
     53 H241       -0.5050   -5.3630   -1.5850 h1        1 1LE      0.085333
     54 H272        2.7980   -6.9630   -0.4650 h1        1 1LE      0.085667
     55 H273        1.2750   -7.0560   -0.9860 h1        1 1LE      0.085667
     56 H271        1.8270   -5.7040   -0.2510 h1        1 1LE      0.085667
     57 H302        5.6240   -4.6330    0.6370 h1        1 1LE      0.085667
     58 H303        4.0390   -4.7310    0.7890 h1        1 1LE      0.085667
     59 H301        4.7260   -3.3680    0.4710 h1        1 1LE      0.085667
     60 H311        4.3390   -1.9490   -1.4960 ha        1 1LE      0.154000
     61 H331        1.1610    0.1090   -0.1100 ha        1 1LE      0.146000
@<TRIPOS>BOND
     1    1    2 1   
     2    2    9 1   
     3    3    4 1   
     4    3   34 1   
     5    4    5 1   
     6    4    6 1   
     7    4    7 1   
     8    5   35 1   
     9    5   36 1   
    10    5   37 1   
    11    6   38 1   
    12    6   39 1   
    13    6   40 1   
    14    7    8 1   
    15    7   41 1   
    16    7   42 1   
    17    8   43 1   
    18    9   10 1   
    19    9   12 1   
    20    9   44 1   
    21   10   11 1   
    22   12   13 1   
    23   12   45 1   
    24   12   46 1   
    25   13   33 1   
    26   14   15 1   
    27   14   47 1   
    28   15   48 1   
    29   16   32 1   
    30   17   18 1   
    31   18   19 1   
    32   19   32 1   
    33   20   21 1   
    34   20   31 1   
    35   21   22 1   
    36   21   50 1   
    37   22   23 1   
    38   23   24 1   
    39   24   51 1   
    40   24   52 1   
    41   24   53 1   
    42   25   26 1   
    43   25   28 1   
    44   26   27 1   
    45   27   54 1   
    46   27   55 1   
    47   27   56 1   
    48   28   29 1   
    49   29   30 1   
    50   30   57 1   
    51   30   58 1   
    52   30   59 1   
    53   31   60 1   
    54   33   61 1   
@<TRIPOS>SUBSTRUCTURE
     1 1LE         1 TEMP              0 ****  ****    0 ROOT
