@<TRIPOS>MOLECULE
1LE
   62    64     1     0     0
SMALL
bcc


@<TRIPOS>ATOM
      1 O01        -0.2530   -0.1140   -1.5590 o         1 1LE     -0.389100
      2 C02         0.7340    0.3310   -0.9960 c         1 1LE      0.550100
      3 N03         0.9480   -0.1180    0.4310 n4        1 1LE     -0.689800
      4 C04         1.5180   -1.5390    0.5360 c3        1 1LE      0.156200
      5 C05         0.4680   -2.5610    0.1080 c3        1 1LE     -0.129100
      6 C06         2.7690   -1.6730   -0.3230 c3        1 1LE     -0.129100
      7 C07         1.8930   -1.7920    2.0260 c3        1 1LE      0.119400
      8 O08         2.4550   -3.0880    2.0550 oh        1 1LE     -0.580800
      9 C09         1.7690    1.2880   -1.5650 c3        1 1LE     -0.052600
     10 C10         1.9840    2.3870   -0.6440 c1        1 1LE      0.142700
     11 N11         2.1810    3.2910    0.0600 n1        1 1LE     -0.260800
     12 C12         1.3450    1.7980   -2.9540 c3        1 1LE     -0.020100
     13 C13         2.1030    1.1330   -4.0490 ca        1 1LE     -0.153300
     14 C14         2.7610    1.9380   -5.0080 ca        1 1LE     -0.086000
     15 C15         3.4280    1.3920   -6.0910 ca        1 1LE     -0.120000
     16 C16         3.4460   -0.0070   -6.2040 ca        1 1LE     -0.037200
     17 N17         3.9930   -0.8830   -7.1470 na        1 1LE     -0.004100
     18 N18         3.7630   -2.1620   -6.8400 nc        1 1LE     -0.472100
     19 C19         3.0500   -2.2060   -5.6830 cd        1 1LE      0.388500
     20 C20         2.6260   -3.4180   -5.0010 ca        1 1LE     -0.055900
     21 C21         2.7000   -3.4640   -3.6060 ca        1 1LE     -0.169000
     22 C22         2.2420   -4.5940   -2.9190 ca        1 1LE      0.112100
     23 O23         2.2220   -4.5120   -1.5330 os        1 1LE     -0.347900
     24 C24         3.0440   -5.4730   -0.8640 c3        1 1LE      0.109700
     25 C25         1.7420   -5.7080   -3.6160 ca        1 1LE      0.066100
     26 O26         1.4170   -6.8390   -2.8950 os        1 1LE     -0.330900
     27 C27         0.0750   -7.3010   -3.0640 c3        1 1LE      0.116700
     28 C28         1.7180   -5.6640   -5.0330 ca        1 1LE      0.112100
     29 O29         1.2290   -6.7910   -5.6540 os        1 1LE     -0.347900
     30 C30         1.3040   -6.8170   -7.0780 c3        1 1LE      0.109700
     31 C31         2.1460   -4.5200   -5.7170 ca        1 1LE     -0.169000
     32 C32         2.7990   -0.8420   -5.2150 ca        1 1LE     -0.198900
     33 C33         2.1160   -0.2550   -4.1560 ca        1 1LE     -0.066000
     34 H031        0.0440   -0.1130    0.9180 hn        1 1LE      0.457300
     35 H052        0.9340   -3.5800    0.2030 hc        1 1LE      0.086533
     36 H053        0.1700   -2.4210   -0.9600 hc        1 1LE      0.086533
     37 H051       -0.4360   -2.5170    0.7610 hc        1 1LE      0.086533
     38 H063        2.5350   -1.5160   -1.4050 hc        1 1LE      0.086533
     39 H061        3.5740   -0.9740    0.0040 hc        1 1LE      0.086533
     40 H062        3.1420   -2.7300   -0.2110 hc        1 1LE      0.086533
     41 H071        0.9770   -1.7440    2.6740 h1        1 1LE      0.044700
     42 H072        2.6520   -1.0400    2.3770 h1        1 1LE      0.044700
     43 H081        2.5940   -3.3140    2.9860 ho        1 1LE      0.439000
     44 H091        2.7410    0.7060   -1.6730 hc        1 1LE      0.143700
     45 H121        0.2430    1.6230   -3.1050 hc        1 1LE      0.090200
     46 H122        1.5090    2.9100   -2.9940 hc        1 1LE      0.090200
     47 H141        2.7320    3.0340   -4.8960 ha        1 1LE      0.144000
     48 H151        3.9220    2.0310   -6.8370 ha        1 1LE      0.157000
     49 H171        4.5190   -0.6480   -7.9580 hn        1 1LE      0.341700
     50 H211        3.1250   -2.6220   -3.0430 ha        1 1LE      0.146500
     51 H242        2.9210   -5.2060    0.2170 h1        1 1LE      0.053867
     52 H243        4.1080   -5.3600   -1.1840 h1        1 1LE      0.053867
     53 H241        2.6810   -6.5090   -1.0680 h1        1 1LE      0.053867
     54 H272       -0.0920   -7.6490   -4.1120 h1        1 1LE      0.050367
     55 H273        0.0060   -8.1560   -2.3460 h1        1 1LE      0.050367
     56 H271       -0.6510   -6.4960   -2.7970 h1        1 1LE      0.050367
     57 H302        2.3590   -6.6880   -7.4210 h1        1 1LE      0.053867
     58 H303        0.9260   -7.8400   -7.3330 h1        1 1LE      0.053867
     59 H301        0.6440   -6.0310   -7.5180 h1        1 1LE      0.053867
     60 H311        2.1160   -4.4810   -6.8170 ha        1 1LE      0.146500
     61 H331        1.5770   -0.8850   -3.4310 ha        1 1LE      0.127000
     62 H032        1.5890    0.5260    0.9030 hn        1 1LE      0.457300
@<TRIPOS>BOND
     1    1    2 2   
     2    2    3 1   
     3    2    9 1   
     4    3    4 1   
     5    3   34 1   
     6    3   62 1   
     7    4    5 1   
     8    4    6 1   
     9    4    7 1   
    10    5   35 1   
    11    5   36 1   
    12    5   37 1   
    13    6   38 1   
    14    6   39 1   
    15    6   40 1   
    16    7    8 1   
    17    7   41 1   
    18    7   42 1   
    19    8   43 1   
    20    9   10 1   
    21    9   12 1   
    22    9   44 1   
    23   10   11 3   
    24   12   13 1   
    25   12   45 1   
    26   12   46 1   
    27   13   14 ar  
    28   13   33 ar  
    29   14   15 ar  
    30   14   47 1   
    31   15   16 ar  
    32   15   48 1   
    33   16   17 1   
    34   16   32 ar  
    35   17   18 1   
    36   17   49 1   
    37   18   19 2   
    38   19   20 1   
    39   19   32 1   
    40   20   21 ar  
    41   20   31 ar  
    42   21   22 ar  
    43   21   50 1   
    44   22   23 1   
    45   22   25 ar  
    46   23   24 1   
    47   24   51 1   
    48   24   52 1   
    49   24   53 1   
    50   25   26 1   
    51   25   28 ar  
    52   26   27 1   
    53   27   54 1   
    54   27   55 1   
    55   27   56 1   
    56   28   29 1   
    57   28   31 ar  
    58   29   30 1   
    59   30   57 1   
    60   30   58 1   
    61   30   59 1   
    62   31   60 1   
    63   32   33 ar  
    64   33   61 1   
@<TRIPOS>SUBSTRUCTURE
     1 1LE         1 TEMP              0 ****  ****    0 ROOT
