@<TRIPOS>MOLECULE
1LF
   53    52     1     0     0
SMALL
bcc


@<TRIPOS>ATOM
      1 N1          0.7980   -1.4870    0.3530 n4        1 1LF     -0.139000
      2 C10         2.0140   -2.3740   -2.3590 c2        1 1LF     -0.065000
      3 C13        -1.6180   -1.1920    0.9740 c2        1 1LF     -0.163000
      4 C15        -2.7930   -0.3410    3.0480 c1        1 1LF     -0.016000
      5 C17        -3.7830   -0.7740   -0.1070 c2        1 1LF     -0.515000
      6 C01         2.3910   -5.4510    3.2620 c3        1 1LF     -0.096000
      7 C02         3.0680   -4.3840    1.1490 c2        1 1LF      0.212000
      8 N02         4.2940   -5.0260    1.2380 n2        1 1LF     -0.248000
      9 C03         5.1620   -4.7880    0.2110 c2        1 1LF      0.136000
     10 C04         6.5080   -5.4700    0.2600 c3        1 1LF     -0.174000
     11 N03         4.9040   -3.9990   -0.8790 n2        1 1LF     -0.255000
     12 C05         3.6620   -3.3930   -0.9000 c2        1 1LF      0.218000
     13 N04         2.7060   -3.5520    0.0940 n2        1 1LF     -0.422000
     14 N05         3.3610   -2.4950   -1.9550 nh        1 1LF     -0.219000
     15 C06         4.3900   -2.2270   -2.9400 c3        1 1LF     -0.083000
     16 C07         2.9050    1.6210    0.4000 c2        1 1LF     -0.036000
     17 C08         2.2560    0.5230   -0.0120 c2        1 1LF     -0.274000
     18 C09         1.5000   -1.3120   -3.0010 c2        1 1LF     -0.278000
     19 C11         1.4900   -0.2880    0.9360 c2        1 1LF      0.301000
     20 O1          1.3700   -0.1040    2.1450 o         1 1LF     -0.225000
     21 C12        -0.3570   -1.9840    1.1500 c3        1 1LF     -0.094000
     22 C14        -1.8450   -0.1100    1.9800 c3        1 1LF     -0.235000
     23 C16        -4.6840   -0.7390   -1.0800 c1        1 1LF      0.361000
     24 C18        -2.5360   -1.4780    0.0230 c2        1 1LF     -0.016000
     25 C1         -2.3080   -2.6210   -0.9870 c3        1 1LF      0.442000
     26 F01        -2.3170   -3.8740   -0.4270 f         1 1LF     -0.155667
     27 F02        -3.2120   -2.6830   -2.0110 f         1 1LF     -0.155667
     28 F          -1.0870   -2.5520   -1.6250 f         1 1LF     -0.155667
     29 H1          1.5250   -2.2790    0.2880 hn        1 1LF      0.289500
     30 H2          0.4390   -1.3110   -3.2890 ha        1 1LF      0.140500
     31 H3          1.3550   -3.2320   -2.1040 h4        1 1LF      0.150000
     32 H4         -2.1690    0.8410    1.4560 hc        1 1LF      0.174000
     33 H5         -4.0740   -0.1330    0.7660 ha        1 1LF      0.217000
     34 H6          1.1930   -4.4030    1.9400 hn        1 1LF      0.208000
     35 H7          1.5560   -5.3480    4.0060 h1        1 1LF      0.103667
     36 H8          2.4290   -6.5110    2.8910 h1        1 1LF      0.103667
     37 H9          3.3640   -5.2130    3.7680 h1        1 1LF      0.103667
     38 H10         6.6800   -5.9570    1.2510 hc        1 1LF      0.122000
     39 H11         6.5480   -6.2500   -0.5420 hc        1 1LF      0.122000
     40 H12         7.3190   -4.7220    0.0740 hc        1 1LF      0.122000
     41 H13         5.3010   -1.8250   -2.4220 h1        1 1LF      0.104667
     42 H14         4.0080   -1.4600   -3.6630 h1        1 1LF      0.104667
     43 H15         4.6720   -3.1550   -3.5070 h1        1 1LF      0.104667
     44 H16         3.4900    2.2380   -0.3020 ha        1 1LF      0.157500
     45 H17         2.8930    1.9660    1.4470 ha        1 1LF      0.157500
     46 H18         2.2880    0.1870   -1.0640 ha        1 1LF      0.171000
     47 H19         2.0780   -0.4380   -3.3290 ha        1 1LF      0.140500
     48 H20        -0.5230   -3.0600    0.8410 hx        1 1LF      0.153000
     49 H21        -0.0530   -1.9760    2.2400 hx        1 1LF      0.153000
     50 H22        -0.8770    0.1590    2.5100 hc        1 1LF      0.174000
     51 H23        -3.2590   -1.3330    3.1300 ha        1 1LF      0.060000
     52 H121        0.5010   -1.2760   -0.6110 hn        1 1LF      0.289500
     53 N01         2.1510   -4.5070    2.2020 nh        1 1LF     -0.275000
@<TRIPOS>BOND
     1    1   19 1   
     2    1   21 1   
     3    1   29 1   
     4    1   52 1   
     5    2   14 1   
     6    2   18 1   
     7    2   31 1   
     8    3   21 1   
     9    3   22 1   
    10    3   24 1   
    11    4   22 1   
    12    4   51 1   
    13    5   23 1   
    14    5   24 1   
    15    5   33 1   
    16    6   35 1   
    17    6   36 1   
    18    6   37 1   
    19    6   53 1   
    20    7    8 1   
    21    7   13 1   
    22    7   53 1   
    23    8    9 1   
    24    9   10 1   
    25    9   11 1   
    26   10   38 1   
    27   10   39 1   
    28   10   40 1   
    29   11   12 1   
    30   12   13 1   
    31   12   14 1   
    32   14   15 1   
    33   15   41 1   
    34   15   42 1   
    35   15   43 1   
    36   16   17 1   
    37   16   44 1   
    38   16   45 1   
    39   17   19 1   
    40   17   46 1   
    41   18   30 1   
    42   18   47 1   
    43   19   20 1   
    44   21   48 1   
    45   21   49 1   
    46   22   32 1   
    47   22   50 1   
    48   24   25 1   
    49   25   26 1   
    50   25   27 1   
    51   25   28 1   
    52   34   53 1   
@<TRIPOS>SUBSTRUCTURE
     1 1LF         1 TEMP              0 ****  ****    0 ROOT
