@<TRIPOS>MOLECULE
1LF
   54    53     1     0     0
SMALL
bcc


@<TRIPOS>ATOM
      1 N1          1.6850   -0.1730    0.5070 n         1 1LF     -0.407000
      2 C10         2.6280   -3.3240   -0.6430 c2        1 1LF      0.054000
      3 C13        -3.7670    0.2220    0.7900 c2        1 1LF     -0.225000
      4 C15        -2.2480    0.6260    2.7910 c1        1 1LF     -0.041000
      5 C17        -5.2600    1.8040    1.9730 c2        1 1LF     -0.557000
      6 C01         6.4180   -8.7100   -0.0280 c3        1 1LF     -0.191000
      7 C02         5.5060   -6.6280    0.8970 c2        1 1LF      0.039000
      8 N02         6.4970   -5.8520    1.4280 n2        1 1LF     -0.203000
      9 C03         6.3230   -4.4960    1.2220 c2        1 1LF      0.131000
     10 C04         7.3770   -3.5760    1.7830 c3        1 1LF     -0.181000
     11 N03         5.2750   -3.9540    0.5380 n2        1 1LF     -0.205000
     12 C05         4.3460   -4.8360    0.0120 c2        1 1LF      0.172000
     13 N04         4.4050   -6.2180    0.2010 n2        1 1LF     -0.178000
     14 N05         3.3440   -4.3730   -0.8790 n2        1 1LF     -0.147000
     15 C06         3.9410   -1.0210   -1.8330 c3        1 1LF     -0.227000
     16 C07         2.5700   -0.5850   -2.2780 c3        1 1LF     -0.172000
     17 C08         1.3980   -1.3570   -1.6960 c3        1 1LF     -0.118000
     18 C09         1.6020   -2.8620   -1.6370 c3        1 1LF     -0.147000
     19 C11         0.8660   -0.8180   -0.3710 c2        1 1LF      0.315000
     20 O1         -0.3500   -0.9720   -0.0800 o         1 1LF     -0.469000
     21 C12        -3.5830   -0.8290   -0.0710 c2        1 1LF      0.078000
     22 C14        -2.5560    0.8640    1.4090 c3        1 1LF     -0.241000
     23 C16        -6.3910    2.4330    2.3820 c1        1 1LF      0.617000
     24 C18        -5.0480    0.7340    1.1050 c2        1 1LF      0.228000
     25 C1         -6.3180    0.0840    0.4600 c3        1 1LF      0.418000
     26 F01        -6.4570   -1.2390    0.7790 f         1 1LF     -0.119667
     27 F02        -7.4850    0.6830    0.8550 f         1 1LF     -0.119667
     28 F          -6.3130    0.1490   -0.9060 f         1 1LF     -0.119667
     29 H1          2.6170    0.0570    0.2620 hn        1 1LF      0.241000
     30 H2          0.6270   -3.3470   -1.3430 hc        1 1LF      0.138500
     31 H3          2.6690   -2.7340    0.3000 h4        1 1LF      0.134000
     32 H4         -2.5650    1.9750    1.2040 hc        1 1LF      0.193000
     33 H5         -4.3450    2.2710    2.4470 ha        1 1LF      0.258000
     34 H6          6.1330   -8.2830    1.9830 hn        1 1LF      0.275500
     35 H7          7.4450   -8.2520   -0.0650 hx        1 1LF      0.158667
     36 H8          6.5020   -9.8170    0.1510 hx        1 1LF      0.158667
     37 H9          5.8830   -8.5200   -0.9990 hx        1 1LF      0.158667
     38 H10         7.7340   -3.9440    2.7780 hc        1 1LF      0.134667
     39 H11         6.9800   -2.5370    1.8980 hc        1 1LF      0.134667
     40 H12         8.2450   -3.5560    1.0740 hc        1 1LF      0.134667
     41 H13         4.1970   -2.0180   -2.2680 hc        1 1LF      0.085333
     42 H14         4.0290   -1.0940   -0.7220 hc        1 1LF      0.085333
     43 H15         4.7030   -0.2850   -2.1920 hc        1 1LF      0.085333
     44 H16         2.5220   -0.6950   -3.3980 hc        1 1LF      0.105000
     45 H17         2.4310    0.5090   -2.0640 hc        1 1LF      0.105000
     46 H18         0.5310   -1.2000   -2.4140 hc        1 1LF      0.136000
     47 H19         1.8560   -3.2160   -2.6760 hc        1 1LF      0.138500
     48 H20        -2.5620   -1.1940   -0.3090 ha        1 1LF      0.182500
     49 H21        -4.4160   -1.3590   -0.5660 ha        1 1LF      0.182500
     50 H22        -1.6060    0.4850    0.8850 hc        1 1LF      0.193000
     51 H23        -2.7870   -0.1570    3.3410 ha        1 1LF      0.068000
     52 H121        1.3090    0.2160    1.3390 hn        1 1LF      0.241000
     53 H012        4.7070   -8.5320    1.1320 hn        1 1LF      0.275500
     54 N01         5.6470   -8.1100    1.0900 n4        1 1LF      0.018000
@<TRIPOS>BOND
     1    1   19 1   
     2    1   29 1   
     3    1   52 1   
     4    2   14 1   
     5    2   18 1   
     6    2   31 1   
     7    3   21 1   
     8    3   22 1   
     9    3   24 1   
    10    4   22 1   
    11    4   51 1   
    12    5   23 1   
    13    5   24 1   
    14    5   33 1   
    15    6   35 1   
    16    6   36 1   
    17    6   37 1   
    18    6   54 1   
    19    7    8 1   
    20    7   13 1   
    21    7   54 1   
    22    8    9 1   
    23    9   10 1   
    24    9   11 1   
    25   10   38 1   
    26   10   39 1   
    27   10   40 1   
    28   11   12 1   
    29   12   13 1   
    30   12   14 1   
    31   15   16 1   
    32   15   41 1   
    33   15   42 1   
    34   15   43 1   
    35   16   17 1   
    36   16   44 1   
    37   16   45 1   
    38   17   18 1   
    39   17   19 1   
    40   17   46 1   
    41   18   30 1   
    42   18   47 1   
    43   19   20 1   
    44   21   48 1   
    45   21   49 1   
    46   22   32 1   
    47   22   50 1   
    48   24   25 1   
    49   25   26 1   
    50   25   27 1   
    51   25   28 1   
    52   34   54 1   
    53   53   54 1   
@<TRIPOS>SUBSTRUCTURE
     1 1LF         1 TEMP              0 ****  ****    0 ROOT
