@<TRIPOS>MOLECULE
1LF
   52    54     1     0     0
SMALL
bcc


@<TRIPOS>ATOM
      1 N1          1.6990   -0.6260    0.2740 n         1 1LF     -0.558900
      2 C10        -1.1940   -0.3340   -1.3050 c3        1 1LF      0.199300
      3 C13         4.0900   -0.3100    0.8330 ca        1 1LF     -0.069300
      4 C15         6.1230   -1.6190    0.6380 ca        1 1LF     -0.102000
      5 C17         6.1040    0.6830   -0.0890 ca        1 1LF     -0.091000
      6 C01        -6.1090    3.5980   -0.5200 c3        1 1LF      0.200100
      7 C02        -4.7960    1.5180   -0.4160 ca        1 1LF      0.914900
      8 N02        -5.7480    0.9570    0.4280 nb        1 1LF     -0.810000
      9 C03        -5.4350   -0.2870    0.8970 ca        1 1LF      0.722300
     10 C04        -6.4440   -0.9420    1.8130 c3        1 1LF     -0.139400
     11 N03        -4.3040   -0.9910    0.6130 nb        1 1LF     -0.810000
     12 C05        -3.4020   -0.3600   -0.2440 ca        1 1LF      0.917900
     13 N04        -3.5930    0.9130   -0.7540 nb        1 1LF     -0.843000
     14 N05        -2.2620   -1.0850   -0.6650 nh        1 1LF     -0.730300
     15 C06        -1.8400   -2.2060    0.1610 c3        1 1LF      0.199300
     16 C07        -0.8060   -3.1040   -0.5130 c3        1 1LF     -0.083900
     17 C08         0.3850   -2.3240   -1.0470 c3        1 1LF     -0.130700
     18 C09        -0.1200   -1.2130   -1.9450 c3        1 1LF     -0.083900
     19 C11         1.3050   -1.9390    0.1070 c         1 1LF      0.658100
     20 O1          1.6950   -2.8190    0.9040 o         1 1LF     -0.623100
     21 C12         2.6510   -0.2460    1.2800 c3        1 1LF      0.121300
     22 C14         4.7820   -1.5160    1.0020 ca        1 1LF     -0.116000
     23 C16         6.7860   -0.5180    0.0970 ca        1 1LF     -0.130000
     24 C18         4.7570    0.7860    0.2720 ca        1 1LF     -0.160300
     25 C1          4.0410    2.1130    0.0410 c3        1 1LF      0.687200
     26 F01         3.7030    2.7900    1.1890 f         1 1LF     -0.240300
     27 F02         4.7510    3.0370   -0.6870 f         1 1LF     -0.240300
     28 F           2.8510    2.0100   -0.6440 f         1 1LF     -0.240300
     29 H1          1.5180    0.0390   -0.4420 hn        1 1LF      0.319500
     30 H2         -1.6380    0.2950   -2.1310 h1        1 1LF      0.060450
     31 H3         -0.7160    0.3690   -0.5620 h1        1 1LF      0.060450
     32 H4          6.6570   -2.5710    0.7790 ha        1 1LF      0.143000
     33 H5          6.6240    1.5520   -0.5240 ha        1 1LF      0.152000
     34 H6         -6.1550    4.5140   -1.1670 h1        1 1LF      0.046367
     35 H7         -7.0960    3.0640   -0.5740 h1        1 1LF      0.046367
     36 H8         -5.9340    3.9110    0.5450 h1        1 1LF      0.046367
     37 H9         -4.2860    3.2090   -1.4370 hn        1 1LF      0.435800
     38 H10        -7.3320   -1.2490    1.2080 hc        1 1LF      0.064033
     39 H11        -6.0140   -1.8450    2.3100 hc        1 1LF      0.064033
     40 H12        -6.7740   -0.2180    2.5980 hc        1 1LF      0.064033
     41 H13        -1.4110   -1.8270    1.1350 h1        1 1LF      0.060450
     42 H14        -2.7360   -2.8470    0.3990 h1        1 1LF      0.060450
     43 H15        -0.4580   -3.8580    0.2430 hc        1 1LF      0.063200
     44 H16        -1.2820   -3.6570   -1.3650 hc        1 1LF      0.063200
     45 H17         1.0130   -3.0220   -1.6770 hc        1 1LF      0.080700
     46 H18        -0.5530   -1.6950   -2.8640 hc        1 1LF      0.063200
     47 H19         0.7150   -0.5510   -2.2920 hc        1 1LF      0.063200
     48 H20         2.4090    0.8090    1.6030 h1        1 1LF      0.078700
     49 H21         2.5230   -0.9290    2.1710 h1        1 1LF      0.078700
     50 H22         4.2440   -2.3860    1.4170 ha        1 1LF      0.167000
     51 H23         7.8460   -0.5940   -0.1870 ha        1 1LF      0.143000
     52 N01        -5.0660    2.7520   -1.0160 nh        1 1LF     -0.838900
@<TRIPOS>BOND
     1    1   19 1   
     2    1   21 1   
     3    1   29 1   
     4    2   14 1   
     5    2   18 1   
     6    2   30 1   
     7    2   31 1   
     8    3   21 1   
     9    3   22 ar  
    10    3   24 ar  
    11    4   22 ar  
    12    4   23 ar  
    13    4   32 1   
    14    5   23 ar  
    15    5   24 ar  
    16    5   33 1   
    17    6   34 1   
    18    6   35 1   
    19    6   36 1   
    20    6   52 1   
    21    7    8 ar  
    22    7   13 ar  
    23    7   52 1   
    24    8    9 ar  
    25    9   10 1   
    26    9   11 ar  
    27   10   38 1   
    28   10   39 1   
    29   10   40 1   
    30   11   12 ar  
    31   12   13 ar  
    32   12   14 1   
    33   14   15 1   
    34   15   16 1   
    35   15   41 1   
    36   15   42 1   
    37   16   17 1   
    38   16   43 1   
    39   16   44 1   
    40   17   18 1   
    41   17   19 1   
    42   17   45 1   
    43   18   46 1   
    44   18   47 1   
    45   19   20 2   
    46   21   48 1   
    47   21   49 1   
    48   22   50 1   
    49   23   51 1   
    50   24   25 1   
    51   25   26 1   
    52   25   27 1   
    53   25   28 1   
    54   37   52 1   
@<TRIPOS>SUBSTRUCTURE
     1 1LF         1 TEMP              0 ****  ****    0 ROOT
