@<TRIPOS>MOLECULE
1LF
   53    52     1     0     0
SMALL
bcc


@<TRIPOS>ATOM
      1 N1          0.4370   -1.0060    0.6520 ny        1 1LF     -0.672800
      2 C10         3.1140   -1.4340   -1.3830 c2        1 1LF      0.496200
      3 C13        -2.0370   -0.9360    0.7990 c2        1 1LF     -0.203200
      4 C15        -2.9760    1.1130   -2.0290 c1        1 1LF     -0.167500
      5 C17        -3.9220   -2.4200    1.0040 cg        1 1LF     -0.253300
      6 C01         2.3640   -8.2300    0.6140 c3        1 1LF      0.205100
      7 C02         2.8130   -5.8750    0.0370 ca        1 1LF      0.921900
      8 N02         4.1540   -6.1950   -0.1920 nb        1 1LF     -0.768000
      9 C03         4.9490   -5.1610   -0.5700 ca        1 1LF      0.733300
     10 C04         6.4070   -5.4530   -0.8340 c3        1 1LF     -0.146400
     11 N03         4.5360   -3.8590   -0.7310 nb        1 1LF     -0.801000
     12 C05         3.2030   -3.6350   -0.4660 ca        1 1LF      0.878000
     13 N04         2.2870   -4.5820   -0.0860 nb        1 1LF     -0.803000
     14 N05         2.6940   -2.2930   -0.5240 ne        1 1LF     -0.728700
     15 C06         4.7210    0.4510    0.6110 c3        1 1LF     -0.110100
     16 C07         3.5280    1.3500    0.4260 c3        1 1LF     -0.079400
     17 C08         2.2760    0.6390   -0.0910 c3        1 1LF     -0.115700
     18 C09         2.5250   -0.0490   -1.4260 c3        1 1LF     -0.157700
     19 C11         1.7190   -0.2610    0.9870 c         1 1LF      0.573100
     20 O1          2.1410   -0.4450    2.1160 o         1 1LF     -0.401100
     21 C12        -0.7530   -0.3310    1.2520 c3        1 1LF      0.142000
     22 C14        -2.7590    0.0890   -2.6080 c1        1 1LF     -0.167500
     23 C16        -4.9920   -2.8270    0.6470 c1        1 1LF      0.021500
     24 C18        -2.6790   -1.9360    1.4290 ce        1 1LF      0.083100
     25 C1         -2.0860   -2.6180    2.6830 c3        1 1LF      0.665100
     26 F01        -2.0630   -1.8060    3.7890 f         1 1LF     -0.221633
     27 F02        -2.7120   -3.7620    3.0850 f         1 1LF     -0.221633
     28 F          -0.7680   -2.9880    2.5110 f         1 1LF     -0.221633
     29 H1          0.5090   -1.9690    1.0290 hn        1 1LF      0.472300
     30 H2          1.5670   -0.1030   -2.0150 hc        1 1LF      0.087200
     31 H3          3.8850   -1.6230   -2.1630 h4        1 1LF      0.034800
     32 H4         -2.5890   -0.8110   -3.1460 ha        1 1LF      0.169500
     33 H5         -5.9430   -3.1920    0.3350 ha        1 1LF      0.194500
     34 H6          1.0030   -6.6320    0.6180 hn        1 1LF      0.454800
     35 H7          2.8600   -8.6460   -0.3040 h1        1 1LF      0.058700
     36 H8          1.4610   -8.8500    0.8590 h1        1 1LF      0.058700
     37 H9          3.0930   -8.2830    1.4670 h1        1 1LF      0.058700
     38 H10         6.6340   -6.5390   -0.7060 hc        1 1LF      0.075700
     39 H11         6.6640   -5.1490   -1.8790 hc        1 1LF      0.075700
     40 H12         7.0360   -4.8640   -0.1210 hc        1 1LF      0.075700
     41 H13         4.9940   -0.0600   -0.3450 hc        1 1LF      0.056367
     42 H14         5.5980    1.0570    0.9470 hc        1 1LF      0.056367
     43 H15         4.5170   -0.3280    1.3860 hc        1 1LF      0.056367
     44 H16         3.7780    2.1630   -0.3080 hc        1 1LF      0.071700
     45 H17         3.2800    1.8430    1.4050 hc        1 1LF      0.071700
     46 H18         1.4920    1.4390   -0.2650 hc        1 1LF      0.088700
     47 H19         3.2300    0.6040   -2.0150 hc        1 1LF      0.087200
     48 H20        -0.6440   -0.3930    2.3770 hx        1 1LF      0.115200
     49 H21        -0.7250    0.7570    0.9510 hx        1 1LF      0.115200
     50 H22        -2.4890   -0.4710   -0.1010 ha        1 1LF      0.185000
     51 H23        -3.1910    2.0300   -1.5380 ha        1 1LF      0.169500
     52 H121        0.3300   -1.0720   -0.3640 hn        1 1LF      0.472300
     53 N01         1.9360   -6.8820    0.3840 nu        1 1LF     -0.841900
@<TRIPOS>BOND
     1    1   19 1   
     2    1   21 1   
     3    1   29 1   
     4    1   52 1   
     5    2   14 2   
     6    2   18 1   
     7    2   31 1   
     8    3   21 1   
     9    3   24 2   
    10    3   50 1   
    11    4   22 3   
    12    4   51 1   
    13    5   23 3   
    14    5   24 1   
    15    6   35 1   
    16    6   36 1   
    17    6   37 1   
    18    6   53 1   
    19    7    8 ar  
    20    7   13 ar  
    21    7   53 1   
    22    8    9 ar  
    23    9   10 1   
    24    9   11 ar  
    25   10   38 1   
    26   10   39 1   
    27   10   40 1   
    28   11   12 ar  
    29   12   13 ar  
    30   12   14 1   
    31   15   16 1   
    32   15   41 1   
    33   15   42 1   
    34   15   43 1   
    35   16   17 1   
    36   16   44 1   
    37   16   45 1   
    38   17   18 1   
    39   17   19 1   
    40   17   46 1   
    41   18   30 1   
    42   18   47 1   
    43   19   20 2   
    44   21   48 1   
    45   21   49 1   
    46   22   32 1   
    47   23   33 1   
    48   24   25 1   
    49   25   26 1   
    50   25   27 1   
    51   25   28 1   
    52   34   53 1   
@<TRIPOS>SUBSTRUCTURE
     1 1LF         1 TEMP              0 ****  ****    0 ROOT
