@<TRIPOS>MOLECULE
1LF
   52    48     1     0     0
SMALL
bcc


@<TRIPOS>ATOM
      1 N1         -2.9800    0.6340   -0.0120 n         1 1LF     -0.372000
      2 C10         0.3360   -2.0660   -1.8140 c3        1 1LF     -0.040000
      3 C13        -3.8030    2.6930    1.0130 c1        1 1LF     -0.063000
      4 C15        -5.9380    3.7780    0.7980 c1        1 1LF     -0.109750
      5 C17        -3.9160    5.0540    0.4500 c1        1 1LF     -0.109750
      6 C01         6.9910   -2.4690    0.7410 c3        1 1LF     -0.077000
      7 N01         6.1610   -2.5330   -0.3930 n3        1 1LF     -0.283000
      8 C02         4.7010   -2.7260   -0.2290 c2        1 1LF      0.194000
      9 N02         4.2280   -3.5730    0.7420 n1        1 1LF     -0.285000
     10 C03         2.8980   -3.7210    0.9210 c1        1 1LF      0.101000
     11 C04         2.3620   -4.7550    1.9590 c2        1 1LF     -0.162000
     12 N03         2.0240   -3.0280    0.1370 n1        1 1LF     -0.283000
     13 C05         2.4820   -2.2000   -0.8120 c1        1 1LF      0.201000
     14 N04         3.8470   -2.0480   -0.9960 n2        1 1LF     -0.318000
     15 N05         1.5430   -1.3390   -1.5430 n3        1 1LF     -0.219000
     16 C06         1.3290   -0.1120   -0.8010 c3        1 1LF     -0.040000
     17 C07         0.2690    0.7850   -1.4310 c3        1 1LF     -0.154500
     18 C08        -1.0390    0.0650   -1.6890 c3        1 1LF     -0.122000
     19 C09        -0.7490   -1.2020   -2.4630 c3        1 1LF     -0.154500
     20 C11        -1.8490   -0.2130   -0.3600 c2        1 1LF      0.301000
     21 O1         -1.6310   -1.2200    0.2800 o         1 1LF     -0.373000
     22 C12        -2.9600    1.3740    1.1910 c3        1 1LF     -0.001000
     23 C14        -5.1930    2.6400    1.0550 c1        1 1LF     -0.109750
     24 C16        -5.2850    4.9980    0.4910 c1        1 1LF     -0.109750
     25 C18        -3.1590    3.9010    0.7100 c1        1 1LF     -0.153000
     26 C1         -1.6510    4.0110    0.8520 c3        1 1LF      0.466000
     27 F01        -1.3130    3.8400    2.1270 f         1 1LF     -0.168667
     28 F02        -1.2500    5.2330    0.4380 f         1 1LF     -0.168667
     29 F          -1.0630    3.0770    0.1080 f         1 1LF     -0.168667
     30 H1         -3.7430    0.6100   -0.5210 hn        1 1LF      0.230000
     31 H2         -0.0090   -2.4240   -0.9760 h1        1 1LF      0.105500
     32 H3          0.5440   -2.8130   -2.4140 h1        1 1LF      0.105500
     33 H4         -6.9190    3.7400    0.8280 ha        1 1LF      0.151000
     34 H5         -3.4560    5.9180    0.2330 ha        1 1LF      0.151000
     35 H6          6.5650   -1.9300    1.4220 h1        1 1LF      0.085000
     36 H7          7.1400   -3.3680    1.0850 h1        1 1LF      0.085000
     37 H8          7.8490   -2.0670    0.4960 h1        1 1LF      0.085000
     38 H9          6.5060   -2.3560   -1.2200 hn        1 1LF      0.229000
     39 H10         1.3690   -4.6880    2.0090 ha        1 1LF      0.102667
     40 H11         2.6160   -5.6650    1.6780 ha        1 1LF      0.102667
     41 H12         2.7480   -4.5650    2.8410 ha        1 1LF      0.102667
     42 H13         2.1850    0.3880   -0.7570 h1        1 1LF      0.105500
     43 H14         1.0470   -0.3410    0.1180 h1        1 1LF      0.105500
     44 H15         0.1000    1.5370   -0.8360 hc        1 1LF      0.098250
     45 H16         0.6130    1.1280   -2.2850 hc        1 1LF      0.098250
     46 H17        -1.6640    0.6360   -2.1760 hc        1 1LF      0.106000
     47 H18        -1.5570   -1.7160   -2.5290 hc        1 1LF      0.098250
     48 H19        -0.4600   -0.9590   -3.3590 hc        1 1LF      0.098250
     49 H20        -3.3430    0.8400    1.9050 h1        1 1LF      0.118000
     50 H21        -2.0580    1.6000    1.4110 h1        1 1LF      0.118000
     51 H22        -5.6430    1.8010    1.2660 ha        1 1LF      0.151000
     52 H23        -5.8190    5.8150    0.3060 ha        1 1LF      0.151000
@<TRIPOS>BOND
     1    1   20 1   
     2    1   22 1   
     3    1   30 1   
     4    2   15 1   
     5    2   19 1   
     6    2   31 1   
     7    2   32 1   
     8    3   22 1   
     9    3   25 1   
    10    4   23 1   
    11    4   33 1   
    12    5   24 1   
    13    5   34 1   
    14    6    7 1   
    15    6   35 1   
    16    6   36 1   
    17    6   37 1   
    18    7    8 1   
    19    7   38 1   
    20    8    9 1   
    21    8   14 1   
    22   10   12 1   
    23   11   39 1   
    24   11   40 1   
    25   11   41 1   
    26   13   14 1   
    27   13   15 1   
    28   15   16 1   
    29   16   17 1   
    30   16   42 1   
    31   16   43 1   
    32   17   18 1   
    33   17   44 1   
    34   17   45 1   
    35   18   19 1   
    36   18   20 1   
    37   18   46 1   
    38   19   47 1   
    39   19   48 1   
    40   20   21 1   
    41   22   49 1   
    42   22   50 1   
    43   23   51 1   
    44   24   52 1   
    45   25   26 1   
    46   26   27 1   
    47   26   28 1   
    48   26   29 1   
@<TRIPOS>SUBSTRUCTURE
     1 1LF         1 TEMP              0 ****  ****    0 ROOT
