@<TRIPOS>MOLECULE
1LG
   50    47     1     0     0
SMALL
bcc


@<TRIPOS>ATOM
      1 C4         -5.1940    0.5740   -3.6430 c3        1 1LG     -0.106000
      2 C5         -1.8610   -1.3040   -2.3320 c1        1 1LG     -0.204000
      3 C6         -4.0000   -1.0940   -0.7320 c1        1 1LG     -0.068000
      4 C8         -3.1470    0.3970   -5.8200 c3        1 1LG     -0.082000
      5 C13         0.2230   -1.1360   -1.0000 c1        1 1LG      0.350000
      6 C17         1.4750   -2.9280    0.6800 c1        1 1LG      0.020000
      7 C22         1.8060   -1.6220    2.6780 c1        1 1LG      0.075000
      8 C28         3.4450    0.1540    4.4730 c3        1 1LG     -0.047500
      9 C1         -3.8680   -0.2300   -3.3540 c2        1 1LG     -0.030000
     10 C2         -3.2680   -0.9000   -2.0480 c1        1 1LG     -0.116000
     11 C3         -2.7930   -0.2380   -4.4330 c2        1 1LG     -0.431000
     12 S7         -1.5280   -0.8990   -3.8350 ss        1 1LG      0.690000
     13 C9         -5.2090    1.3640   -4.8510 c3        1 1LG     -0.153000
     14 N10        -0.9420   -1.8690   -1.3900 n1        1 1LG     -0.279000
     15 N11        -4.5500   -1.2410    0.2580 n1        1 1LG     -0.059000
     16 C12        -4.5090    0.8040   -6.0130 c3        1 1LG     -0.151000
     17 C14         1.2360   -1.7640   -0.0420 c2        1 1LG     -0.147000
     18 O15         0.4320   -0.0310   -1.4680 o         1 1LG     -0.328000
     19 C16         1.2820   -0.5270    0.5960 c2        1 1LG      0.028000
     20 C18         1.5670   -0.4560    1.9560 c1        1 1LG     -0.798000
     21 C19         1.7600   -2.8580    2.0390 c1        1 1LG     -0.157000
     22 CL20        1.4580   -4.4770   -0.1300 cl        1 1LG      0.033000
     23 S21         1.4290    1.1120    2.8150 s4        1 1LG      2.061800
     24 N23         2.7550    1.3560    3.7900 n2        1 1LG     -0.837000
     25 O24         1.2530    2.2020    1.8890 o         1 1LG     -0.527400
     26 O25         0.2040    1.1880    3.5710 o         1 1LG     -0.527400
     27 CL26        2.2390   -2.5910    4.0670 cl        1 1LG      0.028000
     28 C27         4.0490    1.9600    3.1990 c3        1 1LG     -0.047500
     29 C29         5.0500    2.3670    4.2680 c3        1 1LG     -0.027000
     30 C30         4.4500    0.5760    5.5310 c3        1 1LG     -0.027000
     31 O31         4.8130    1.7810    5.3670 os        1 1LG     -0.270000
     32 H41        -5.3200    1.1970   -2.8920 hc        1 1LG      0.099000
     33 H42        -5.9170   -0.0890   -3.7260 hc        1 1LG      0.099000
     34 H81        -2.5740    1.1860   -5.9470 hc        1 1LG      0.090000
     35 H82        -2.9250   -0.2580   -6.5190 hc        1 1LG      0.090000
     36 H281        3.9090   -0.3760    3.7890 h1        1 1LG      0.101750
     37 H282        2.7570   -0.4070    4.8960 h1        1 1LG      0.101750
     38 H91        -6.1530    1.4680   -5.1100 hc        1 1LG      0.085000
     39 H92        -4.7690    2.2180   -4.6380 hc        1 1LG      0.085000
     40 H10        -1.0830   -2.7140   -1.0630 hn        1 1LG      0.255000
     41 H121       -4.5240    1.4790   -6.7300 hc        1 1LG      0.085000
     42 H122       -5.0170    0.0190   -6.3220 hc        1 1LG      0.085000
     43 H16         1.1130    0.2930    0.0860 ha        1 1LG      0.194000
     44 H19         1.9290   -3.6800    2.5480 ha        1 1LG      0.175000
     45 H271        3.8140    2.7530    2.6660 h1        1 1LG      0.101750
     46 H272        4.4690    1.2950    2.6100 h1        1 1LG      0.101750
     47 H291        5.9560    2.1320    3.9670 h1        1 1LG      0.096500
     48 H292        4.9980    3.3400    4.4030 h1        1 1LG      0.096500
     49 H301        4.0410    0.4820    6.4220 h1        1 1LG      0.096500
     50 H302        5.2400   -0.0080    5.4760 h1        1 1LG      0.096500
@<TRIPOS>BOND
     1    1    9 1   
     2    1   13 1   
     3    1   32 1   
     4    1   33 1   
     5    2   10 1   
     6    2   12 1   
     7    3   15 1   
     8    4   11 1   
     9    4   16 1   
    10    4   34 1   
    11    4   35 1   
    12    5   17 1   
    13    5   18 1   
    14    6   17 1   
    15    6   22 1   
    16    7   21 1   
    17    7   27 1   
    18    8   24 1   
    19    8   30 1   
    20    8   36 1   
    21    8   37 1   
    22    9   10 1   
    23    9   11 1   
    24   11   12 1   
    25   13   16 1   
    26   13   38 1   
    27   13   39 1   
    28   14   40 1   
    29   16   41 1   
    30   16   42 1   
    31   17   19 1   
    32   19   20 1   
    33   19   43 1   
    34   20   23 1   
    35   21   44 1   
    36   23   25 1   
    37   23   26 1   
    38   24   28 1   
    39   28   29 1   
    40   28   45 1   
    41   28   46 1   
    42   29   31 1   
    43   29   47 1   
    44   29   48 1   
    45   30   31 1   
    46   30   49 1   
    47   30   50 1   
@<TRIPOS>SUBSTRUCTURE
     1 1LG         1 TEMP              0 ****  ****    0 ROOT
