@<TRIPOS>MOLECULE
1LG
   50    53     1     0     0
SMALL
bcc


@<TRIPOS>ATOM
      1 C4         -7.1660    0.5680   -1.2850 c3        1 1LG     -0.020100
      2 C5         -3.5340    0.3340   -0.3310 cc        1 1LG      0.058500
      3 C6         -4.4790   -0.1290   -2.5870 ch        1 1LG      0.261800
      4 C8         -6.8020    1.2060    1.6300 c3        1 1LG      0.003900
      5 C13        -1.1530    0.1110    0.2130 c         1 1LG      0.676700
      6 C17         0.4990   -1.3690   -1.0360 ca        1 1LG      0.097400
      7 C22         2.7920   -0.6340   -1.2700 ca        1 1LG      0.152400
      8 C28         6.0210    0.7730    0.4150 c3        1 1LG      0.187300
      9 C1         -5.8550    0.5510   -0.6050 cd        1 1LG     -0.037300
     10 C2         -4.6090    0.2360   -1.2350 cd        1 1LG     -0.120000
     11 C3         -5.6820    0.8650    0.7320 cc        1 1LG     -0.168400
     12 S7         -4.0820    0.7900    1.2020 ss        1 1LG      0.149200
     13 C9         -8.3090    0.5980   -0.2850 c3        1 1LG     -0.074400
     14 N10        -2.2140    0.0960   -0.6810 n         1 1LG     -0.425100
     15 N11        -4.3690   -0.4340   -3.7050 n1        1 1LG     -0.384800
     16 C12        -8.0460    1.5790    0.8390 c3        1 1LG     -0.072400
     17 C14         0.1980   -0.1840   -0.3480 ca        1 1LG     -0.167600
     18 O15        -1.3120    0.3940    1.4150 o         1 1LG     -0.568100
     19 C16         1.2080    0.7540   -0.1260 ca        1 1LG      0.027000
     20 C18         2.5170    0.5580   -0.5860 ca        1 1LG     -0.350500
     21 C19         1.7990   -1.5930   -1.4970 ca        1 1LG     -0.157000
     22 S21         3.6420    1.8290   -0.2940 sy        1 1LG      1.503200
     23 N23         4.6800    1.1790    0.7620 n3        1 1LG     -0.818500
     24 O24         4.2930    2.1580   -1.4960 o         1 1LG     -0.640300
     25 O25         2.9100    2.8680    0.3200 o         1 1LG     -0.640300
     26 CL26        4.3490   -0.9690   -1.8490 cl        1 1LG     -0.049400
     27 C27         4.3560    1.0040    2.1580 c3        1 1LG      0.187300
     28 C29         5.4540    1.5210    3.0990 c3        1 1LG      0.114900
     29 C30         7.0780    1.3060    1.3940 c3        1 1LG      0.114900
     30 O31         6.7340    1.0120    2.7430 os        1 1LG     -0.407600
     31 H41        -7.2660   -0.3320   -1.9490 hc        1 1LG      0.059700
     32 H42        -7.2170    1.4770   -1.9450 hc        1 1LG      0.059700
     33 H81        -7.0320    0.3220    2.2870 hc        1 1LG      0.050700
     34 H82        -6.5200    2.0590    2.3030 hc        1 1LG      0.050700
     35 H281        6.0740   -0.3540    0.4160 h1        1 1LG      0.064700
     36 H282        6.2670    1.1430   -0.6220 h1        1 1LG      0.064700
     37 H91        -8.4560   -0.4280    0.1440 hc        1 1LG      0.045200
     38 H92        -9.2540    0.8800   -0.8170 hc        1 1LG      0.045200
     39 H10        -2.0420   -0.1480   -1.6330 hn        1 1LG      0.341500
     40 H121       -8.9270    1.6020    1.5320 hc        1 1LG      0.045700
     41 H122       -7.9220    2.6080    0.4130 hc        1 1LG      0.045700
     42 H16         0.9590    1.6810    0.4330 ha        1 1LG      0.193000
     43 H19         2.0410   -2.5240   -2.0370 ha        1 1LG      0.175000
     44 H271        3.4000    1.5560    2.3880 h1        1 1LG      0.064700
     45 H272        4.1990   -0.0950    2.3640 h1        1 1LG      0.064700
     46 H291        5.2790    1.1370    4.1380 h1        1 1LG      0.060700
     47 H292        5.4820    2.6430    3.0990 h1        1 1LG      0.060700
     48 H301        8.0520    0.7740    1.2310 h1        1 1LG      0.060700
     49 H302        7.2150    2.4120    1.2720 h1        1 1LG      0.060700
     50 CL20       -0.6770   -2.5570   -1.3100 cl        1 1LG     -0.045400
@<TRIPOS>BOND
     1    1    9 1   
     2    1   13 1   
     3    1   31 1   
     4    1   32 1   
     5    2   10 2   
     6    2   12 1   
     7    2   14 1   
     8    3   10 1   
     9    3   15 3   
    10    4   11 1   
    11    4   16 1   
    12    4   33 1   
    13    4   34 1   
    14    5   14 1   
    15    5   17 1   
    16    5   18 2   
    17    6   17 ar  
    18    6   21 ar  
    19    6   50 1   
    20    7   20 ar  
    21    7   21 ar  
    22    7   26 1   
    23    8   23 1   
    24    8   29 1   
    25    8   35 1   
    26    8   36 1   
    27    9   10 1   
    28    9   11 2   
    29   11   12 1   
    30   13   16 1   
    31   13   37 1   
    32   13   38 1   
    33   14   39 1   
    34   16   40 1   
    35   16   41 1   
    36   17   19 ar  
    37   19   20 ar  
    38   19   42 1   
    39   20   22 1   
    40   21   43 1   
    41   22   23 1   
    42   22   24 2   
    43   22   25 2   
    44   23   27 1   
    45   27   28 1   
    46   27   44 1   
    47   27   45 1   
    48   28   30 1   
    49   28   46 1   
    50   28   47 1   
    51   29   30 1   
    52   29   48 1   
    53   29   49 1   
@<TRIPOS>SUBSTRUCTURE
     1 1LG         1 TEMP              0 ****  ****    0 ROOT
