@<TRIPOS>MOLECULE
1LG
   50    53     1     0     0
SMALL
bcc


@<TRIPOS>ATOM
      1 C4          0.3690   -1.4080   -1.2600 c3        1 1LG     -0.020100
      2 C5          3.3070   -0.0640    0.6680 cc        1 1LG      0.057500
      3 C6          2.2320   -2.2810    1.0150 ch        1 1LG      0.263800
      4 C8          1.0680    1.3590   -2.2040 c3        1 1LG      0.003900
      5 C13         5.2630    0.7090    1.9330 c         1 1LG      0.674700
      6 C17         6.9870   -0.8110    3.0220 ca        1 1LG      0.097400
      7 C22         7.9860   -0.1450    5.1210 ca        1 1LG      0.152400
      8 C28         7.6120    1.1330    8.7940 c3        1 1LG      0.187800
      9 C1          1.4720   -0.6070   -0.6900 cd        1 1LG     -0.037300
     10 C2          2.3380   -1.0390    0.3640 cd        1 1LG     -0.123000
     11 C3          1.8080    0.6590   -1.1370 cc        1 1LG     -0.169400
     12 S7          3.1180    1.2940   -0.3210 ss        1 1LG      0.153200
     13 C9         -0.5570   -0.5530   -2.1060 c3        1 1LG     -0.074400
     14 N10         4.2660   -0.2180    1.6570 ns        1 1LG     -0.428100
     15 N11         2.1470   -3.3080    1.5560 n1        1 1LG     -0.386800
     16 C12         0.2140    0.3910   -3.0060 c3        1 1LG     -0.072400
     17 C14         6.2110    0.3570    3.0300 ca        1 1LG     -0.166600
     18 O15         5.3320    1.7930    1.3260 o         1 1LG     -0.560100
     19 C16         6.3520    1.2660    4.0800 ca        1 1LG      0.027000
     20 C18         7.2290    1.0350    5.1490 ca        1 1LG     -0.350500
     21 C19         7.8780   -1.0610    4.0700 ca        1 1LG     -0.157000
     22 S21         7.3250    2.2570    6.3570 sy        1 1LG      1.503200
     23 N23         6.7710    1.5200    7.6880 n3        1 1LG     -0.818500
     24 O24         8.6670    2.6410    6.5250 o         1 1LG     -0.639300
     25 O25         6.4270    3.2720    5.9610 o         1 1LG     -0.639300
     26 Cl26        9.0770   -0.5100    6.3660 cl        1 1LG     -0.050400
     27 C27         5.3660    1.2660    7.9030 c3        1 1LG      0.187800
     28 C29         4.8750    1.7280    9.2830 c3        1 1LG      0.113900
     29 C30         7.0720    1.6100   10.1500 c3        1 1LG      0.113900
     30 O31         5.7090    1.2400   10.3270 os        1 1LG     -0.407600
     31 H41        -0.2140   -1.8990   -0.4360 hc        1 1LG      0.059200
     32 H42         0.8090   -2.2280   -1.8920 hc        1 1LG      0.059200
     33 H81         1.7800    1.8870   -2.8940 hc        1 1LG      0.050700
     34 H82         0.4060    2.1420   -1.7420 hc        1 1LG      0.050700
     35 H281        7.6860    0.0070    8.8210 h1        1 1LG      0.063950
     36 H282        8.6460    1.5580    8.6450 h1        1 1LG      0.063950
     37 H91        -1.2060   -1.2210   -2.7300 hc        1 1LG      0.045200
     38 H92        -1.2310    0.0430   -1.4360 hc        1 1LG      0.045200
     39 H10         4.2610   -1.0860    2.1500 hn        1 1LG      0.339500
     40 H121       -0.5010    0.9740   -3.6420 hc        1 1LG      0.045700
     41 H122        0.8710   -0.2050   -3.6930 hc        1 1LG      0.045700
     42 H16         5.7590    2.2050    4.0540 ha        1 1LG      0.195000
     43 H19         8.4950   -1.9740    4.0640 ha        1 1LG      0.175000
     44 H271        4.7670    1.8050    7.1140 h1        1 1LG      0.063950
     45 H272        5.1750    0.1580    7.8100 h1        1 1LG      0.063950
     46 H291        3.8680    1.2850    9.4990 h1        1 1LG      0.060950
     47 H292        4.8260    2.8480    9.3330 h1        1 1LG      0.060950
     48 H301        7.6140    1.0890   10.9830 h1        1 1LG      0.060950
     49 H302        7.1770    2.7220   10.2550 h1        1 1LG      0.060950
     50 Cl20        6.8860   -1.9320    1.7560 cl        1 1LG     -0.045400
@<TRIPOS>BOND
     1    1    9 1   
     2    1   13 1   
     3    1   31 1   
     4    1   32 1   
     5    2   10 2   
     6    2   12 1   
     7    2   14 1   
     8    3   10 1   
     9    3   15 3   
    10    4   11 1   
    11    4   16 1   
    12    4   33 1   
    13    4   34 1   
    14    5   14 1   
    15    5   17 1   
    16    5   18 2   
    17    6   17 ar  
    18    6   21 ar  
    19    6   50 1   
    20    7   20 ar  
    21    7   21 ar  
    22    7   26 1   
    23    8   23 1   
    24    8   29 1   
    25    8   35 1   
    26    8   36 1   
    27    9   10 1   
    28    9   11 2   
    29   11   12 1   
    30   13   16 1   
    31   13   37 1   
    32   13   38 1   
    33   14   39 1   
    34   16   40 1   
    35   16   41 1   
    36   17   19 ar  
    37   19   20 ar  
    38   19   42 1   
    39   20   22 1   
    40   21   43 1   
    41   22   23 1   
    42   22   24 2   
    43   22   25 2   
    44   23   27 1   
    45   27   28 1   
    46   27   44 1   
    47   27   45 1   
    48   28   30 1   
    49   28   46 1   
    50   28   47 1   
    51   29   30 1   
    52   29   48 1   
    53   29   49 1   
@<TRIPOS>SUBSTRUCTURE
     1 1LG         1 TEMP              0 ****  ****    0 ROOT
