@<TRIPOS>MOLECULE
1LG
   51    54     1     0     0
SMALL
bcc


@<TRIPOS>ATOM
      1 C4          1.0950    1.2050    0.9700 c3        1 1LG     -0.030100
      2 C5          4.5710    0.2540   -0.1010 cc        1 1LG     -0.172500
      3 C6          4.0050    1.7910    1.7800 ch        1 1LG      0.200800
      4 C8          1.0120   -0.6120   -1.4260 c3        1 1LG     -0.025100
      5 C13         6.5950   -0.9450    0.6330 c         1 1LG      0.587700
      6 C17         7.1090   -0.1350    2.9690 ca        1 1LG      0.091400
      7 C22         6.4220   -1.4980    4.8480 ca        1 1LG      0.173400
      8 C28         6.1380   -4.9640    6.6460 c3        1 1LG      0.182300
      9 C1          2.3090    0.6760    0.3140 cd        1 1LG     -0.050300
     10 C2          3.6450    0.9410    0.7140 cd        1 1LG      0.031000
     11 C3          2.2740   -0.1860   -0.7870 cc        1 1LG     -0.072400
     12 S7          3.7820   -0.6420   -1.2830 ss        1 1LG      0.234200
     13 C9         -0.1380    1.0080    0.1070 c3        1 1LG     -0.081400
     14 N10         5.9960    0.3430    0.0600 n4        1 1LG     -0.497200
     15 N11         4.2870    2.4960    2.6620 n1        1 1LG     -0.283800
     16 C12        -0.1770   -0.3740   -0.5100 c3        1 1LG     -0.077400
     17 C14         6.5460   -1.0810    2.0910 ca        1 1LG     -0.222600
     18 O15         7.0310   -1.7220   -0.2000 o         1 1LG     -0.399100
     19 C16         5.9490   -2.2330    2.6130 ca        1 1LG      0.046000
     20 C18         5.8580   -2.4520    3.9920 ca        1 1LG     -0.316500
     21 C19         7.0540   -0.3470    4.3420 ca        1 1LG     -0.134000
     22 S21         4.9590   -3.8740    4.4950 sy        1 1LG      1.494200
     23 N23         6.0580   -4.7910    5.2110 n3        1 1LG     -0.824500
     24 O24         3.9660   -3.4410    5.3850 o         1 1LG     -0.631800
     25 O25         4.5240   -4.4430    3.2790 o         1 1LG     -0.631800
     26 C27         7.0130   -5.5850    4.4700 c3        1 1LG      0.182300
     27 C29         7.0900   -7.0420    4.9530 c3        1 1LG      0.114400
     28 C30         6.2280   -6.4390    7.0660 c3        1 1LG      0.114400
     29 O31         7.2640   -7.1120    6.3620 os        1 1LG     -0.395600
     30 H41         0.9590    0.6720    1.9530 hc        1 1LG      0.076700
     31 H42         1.2270    2.2970    1.1990 hc        1 1LG      0.076700
     32 H81         0.8710   -0.0260   -2.3780 hc        1 1LG      0.076200
     33 H82         1.0590   -1.7000   -1.7050 hc        1 1LG      0.076200
     34 H281        7.0590   -4.4330    7.0220 h1        1 1LG      0.066700
     35 H282        5.2290   -4.5030    7.1300 h1        1 1LG      0.066700
     36 H91        -0.1570    1.7820   -0.7050 hc        1 1LG      0.063700
     37 H92        -1.0520    1.1610    0.7390 hc        1 1LG      0.063700
     38 H10         6.4260    0.5330   -0.8570 hn        1 1LG      0.466800
     39 H121       -0.1870   -1.1490    0.3010 hc        1 1LG      0.065200
     40 H122       -1.1200   -0.4960   -1.1050 hc        1 1LG      0.065200
     41 H16         5.5260   -2.9890    1.9170 ha        1 1LG      0.197000
     42 H19         7.5010    0.3870    5.0370 ha        1 1LG      0.196000
     43 H271        6.7280   -5.5880    3.3790 h1        1 1LG      0.066700
     44 H272        8.0350   -5.1190    4.5800 h1        1 1LG      0.066700
     45 H291        6.1700   -7.6090    4.6540 h1        1 1LG      0.069700
     46 H292        8.0050   -7.5360    4.5320 h1        1 1LG      0.069700
     47 H301        5.2510   -6.9640    6.9000 h1        1 1LG      0.069700
     48 H302        6.5290   -6.5100    8.1450 h1        1 1LG      0.069700
     49 CL20        7.8820    1.2540    2.3740 cl        1 1LG     -0.047400
     50 H102        6.2160    1.1260    0.7000 hn        1 1LG      0.466800
     51 CL26        6.3700   -1.6840    6.5220 cl        1 1LG      0.004600
@<TRIPOS>BOND
     1    1    9 1   
     2    1   13 1   
     3    1   30 1   
     4    1   31 1   
     5    2   10 2   
     6    2   12 1   
     7    2   14 1   
     8    3   10 1   
     9    3   15 3   
    10    4   11 1   
    11    4   16 1   
    12    4   32 1   
    13    4   33 1   
    14    5   14 1   
    15    5   17 1   
    16    5   18 2   
    17    6   17 ar  
    18    6   21 ar  
    19    6   49 1   
    20    7   20 ar  
    21    7   21 ar  
    22    7   51 1   
    23    8   23 1   
    24    8   28 1   
    25    8   34 1   
    26    8   35 1   
    27    9   10 1   
    28    9   11 2   
    29   11   12 1   
    30   13   16 1   
    31   13   36 1   
    32   13   37 1   
    33   14   38 1   
    34   14   50 1   
    35   16   39 1   
    36   16   40 1   
    37   17   19 ar  
    38   19   20 ar  
    39   19   41 1   
    40   20   22 1   
    41   21   42 1   
    42   22   23 1   
    43   22   24 2   
    44   22   25 2   
    45   23   26 1   
    46   26   27 1   
    47   26   43 1   
    48   26   44 1   
    49   27   29 1   
    50   27   45 1   
    51   27   46 1   
    52   28   29 1   
    53   28   47 1   
    54   28   48 1   
@<TRIPOS>SUBSTRUCTURE
     1 1LG         1 TEMP              0 ****  ****    0 ROOT
