@<TRIPOS>MOLECULE
1LG
   50    53     1     0     0
SMALL
bcc


@<TRIPOS>ATOM
      1 C4         -0.0500   -1.3230   -0.3230 c3        1 1LG     -0.020100
      2 C5          3.2880    0.2410    0.4300 cc        1 1LG      0.057500
      3 C6          1.8180   -0.9100    2.0740 ch        1 1LG      0.263800
      4 C8          1.1050   -0.0710   -2.7990 c3        1 1LG      0.003900
      5 C13         5.4820    1.1830    0.9960 c         1 1LG      0.674700
      6 C17         6.9570    0.3900    2.9100 ca        1 1LG      0.097400
      7 C22         8.2850    2.0080    4.1220 ca        1 1LG      0.152400
      8 C28         8.5620    5.3960    6.0490 c3        1 1LG      0.187800
      9 C1          1.2480   -0.6190   -0.3500 cd        1 1LG     -0.037300
     10 C2          2.1110   -0.4490    0.7790 cd        1 1LG     -0.123000
     11 C3          1.7920   -0.0600   -1.4940 cc        1 1LG     -0.169400
     12 S7          3.2830    0.6360   -1.2140 ss        1 1LG      0.153200
     13 C9         -0.8630   -1.0370   -1.5740 c3        1 1LG     -0.074400
     14 N10         4.2920    0.5510    1.3330 n         1 1LG     -0.428100
     15 N11         1.5780   -1.2910    3.1480 n1        1 1LG     -0.386800
     16 C12        -0.0100   -1.1040   -2.8250 c3        1 1LG     -0.072400
     17 C14         6.4450    1.4220    2.1100 ca        1 1LG     -0.166600
     18 O15         5.7110    1.5660   -0.1650 o         1 1LG     -0.560100
     19 C16         6.8790    2.7320    2.3210 ca        1 1LG      0.027000
     20 C18         7.7950    3.0570    3.3310 ca        1 1LG     -0.350500
     21 C19         7.8810    0.6850    3.9170 ca        1 1LG     -0.157000
     22 S21         8.2660    4.7080    3.4550 sy        1 1LG      1.503200
     23 N23         7.7100    5.1530    4.9100 n3        1 1LG     -0.818500
     24 O24         9.6680    4.7960    3.4110 o         1 1LG     -0.639300
     25 O25         7.5610    5.3940    2.4420 o         1 1LG     -0.639300
     26 CL26        9.3990    2.3010    5.3660 cl        1 1LG     -0.050400
     27 C27         6.3130    5.4200    5.1550 c3        1 1LG      0.187800
     28 C29         6.0740    6.7580    5.8710 c3        1 1LG      0.113900
     29 C30         8.2750    6.7400    6.7330 c3        1 1LG      0.113900
     30 O31         6.8910    6.8890    7.0280 os        1 1LG     -0.407600
     31 H41        -0.6340   -1.0180    0.5870 hc        1 1LG      0.059200
     32 H42         0.1410   -2.4280   -0.2410 hc        1 1LG      0.059200
     33 H81         1.8350   -0.2920   -3.6240 hc        1 1LG      0.050700
     34 H82         0.6730    0.9480   -2.9980 hc        1 1LG      0.050700
     35 H281        8.4040    4.5740    6.8060 h1        1 1LG      0.063950
     36 H282        9.6410    5.3780    5.7190 h1        1 1LG      0.063950
     37 H91        -1.6980   -1.7810   -1.6480 hc        1 1LG      0.045200
     38 H92        -1.3240   -0.0180   -1.4940 hc        1 1LG      0.045200
     39 H10         4.1580    0.2380    2.2710 hn        1 1LG      0.339500
     40 H121       -0.6510   -0.9270   -3.7270 hc        1 1LG      0.045700
     41 H122        0.4330   -2.1290   -2.9180 hc        1 1LG      0.045700
     42 H16         6.4940    3.5330    1.6560 ha        1 1LG      0.195000
     43 H19         8.2920   -0.1240    4.5430 ha        1 1LG      0.175000
     44 H271        5.7610    5.4390    4.1730 h1        1 1LG      0.063950
     45 H272        5.8880    4.5930    5.7950 h1        1 1LG      0.063950
     46 H291        5.0240    6.7990    6.2640 h1        1 1LG      0.060950
     47 H292        6.2620    7.6190    5.1770 h1        1 1LG      0.060950
     48 H301        8.7800    6.7760    7.7340 h1        1 1LG      0.060950
     49 H302        8.6180    7.5960    6.0950 h1        1 1LG      0.060950
     50 CL20        6.4970   -1.2230    2.6760 cl        1 1LG     -0.045400
@<TRIPOS>BOND
     1    1    9 1   
     2    1   13 1   
     3    1   31 1   
     4    1   32 1   
     5    2   10 2   
     6    2   12 1   
     7    2   14 1   
     8    3   10 1   
     9    3   15 3   
    10    4   11 1   
    11    4   16 1   
    12    4   33 1   
    13    4   34 1   
    14    5   14 1   
    15    5   17 1   
    16    5   18 2   
    17    6   17 ar  
    18    6   21 ar  
    19    6   50 1   
    20    7   20 ar  
    21    7   21 ar  
    22    7   26 1   
    23    8   23 1   
    24    8   29 1   
    25    8   35 1   
    26    8   36 1   
    27    9   10 1   
    28    9   11 2   
    29   11   12 1   
    30   13   16 1   
    31   13   37 1   
    32   13   38 1   
    33   14   39 1   
    34   16   40 1   
    35   16   41 1   
    36   17   19 ar  
    37   19   20 ar  
    38   19   42 1   
    39   20   22 1   
    40   21   43 1   
    41   22   23 1   
    42   22   24 2   
    43   22   25 2   
    44   23   27 1   
    45   27   28 1   
    46   27   44 1   
    47   27   45 1   
    48   28   30 1   
    49   28   46 1   
    50   28   47 1   
    51   29   30 1   
    52   29   48 1   
    53   29   49 1   
@<TRIPOS>SUBSTRUCTURE
     1 1LG         1 TEMP              0 ****  ****    0 ROOT
