@<TRIPOS>MOLECULE
1LH
   57    58     1     0     0
SMALL
bcc


@<TRIPOS>ATOM
      1 C1          1.0670    5.2210    1.8150 c3        1 1LH     -0.117100
      2 C2          0.6910    3.8610    2.3390 c3        1 1LH     -0.108400
      3 C3          0.7800    2.7670    1.2700 c3        1 1LH      0.201800
      4 N5          2.2320    2.4500    0.9220 n4        1 1LH     -0.783000
      5 C8          2.5410    2.5660   -0.5470 c3        1 1LH      0.134500
      6 C10         2.6240    4.0200   -0.9990 c3        1 1LH     -0.135100
      7 C11         3.8570    1.8650   -0.9160 c3        1 1LH     -0.180400
      8 C12         3.7730    0.3620   -0.7310 c         1 1LH      0.664100
      9 O13         3.3890   -0.1320    0.3530 o         1 1LH     -0.633100
     10 N14         4.1560   -0.4610   -1.7700 n         1 1LH     -0.551900
     11 C15         3.9770   -1.8790   -1.7070 c3        1 1LH      0.084000
     12 C16         5.1260   -2.5870   -0.9390 c3        1 1LH      0.061800
     13 N17         4.9030   -4.0540   -0.8250 n4        1 1LH     -0.831600
     14 C21         0.0770    1.5060    1.6760 ca        1 1LH     -0.207300
     15 C22        -0.1580    1.1810    3.0150 ca        1 1LH     -0.076000
     16 C23        -0.8580    0.0310    3.3620 ca        1 1LH     -0.119000
     17 C24        -1.3320   -0.8450    2.3750 ca        1 1LH      0.046400
     18 CL2        -2.1570   -2.2370    2.8410 cl        1 1LH      0.004600
     19 C26        -1.1050   -0.5440    1.0200 ca        1 1LH      0.084100
     20 O27        -1.3990   -1.4100   -0.0180 os        1 1LH     -0.253200
     21 C28        -2.7640   -1.6480   -0.2530 ca        1 1LH      0.070100
     22 C29        -3.0930   -2.9530   -0.6430 ca        1 1LH     -0.145500
     23 C30        -4.4140   -3.2260   -0.9980 ca        1 1LH     -0.099500
     24 C31        -5.3810   -2.2200   -0.9520 ca        1 1LH     -0.120000
     25 C32        -5.0350   -0.9280   -0.5540 ca        1 1LH     -0.099500
     26 C33        -3.7190   -0.6290   -0.2030 ca        1 1LH     -0.145500
     27 C34        -0.4090    0.6380    0.6720 ca        1 1LH      0.133900
     28 F35        -0.1940    0.9250   -0.6330 f         1 1LH     -0.132900
     29 H3          0.2960    3.1630    0.3220 hx        1 1LH      0.117700
     30 HN5         2.8410    3.0950    1.4370 hn        1 1LH      0.459800
     31 HN5A        2.4400    1.4850    1.2290 hn        1 1LH      0.459800
     32 H8          1.6890    2.0520   -1.0930 hx        1 1LH      0.126700
     33 HN17        4.0260   -4.2440   -0.3250 hn        1 1LH      0.470133
     34 HN1A        4.8490   -4.4840   -1.7550 hn        1 1LH      0.470133
     35 HN1B        5.6800   -4.4820   -0.3060 hn        1 1LH      0.470133
     36 H1          2.1340    5.2590    1.4840 hc        1 1LH      0.057700
     37 H1A         0.4160    5.5160    0.9560 hc        1 1LH      0.057700
     38 H1B         0.9320    5.9830    2.6250 hc        1 1LH      0.057700
     39 H2          1.3230    3.6040    3.2310 hc        1 1LH      0.088200
     40 H2A        -0.3800    3.8850    2.6870 hc        1 1LH      0.088200
     41 H10         2.7400    4.0470   -2.1110 hc        1 1LH      0.083367
     42 H10A        1.6920    4.5820   -0.7380 hc        1 1LH      0.083367
     43 H10B        3.4980    4.5420   -0.5380 hc        1 1LH      0.083367
     44 H11         4.0890    2.1450   -1.9810 hc        1 1LH      0.110700
     45 H11A        4.7080    2.2390   -0.2830 hc        1 1LH      0.110700
     46 HN14        4.4960   -0.0690   -2.6190 hn        1 1LH      0.349500
     47 H15         3.0010   -2.1030   -1.1800 h1        1 1LH      0.089200
     48 H15A        3.9280   -2.2810   -2.7600 h1        1 1LH      0.089200
     49 H16         6.1100   -2.4250   -1.4650 hx        1 1LH      0.124700
     50 H16A        5.1930   -2.1630    0.1070 hx        1 1LH      0.124700
     51 H22         0.2010    1.8440    3.8210 ha        1 1LH      0.159000
     52 H23        -1.0420   -0.1960    4.4270 ha        1 1LH      0.182000
     53 H29        -2.3220   -3.7340   -0.6730 ha        1 1LH      0.140000
     54 H30        -4.6920   -4.2440   -1.3120 ha        1 1LH      0.152000
     55 H31        -6.4230   -2.4490   -1.2290 ha        1 1LH      0.156000
     56 H32        -5.8020   -0.1390   -0.5190 ha        1 1LH      0.152000
     57 H33        -3.4380    0.3860    0.1090 ha        1 1LH      0.140000
@<TRIPOS>BOND
     1    1    2 1   
     2    1   36 1   
     3    1   37 1   
     4    1   38 1   
     5    2    3 1   
     6    2   39 1   
     7    2   40 1   
     8    3    4 1   
     9    3   14 1   
    10    3   29 1   
    11    4    5 1   
    12    4   30 1   
    13    4   31 1   
    14    5    6 1   
    15    5    7 1   
    16    5   32 1   
    17    6   41 1   
    18    6   42 1   
    19    6   43 1   
    20    7    8 1   
    21    7   44 1   
    22    7   45 1   
    23    8    9 2   
    24    8   10 1   
    25   10   11 1   
    26   10   46 1   
    27   11   12 1   
    28   11   47 1   
    29   11   48 1   
    30   12   13 1   
    31   12   49 1   
    32   12   50 1   
    33   13   33 1   
    34   13   34 1   
    35   13   35 1   
    36   14   15 ar  
    37   14   27 ar  
    38   15   16 ar  
    39   15   51 1   
    40   16   17 ar  
    41   16   52 1   
    42   17   18 1   
    43   17   19 ar  
    44   19   20 1   
    45   19   27 ar  
    46   20   21 1   
    47   21   22 ar  
    48   21   26 ar  
    49   22   23 ar  
    50   22   53 1   
    51   23   24 ar  
    52   23   54 1   
    53   24   25 ar  
    54   24   55 1   
    55   25   26 ar  
    56   25   56 1   
    57   26   57 1   
    58   27   28 1   
@<TRIPOS>SUBSTRUCTURE
     1 1LH         1 TEMP              0 ****  ****    0 ROOT
