@<TRIPOS>MOLECULE
1LH
   58    59     1     0     0
SMALL
bcc


@<TRIPOS>ATOM
      1 C1         -1.1140    0.8060   -0.2890 c3        1 1LH     -0.126100
      2 C2          0.2310    0.3190   -0.7590 c3        1 1LH     -0.112400
      3 C3          1.0910   -0.2420    0.3800 c3        1 1LH      0.202800
      4 N5          0.4680   -1.5260    0.9460 n4        1 1LH     -0.792000
      5 C8          0.2530   -1.4900    2.4370 c3        1 1LH      0.136500
      6 C10        -1.1990   -1.1590    2.7810 c3        1 1LH     -0.144100
      7 C11         0.6210   -2.8050    3.1480 c3        1 1LH     -0.191400
      8 C12         2.0490   -3.2140    2.9150 c         1 1LH      0.550100
      9 O13         2.5050   -3.6810    1.8850 o         1 1LH     -0.387100
     10 N14         3.0290   -3.0190    4.0690 n4        1 1LH     -0.669800
     11 C15         4.4370   -3.3040    3.6680 c3        1 1LH      0.067800
     12 C16         5.4710   -2.8830    4.7350 c3        1 1LH      0.089800
     13 N17         6.8400   -2.7660    4.1700 n4        1 1LH     -0.843600
     14 C21         2.5140   -0.5020   -0.0220 ca        1 1LH     -0.187300
     15 C22         2.9220   -0.5250   -1.3590 ca        1 1LH     -0.049000
     16 C23         4.2610   -0.7030   -1.7020 ca        1 1LH     -0.088000
     17 C24         5.2440   -0.8850   -0.7180 ca        1 1LH      0.059400
     18 CL2         6.8380   -1.1260   -1.1840 cl        1 1LH      0.039600
     19 C26         4.8560   -0.8690    0.6360 ca        1 1LH      0.074100
     20 O27         5.7080   -1.1630    1.6960 os        1 1LH     -0.344200
     21 C28         6.7730   -0.2640    1.9060 ca        1 1LH      0.004100
     22 C29         8.0730   -0.7870    1.8250 ca        1 1LH     -0.165500
     23 C30         9.1460    0.0510    2.1280 ca        1 1LH     -0.089500
     24 C31         8.9220    1.3830    2.4890 ca        1 1LH     -0.087000
     25 C32         7.6220    1.8890    2.5510 ca        1 1LH     -0.089500
     26 C33         6.5320    1.0670    2.2570 ca        1 1LH     -0.165500
     27 C34         3.5020   -0.6620    0.9760 ca        1 1LH      0.081900
     28 F35         3.1510   -0.6560    2.2930 f         1 1LH     -0.195900
     29 H3          1.0850    0.5240    1.2180 hx        1 1LH      0.118700
     30 HN5         1.0630   -2.3210    0.6870 hn        1 1LH      0.463300
     31 HN5A       -0.4490   -1.6570    0.4890 hn        1 1LH      0.463300
     32 H8          0.9180   -0.6690    2.8520 hx        1 1LH      0.115700
     33 HN17        7.1370   -3.6510    3.7400 hn        1 1LH      0.491467
     34 HN1A        6.8910   -2.0150    3.4500 hn        1 1LH      0.491467
     35 HN1B        7.4990   -2.5350    4.9300 hn        1 1LH      0.491467
     36 H1         -1.0160    1.5120    0.5710 hc        1 1LH      0.067367
     37 H1A        -1.7880   -0.0340    0.0050 hc        1 1LH      0.067367
     38 H1B        -1.6180    1.3590   -1.1260 hc        1 1LH      0.067367
     39 H2          0.8040    1.1880   -1.1920 hc        1 1LH      0.101200
     40 H2A         0.1020   -0.4390   -1.5790 hc        1 1LH      0.101200
     41 H10        -1.5140   -0.1990    2.2920 hc        1 1LH      0.103033
     42 H10A       -1.8970   -1.9730    2.4630 hc        1 1LH      0.103033
     43 H10B       -1.2960   -1.0230    3.8890 hc        1 1LH      0.103033
     44 H11         0.3790   -2.6740    4.2400 hc        1 1LH      0.151700
     45 H11A       -0.0280   -3.6570    2.7760 hc        1 1LH      0.151700
     46 HN14        2.9490   -2.0400    4.3810 hn        1 1LH      0.479800
     47 H15         4.5200   -4.4130    3.4590 hx        1 1LH      0.152200
     48 H15A        4.6240   -2.7470    2.6940 hx        1 1LH      0.152200
     49 H16         5.5000   -3.6520    5.5670 hx        1 1LH      0.134200
     50 H16A        5.2080   -1.8790    5.1860 hx        1 1LH      0.134200
     51 H22         2.1880   -0.3920   -2.1750 ha        1 1LH      0.186000
     52 H23         4.5540   -0.7020   -2.7710 ha        1 1LH      0.209000
     53 H29         8.2450   -1.8080    1.4550 ha        1 1LH      0.148500
     54 H30        10.1790   -0.3310    2.0520 ha        1 1LH      0.179000
     55 H31         9.7810    2.0450    2.7050 ha        1 1LH      0.187000
     56 H32         7.4540    2.9480    2.8150 ha        1 1LH      0.179000
     57 H33         5.5070    1.4660    2.2760 ha        1 1LH      0.148500
     58 H142        2.7500   -3.6360    4.8470 hn        1 1LH      0.479800
@<TRIPOS>BOND
     1    1    2 1   
     2    1   36 1   
     3    1   37 1   
     4    1   38 1   
     5    2    3 1   
     6    2   39 1   
     7    2   40 1   
     8    3    4 1   
     9    3   14 1   
    10    3   29 1   
    11    4    5 1   
    12    4   30 1   
    13    4   31 1   
    14    5    6 1   
    15    5    7 1   
    16    5   32 1   
    17    6   41 1   
    18    6   42 1   
    19    6   43 1   
    20    7    8 1   
    21    7   44 1   
    22    7   45 1   
    23    8    9 2   
    24    8   10 1   
    25   10   11 1   
    26   10   46 1   
    27   10   58 1   
    28   11   12 1   
    29   11   47 1   
    30   11   48 1   
    31   12   13 1   
    32   12   49 1   
    33   12   50 1   
    34   13   33 1   
    35   13   34 1   
    36   13   35 1   
    37   14   15 ar  
    38   14   27 ar  
    39   15   16 ar  
    40   15   51 1   
    41   16   17 ar  
    42   16   52 1   
    43   17   18 1   
    44   17   19 ar  
    45   19   20 1   
    46   19   27 ar  
    47   20   21 1   
    48   21   22 ar  
    49   21   26 ar  
    50   22   23 ar  
    51   22   53 1   
    52   23   24 ar  
    53   23   54 1   
    54   24   25 ar  
    55   24   55 1   
    56   25   26 ar  
    57   25   56 1   
    58   26   57 1   
    59   27   28 1   
@<TRIPOS>SUBSTRUCTURE
     1 1LH         1 TEMP              0 ****  ****    0 ROOT
