@<TRIPOS>MOLECULE
1LH
   58    59     1     0     0
SMALL
bcc


@<TRIPOS>ATOM
      1 C1         -1.1670    0.8870   -0.0860 c3        1 1LH     -0.126100
      2 C2          0.1780    0.4550   -0.6090 c3        1 1LH     -0.112400
      3 C3          1.0610   -0.1740    0.4760 c3        1 1LH      0.202800
      4 N5          0.4640   -1.5050    0.9560 n4        1 1LH     -0.792000
      5 C8          0.2690   -1.5800    2.4480 c3        1 1LH      0.136500
      6 C10        -1.1830   -1.2960    2.8340 c3        1 1LH     -0.144100
      7 C11         0.6650   -2.9380    3.0560 c3        1 1LH     -0.191400
      8 C12         2.0950   -3.3080    2.7760 c         1 1LH      0.550100
      9 O13         2.5430   -3.6920    1.7090 o         1 1LH     -0.387100
     10 N14         3.0880   -3.1830    3.9290 n4        1 1LH     -0.669800
     11 C15         4.4950   -3.4170    3.4900 c3        1 1LH      0.067800
     12 C16         5.5370   -3.0590    4.5700 c3        1 1LH      0.089800
     13 N17         6.8970   -2.8820    3.9970 n4        1 1LH     -0.843600
     14 C21         2.4810   -0.3840    0.0380 ca        1 1LH     -0.187300
     15 C22         2.8710   -0.3040   -1.3030 ca        1 1LH     -0.049000
     16 C23         4.2070   -0.4370   -1.6750 ca        1 1LH     -0.088000
     17 C24         5.2060   -0.6760   -0.7200 ca        1 1LH      0.059400
     18 CL2         6.7970   -0.8590   -1.2240 cl        1 1LH      0.039600
     19 C26         4.8380   -0.7630    0.6360 ca        1 1LH      0.075100
     20 O27         5.7080   -1.1210    1.6610 os        1 1LH     -0.344200
     21 C28         6.7650   -0.2250    1.9210 ca        1 1LH      0.004100
     22 C29         8.0700   -0.7220    1.7860 ca        1 1LH     -0.165500
     23 C30         9.1360    0.1060    2.1340 ca        1 1LH     -0.089500
     24 C31         8.9000    1.4050    2.5930 ca        1 1LH     -0.087000
     25 C32         7.5950    1.8870    2.7080 ca        1 1LH     -0.089500
     26 C33         6.5110    1.0740    2.3700 ca        1 1LH     -0.165500
     27 C34         3.4860   -0.6020    1.0080 ca        1 1LH      0.081900
     28 F35         3.1530   -0.6960    2.3270 f         1 1LH     -0.195900
     29 H3          1.0570    0.5290    1.3670 hx        1 1LH      0.118700
     30 HN5        -0.4580   -1.6160    0.5020 hn        1 1LH      0.463300
     31 HN5A        1.0660   -2.2710    0.6320 hn        1 1LH      0.463300
     32 H8          0.9290   -0.7820    2.9130 hx        1 1LH      0.115700
     33 HN17        7.5630   -2.6970    4.7640 hn        1 1LH      0.491467
     34 HN1A        6.9270   -2.0800    3.3330 hn        1 1LH      0.491467
     35 HN1B        7.2000   -3.7300    3.5010 hn        1 1LH      0.491467
     36 H1         -1.8260    0.0180    0.1550 hc        1 1LH      0.067367
     37 H1A        -1.0670    1.5300    0.8220 hc        1 1LH      0.067367
     38 H1B        -1.6910    1.4920   -0.8740 hc        1 1LH      0.067367
     39 H2          0.7320    1.3620   -0.9840 hc        1 1LH      0.101200
     40 H2A         0.0480   -0.2430   -1.4790 hc        1 1LH      0.101200
     41 H10        -1.2660   -1.2420    3.9500 hc        1 1LH      0.103033
     42 H10A       -1.8730   -2.0950    2.4660 hc        1 1LH      0.103033
     43 H10B       -1.5170   -0.3080    2.4200 hc        1 1LH      0.103033
     44 H11         0.4370   -2.8890    4.1590 hc        1 1LH      0.151700
     45 H11A        0.0230   -3.7700    2.6320 hc        1 1LH      0.151700
     46 HN14        3.0000   -2.2290    4.3120 hn        1 1LH      0.479800
     47 H15         4.5900   -4.5070    3.1990 hx        1 1LH      0.152200
     48 H15A        4.6600   -2.7880    2.5560 hx        1 1LH      0.152200
     49 H16         5.5890   -3.8850    5.3440 hx        1 1LH      0.134200
     50 H16A        5.2670   -2.0940    5.0960 hx        1 1LH      0.134200
     51 H22         2.1240   -0.1220   -2.0980 ha        1 1LH      0.186000
     52 H23         4.4840   -0.3550   -2.7450 ha        1 1LH      0.209000
     53 H29         8.2490   -1.7120    1.3400 ha        1 1LH      0.148500
     54 H30        10.1730   -0.2550    2.0160 ha        1 1LH      0.179000
     55 H31         9.7530    2.0620    2.8440 ha        1 1LH      0.187000
     56 H32         7.4170    2.9220    3.0500 ha        1 1LH      0.179000
     57 H33         5.4820    1.4560    2.4310 ha        1 1LH      0.148500
     58 H142        2.8280   -3.8580    4.6630 hn        1 1LH      0.479800
@<TRIPOS>BOND
     1    1    2 1   
     2    1   36 1   
     3    1   37 1   
     4    1   38 1   
     5    2    3 1   
     6    2   39 1   
     7    2   40 1   
     8    3    4 1   
     9    3   14 1   
    10    3   29 1   
    11    4    5 1   
    12    4   30 1   
    13    4   31 1   
    14    5    6 1   
    15    5    7 1   
    16    5   32 1   
    17    6   41 1   
    18    6   42 1   
    19    6   43 1   
    20    7    8 1   
    21    7   44 1   
    22    7   45 1   
    23    8    9 2   
    24    8   10 1   
    25   10   11 1   
    26   10   46 1   
    27   10   58 1   
    28   11   12 1   
    29   11   47 1   
    30   11   48 1   
    31   12   13 1   
    32   12   49 1   
    33   12   50 1   
    34   13   33 1   
    35   13   34 1   
    36   13   35 1   
    37   14   15 ar  
    38   14   27 ar  
    39   15   16 ar  
    40   15   51 1   
    41   16   17 ar  
    42   16   52 1   
    43   17   18 1   
    44   17   19 ar  
    45   19   20 1   
    46   19   27 ar  
    47   20   21 1   
    48   21   22 ar  
    49   21   26 ar  
    50   22   23 ar  
    51   22   53 1   
    52   23   24 ar  
    53   23   54 1   
    54   24   25 ar  
    55   24   55 1   
    56   25   26 ar  
    57   25   56 1   
    58   26   57 1   
    59   27   28 1   
@<TRIPOS>SUBSTRUCTURE
     1 1LH         1 TEMP              0 ****  ****    0 ROOT
