@<TRIPOS>MOLECULE
1LH
   57    54     1     0     0
SMALL
bcc


@<TRIPOS>ATOM
      1 C1         -2.3680    0.7550   -3.0570 c3        1 1LH     -0.235000
      2 C2         -1.0270    0.0310   -3.0400 c3        1 1LH     -0.188000
      3 C3         -0.4870    0.0000   -1.6120 c3        1 1LH     -0.001000
      4 N5         -0.5740   -1.3660   -1.0890 n4        1 1LH     -0.052000
      5 C8         -0.7780   -1.3270    0.3330 c3        1 1LH     -0.068000
      6 C10        -1.9180   -0.4190    0.6440 c3        1 1LH     -0.251000
      7 C11        -1.0930   -2.7210    0.8430 c3        1 1LH     -0.207000
      8 C12        -1.1430   -2.6970    2.4610 c2        1 1LH      0.315000
      9 O13        -0.8180   -1.6670    3.0760 o         1 1LH     -0.353000
     10 N14        -1.6590   -3.8300    3.1800 n         1 1LH     -0.379000
     11 C15        -2.6130   -3.6350    4.2680 c3        1 1LH     -0.025000
     12 C16        -3.3430   -4.9600    4.5440 c3        1 1LH     -0.175000
     13 N17        -4.4600   -4.7270    5.4070 n4        1 1LH     -0.059000
     14 C21         0.9200    0.4420   -1.6040 c2        1 1LH     -0.215000
     15 C22         1.8870   -0.3100   -2.2560 c2        1 1LH     -0.085000
     16 C23         3.2160    0.0960   -2.2290 c1        1 1LH     -0.117000
     17 C24         3.5850    1.2750   -1.5390 c1        1 1LH     -0.033000
     18 CL2         5.2850    1.7070   -1.3880 cl        1 1LH      0.092000
     19 C26         2.6210    2.0260   -0.8880 c1        1 1LH      0.046000
     20 O27         3.0160    3.1690   -0.0940 o         1 1LH     -0.153000
     21 C28         3.3970    4.2340   -0.9560 c2        1 1LH      0.023000
     22 C29         4.7350    4.3820   -1.3360 c2        1 1LH     -0.124000
     23 C30         5.1190    5.4630   -2.1410 c1        1 1LH     -0.104000
     24 C31         4.1800    6.3790   -2.5570 c1        1 1LH     -0.110500
     25 C32         2.8450    6.2320   -2.1780 c1        1 1LH     -0.110500
     26 C33         2.4580    5.1500   -1.3720 c1        1 1LH     -0.160000
     27 C34         1.2880    1.6230   -0.9120 c2        1 1LH      0.099000
     28 F35         0.3560    2.3760   -0.3360 f         1 1LH     -0.092000
     29 H3         -1.0370    0.6200   -1.0290 hx        1 1LH      0.160000
     30 HN5         0.1850   -1.8040   -1.2690 hn        1 1LH      0.242000
     31 HN5A       -1.2710   -1.7940   -1.4820 hn        1 1LH      0.242000
     32 H8          0.0350   -0.9960    0.7730 hx        1 1LH      0.184000
     33 HN17       -4.1530   -4.4730    6.2610 hn        1 1LH      0.264667
     34 HN1A       -4.9530   -5.4950    5.4760 hn        1 1LH      0.264667
     35 HN1B       -4.9670   -4.0780    5.0680 hn        1 1LH      0.264667
     36 H1         -3.0700    0.1670   -2.6380 hc        1 1LH      0.096333
     37 H1A        -2.6270    0.9630   -4.0080 hc        1 1LH      0.096333
     38 H1B        -2.2980    1.5660   -2.5640 hc        1 1LH      0.096333
     39 H2         -1.1430   -0.8520   -3.3490 hc        1 1LH      0.129000
     40 H2A        -0.3720    0.5170   -3.6440 hc        1 1LH      0.129000
     41 H10        -2.2830   -0.6480    1.4850 hc        1 1LH      0.121333
     42 H10A       -1.5950    0.5270    0.6670 hc        1 1LH      0.121333
     43 H10B       -2.5990   -0.5100   -0.0370 hc        1 1LH      0.121333
     44 H11        -0.3820   -3.3590    0.5380 hc        1 1LH      0.134500
     45 H11A       -1.9620   -3.0090    0.4940 hc        1 1LH      0.134500
     46 HN14       -1.4440   -4.6350    2.9320 hn        1 1LH      0.259000
     47 H15        -3.2520   -2.9600    4.0200 h1        1 1LH      0.122500
     48 H15A       -2.1370   -3.3530    5.0700 h1        1 1LH      0.122500
     49 H16        -2.7580   -5.5550    4.9510 hx        1 1LH      0.166500
     50 H16A       -3.6520   -5.3340    3.7120 hx        1 1LH      0.166500
     51 H22         1.6290   -1.1400   -2.7400 ha        1 1LH      0.155000
     52 H23         3.9150   -0.4470   -2.6970 ha        1 1LH      0.183000
     53 H29         5.3850    3.7480   -1.0470 ha        1 1LH      0.152000
     54 H30         6.0690    5.5680   -2.4110 ha        1 1LH      0.153000
     55 H31         4.4540    7.1500   -3.1300 ha        1 1LH      0.152000
     56 H32         2.1710    6.8910   -2.4770 ha        1 1LH      0.152000
     57 H33         1.4890    5.0420   -1.0980 ha        1 1LH      0.136000
@<TRIPOS>BOND
     1    1    2 1   
     2    1   36 1   
     3    1   37 1   
     4    1   38 1   
     5    2    3 1   
     6    2   39 1   
     7    2   40 1   
     8    3    4 1   
     9    3   14 1   
    10    3   29 1   
    11    4    5 1   
    12    4   30 1   
    13    4   31 1   
    14    5    6 1   
    15    5    7 1   
    16    5   32 1   
    17    6   41 1   
    18    6   42 1   
    19    6   43 1   
    20    7    8 1   
    21    7   44 1   
    22    7   45 1   
    23    8    9 1   
    24    8   10 1   
    25   10   11 1   
    26   10   46 1   
    27   11   12 1   
    28   11   47 1   
    29   11   48 1   
    30   12   13 1   
    31   12   49 1   
    32   12   50 1   
    33   13   33 1   
    34   13   34 1   
    35   13   35 1   
    36   14   15 1   
    37   14   27 1   
    38   15   16 1   
    39   15   51 1   
    40   16   52 1   
    41   17   18 1   
    42   17   19 1   
    43   19   27 1   
    44   20   21 1   
    45   21   22 1   
    46   21   26 1   
    47   22   23 1   
    48   22   53 1   
    49   23   54 1   
    50   24   25 1   
    51   24   55 1   
    52   25   56 1   
    53   26   57 1   
    54   27   28 1   
@<TRIPOS>SUBSTRUCTURE
     1 1LH         1 TEMP              0 ****  ****    0 ROOT
