@<TRIPOS>MOLECULE
1LH
   58    59     1     0     0
SMALL
bcc


@<TRIPOS>ATOM
      1 C1         -1.1010    0.6810   -0.4220 c3        1 1LH     -0.126100
      2 C2          0.2680    0.2220   -0.8540 c3        1 1LH     -0.112400
      3 C3          1.1110   -0.3090    0.3120 c3        1 1LH      0.202800
      4 N5          0.5040   -1.6030    0.8720 ny        1 1LH     -0.792000
      5 C8          0.2490   -1.5610    2.3570 c3        1 1LH      0.136500
      6 C10        -1.2200   -1.2620    2.6610 c3        1 1LH     -0.144100
      7 C11         0.6290   -2.8620    3.0870 c3        1 1LH     -0.191400
      8 C12         2.0710   -3.2390    2.8950 c         1 1LH      0.550100
      9 O13         2.5660   -3.7020    1.8810 o         1 1LH     -0.387100
     10 N14         3.0160   -3.0120    4.0730 ny        1 1LH     -0.669800
     11 C15         4.4410   -3.2660    3.7110 c3        1 1LH      0.067800
     12 C16         5.4360   -2.8130    4.8010 c3        1 1LH      0.089800
     13 N17         6.8160   -2.6670    4.2700 nz        1 1LH     -0.843600
     14 C21         2.5490   -0.5380   -0.0500 ca        1 1LH     -0.187300
     15 C22         2.9930   -0.5610   -1.3760 ca        1 1LH     -0.049000
     16 C23         4.3440   -0.7100   -1.6820 ca        1 1LH     -0.088000
     17 C24         5.3050   -0.8610   -0.6720 ca        1 1LH      0.059400
     18 Cl2         6.9160   -1.0670   -1.0950 cl        1 1LH      0.039600
     19 C26         4.8810   -0.8440    0.6710 ca        1 1LH      0.074100
     20 O27         5.7120   -1.1100    1.7550 os        1 1LH     -0.344200
     21 C28         6.7500   -0.1840    1.9850 ca        1 1LH      0.004100
     22 C29         8.0630   -0.6770    1.9430 ca        1 1LH     -0.165500
     23 C30         9.1080    0.1880    2.2660 ca        1 1LH     -0.089500
     24 C31         8.8440    1.5170    2.6110 ca        1 1LH     -0.087000
     25 C32         7.5310    1.9930    2.6340 ca        1 1LH     -0.089500
     26 C33         6.4680    1.1430    2.3190 ca        1 1LH     -0.165500
     27 C34         3.5140   -0.6670    0.9740 ca        1 1LH      0.081900
     28 F35         3.1290   -0.6600    2.2820 f         1 1LH     -0.195900
     29 H3          1.0650    0.4630    1.1430 hx        1 1LH      0.118700
     30 HN5        -0.3980   -1.7600    0.3920 hn        1 1LH      0.463300
     31 HN5A        1.1240   -2.3860    0.6360 hn        1 1LH      0.463300
     32 H8          0.8830   -0.7220    2.7830 hx        1 1LH      0.115700
     33 HN17        7.1460   -3.5490    3.8560 hn        1 1LH      0.491467
     34 HN1A        7.4500   -2.4150    5.0460 hn        1 1LH      0.491467
     35 HN1B        6.8680   -1.9210    3.5460 hn        1 1LH      0.491467
     36 H1         -1.0420    1.3950    0.4350 hc        1 1LH      0.067367
     37 H1A        -1.7620   -0.1740   -0.1390 hc        1 1LH      0.067367
     38 H1B        -1.5960    1.2160   -1.2760 hc        1 1LH      0.067367
     39 H2          0.1780   -0.5440   -1.6700 hc        1 1LH      0.101200
     40 H2A         0.8310    1.1020   -1.2780 hc        1 1LH      0.101200
     41 H10        -1.8890   -2.0950    2.3300 hc        1 1LH      0.103033
     42 H10A       -1.5440   -0.3150    2.1560 hc        1 1LH      0.103033
     43 H10B       -1.3490   -1.1210    3.7640 hc        1 1LH      0.103033
     44 H11         0.3560   -2.7290    4.1720 hc        1 1LH      0.151700
     45 H11A        0.0100   -3.7320    2.7060 hc        1 1LH      0.151700
     46 HN14        2.7320   -3.6290    4.8480 hn        1 1LH      0.479800
     47 H15         4.5560   -4.3740    3.5130 hx        1 1LH      0.152200
     48 H15A        4.6400   -2.7120    2.7370 hx        1 1LH      0.152200
     49 H16         5.4620   -3.5740    5.6390 hx        1 1LH      0.134200
     50 H16A        5.1380   -1.8120    5.2360 hx        1 1LH      0.134200
     51 H22         2.2770   -0.4510   -2.2120 ha        1 1LH      0.186000
     52 H23         4.6640   -0.7100   -2.7440 ha        1 1LH      0.209000
     53 H29         8.2680   -1.6970    1.5860 ha        1 1LH      0.148500
     54 H30        10.1520   -0.1700    2.2200 ha        1 1LH      0.179000
     55 H31         9.6810    2.2010    2.8430 ha        1 1LH      0.187000
     56 H32         7.3310    3.0490    2.8860 ha        1 1LH      0.179000
     57 H33         5.4340    1.5170    2.3080 ha        1 1LH      0.148500
     58 H142        2.9050   -2.0320    4.3750 hn        1 1LH      0.479800
@<TRIPOS>BOND
     1    1    2 1   
     2    1   36 1   
     3    1   37 1   
     4    1   38 1   
     5    2    3 1   
     6    2   39 1   
     7    2   40 1   
     8    3    4 1   
     9    3   14 1   
    10    3   29 1   
    11    4    5 1   
    12    4   30 1   
    13    4   31 1   
    14    5    6 1   
    15    5    7 1   
    16    5   32 1   
    17    6   41 1   
    18    6   42 1   
    19    6   43 1   
    20    7    8 1   
    21    7   44 1   
    22    7   45 1   
    23    8    9 2   
    24    8   10 1   
    25   10   11 1   
    26   10   46 1   
    27   10   58 1   
    28   11   12 1   
    29   11   47 1   
    30   11   48 1   
    31   12   13 1   
    32   12   49 1   
    33   12   50 1   
    34   13   33 1   
    35   13   34 1   
    36   13   35 1   
    37   14   15 ar  
    38   14   27 ar  
    39   15   16 ar  
    40   15   51 1   
    41   16   17 ar  
    42   16   52 1   
    43   17   18 1   
    44   17   19 ar  
    45   19   20 1   
    46   19   27 ar  
    47   20   21 1   
    48   21   22 ar  
    49   21   26 ar  
    50   22   23 ar  
    51   22   53 1   
    52   23   24 ar  
    53   23   54 1   
    54   24   25 ar  
    55   24   55 1   
    56   25   26 ar  
    57   25   56 1   
    58   26   57 1   
    59   27   28 1   
@<TRIPOS>SUBSTRUCTURE
     1 1LH         1 TEMP              0 ****  ****    0 ROOT
