@<TRIPOS>MOLECULE
1LI
   74    76     1     0     0
SMALL
bcc


@<TRIPOS>ATOM
      1 C4          0.0600    0.1440   -0.7970 c         1 1LI      0.575100
      2 C7          1.3140   -1.2100    1.6410 c3        1 1LI      0.118100
      3 C8          1.5730    1.2970    1.7460 c3        1 1LI     -0.061100
      4 C10         1.1060    3.6440    1.0680 ca        1 1LI     -0.218000
      5 C13         3.6770    3.9210   -0.0110 ca        1 1LI      0.195900
      6 C17         1.7540   -2.5170    0.9370 c3        1 1LI      0.089800
      7 C20         2.1680   -5.0120    1.1730 c3        1 1LI      0.228500
      8 C21         1.4460   -5.3630   -0.1380 c3        1 1LI     -0.103900
      9 C22        -0.0210   -5.6880    0.0510 c3        1 1LI     -0.094400
     10 C24         3.6500   -4.7940    0.9920 ca        1 1LI     -0.182300
     11 C26         6.4260   -4.5150    0.7450 ca        1 1LI     -0.084000
     12 C28         4.4540   -4.6010    2.1240 ca        1 1LI     -0.130000
     13 F16         4.9170    4.0350   -0.5300 f         1 1LI     -0.094900
     14 C14         3.2720    2.6910    0.5430 ca        1 1LI     -0.218000
     15 C12         2.8040    5.0230   -0.0320 ca        1 1LI     -0.179000
     16 C11         1.5190    4.8770    0.5170 ca        1 1LI      0.195900
     17 F15         0.6640    5.9180    0.5140 f         1 1LI     -0.094900
     18 C9          1.9890    2.5640    1.0820 ca        1 1LI     -0.105300
     19 C31         1.9280    0.0360    0.9430 c3        1 1LI      0.092500
     20 N6          1.5580    0.1750   -0.5070 n4        1 1LI     -0.692800
     21 O5         -0.4650   -0.9500   -0.6580 o         1 1LI     -0.439100
     22 C3         -0.5470    1.4270   -1.2390 c3        1 1LI     -0.196100
     23 O18         1.8310   -1.2700    2.9550 oh        1 1LI     -0.589800
     24 N19         1.5650   -3.7230    1.7770 n4        1 1LI     -0.763000
     25 C34        -0.2210   -6.8010    1.0560 c3        1 1LI     -0.094400
     26 C33         0.4690   -6.5060    2.3690 c3        1 1LI     -0.094400
     27 C32         1.9300   -6.1610    2.1800 c3        1 1LI     -0.103900
     28 C23         4.2500   -4.8340   -0.2720 ca        1 1LI     -0.122000
     29 C27         5.8450   -4.4620    2.0190 ca        1 1LI     -0.037300
     30 C25         5.6320   -4.6990   -0.3860 ca        1 1LI     -0.119000
     31 C29         6.6640   -4.2820    3.2720 c3        1 1LI     -0.019700
     32 C30         8.1520   -4.1420    2.9730 c3        1 1LI     -0.090433
     33 C2          6.2050   -3.0240    4.0050 c3        1 1LI     -0.090433
     34 C1          6.4720   -5.4960    4.1780 c3        1 1LI     -0.090433
     35 H7          0.1900   -1.1350    1.6500 h1        1 1LI      0.085700
     36 H8          2.1150    1.2240    2.7330 hc        1 1LI      0.097700
     37 H8A         0.4700    1.3120    1.9630 hc        1 1LI      0.097700
     38 H10         0.1050    3.5730    1.5210 ha        1 1LI      0.157000
     39 H17         1.1400   -2.6410   -0.0020 hx        1 1LI      0.115700
     40 H17A        2.8510   -2.4610    0.6730 hx        1 1LI      0.115700
     41 H21         1.9640   -6.2740   -0.5520 hc        1 1LI      0.085200
     42 H21A        1.5620   -4.5400   -0.8900 hc        1 1LI      0.085200
     43 H22        -0.4450   -6.0080   -0.9400 hc        1 1LI      0.057200
     44 H22A       -0.5950   -4.7750    0.3630 hc        1 1LI      0.057200
     45 H26         7.5190   -4.4270    0.6200 ha        1 1LI      0.171000
     46 H28         4.0040   -4.5860    3.1300 ha        1 1LI      0.132000
     47 H14         4.0050    1.8730    0.6030 ha        1 1LI      0.157000
     48 H12         3.1300    5.9900   -0.4530 ha        1 1LI      0.204000
     49 H31         3.0590   -0.0840    0.9650 hx        1 1LI      0.128700
     50 HN6         1.9440    1.0780   -0.8320 hn        1 1LI      0.470300
     51 H3         -1.6660    1.3150   -1.2400 hc        1 1LI      0.130367
     52 H3A        -0.2170    1.6710   -2.2840 hc        1 1LI      0.130367
     53 H3B        -0.2630    2.2740   -0.5580 hc        1 1LI      0.130367
     54 HO18        1.3280   -0.6570    3.5140 ho        1 1LI      0.457000
     55 HN19        2.0210   -3.5630    2.6880 hn        1 1LI      0.459300
     56 H34        -1.3190   -6.9530    1.2350 hc        1 1LI      0.079200
     57 H34A        0.1800   -7.7600    0.6320 hc        1 1LI      0.079200
     58 H33        -0.0680   -5.6850    2.9130 hc        1 1LI      0.057200
     59 H33A        0.4050   -7.4160    3.0290 hc        1 1LI      0.057200
     60 H32         2.3980   -5.9260    3.1720 hc        1 1LI      0.085200
     61 H32A        2.4760   -7.0530    1.7650 hc        1 1LI      0.085200
     62 H23         3.6600   -5.0040   -1.1860 ha        1 1LI      0.141000
     63 H25         6.1050   -4.7560   -1.3810 ha        1 1LI      0.162000
     64 H30         8.5430   -5.0610    2.4730 hc        1 1LI      0.045811
     65 H30A        8.7130   -4.0030    3.9300 hc        1 1LI      0.045811
     66 H30B        8.3460   -3.2560    2.3220 hc        1 1LI      0.045811
     67 H2          6.3440   -2.1240    3.3600 hc        1 1LI      0.045811
     68 H2A         6.8090   -2.8910    4.9350 hc        1 1LI      0.045811
     69 H2B         5.1300   -3.1000    4.2930 hc        1 1LI      0.045811
     70 H1          6.7900   -6.4280    3.6520 hc        1 1LI      0.045811
     71 H1A         7.0910   -5.3790    5.1000 hc        1 1LI      0.045811
     72 H1B         5.4030   -5.6010    4.4820 hc        1 1LI      0.045811
     73 H62         2.0070   -0.5850   -1.0290 hn        1 1LI      0.470300
     74 H192        0.5650   -3.8880    1.9330 hn        1 1LI      0.459300
@<TRIPOS>BOND
     1    1   20 1   
     2    1   21 2   
     3    1   22 1   
     4    2    6 1   
     5    2   19 1   
     6    2   23 1   
     7    2   35 1   
     8    3   18 1   
     9    3   19 1   
    10    3   36 1   
    11    3   37 1   
    12    4   16 ar  
    13    4   18 ar  
    14    4   38 1   
    15    5   13 1   
    16    5   14 ar  
    17    5   15 ar  
    18    6   24 1   
    19    6   39 1   
    20    6   40 1   
    21    7    8 1   
    22    7   10 1   
    23    7   24 1   
    24    7   27 1   
    25    8    9 1   
    26    8   41 1   
    27    8   42 1   
    28    9   25 1   
    29    9   43 1   
    30    9   44 1   
    31   10   12 ar  
    32   10   28 ar  
    33   11   29 ar  
    34   11   30 ar  
    35   11   45 1   
    36   12   29 ar  
    37   12   46 1   
    38   14   18 ar  
    39   14   47 1   
    40   15   16 ar  
    41   15   48 1   
    42   16   17 1   
    43   19   20 1   
    44   19   49 1   
    45   20   50 1   
    46   20   73 1   
    47   22   51 1   
    48   22   52 1   
    49   22   53 1   
    50   23   54 1   
    51   24   55 1   
    52   24   74 1   
    53   25   26 1   
    54   25   56 1   
    55   25   57 1   
    56   26   27 1   
    57   26   58 1   
    58   26   59 1   
    59   27   60 1   
    60   27   61 1   
    61   28   30 ar  
    62   28   62 1   
    63   29   31 1   
    64   30   63 1   
    65   31   32 1   
    66   31   33 1   
    67   31   34 1   
    68   32   64 1   
    69   32   65 1   
    70   32   66 1   
    71   33   67 1   
    72   33   68 1   
    73   33   69 1   
    74   34   70 1   
    75   34   71 1   
    76   34   72 1   
@<TRIPOS>SUBSTRUCTURE
     1 1LI         1 TEMP              0 ****  ****    0 ROOT
