@<TRIPOS>MOLECULE
1LI
   74    76     1     0     0
SMALL
bcc


@<TRIPOS>ATOM
      1 C4          0.0650    0.1410   -0.8070 c         1 1LI      0.575100
      2 C7          1.3140   -1.2080    1.6360 c3        1 1LI      0.118100
      3 C8          1.5720    1.2990    1.7360 c3        1 1LI     -0.061100
      4 C10         1.1070    3.6450    1.0530 ca        1 1LI     -0.218000
      5 C13         3.6800    3.9210   -0.0220 ca        1 1LI      0.195900
      6 C17         1.7540   -2.5160    0.9350 c3        1 1LI      0.089800
      7 C20         2.1690   -5.0110    1.1760 c3        1 1LI      0.228500
      8 C21         1.4490   -5.3640   -0.1360 c3        1 1LI     -0.103900
      9 C22        -0.0180   -5.6880    0.0510 c3        1 1LI     -0.094400
     10 C24         3.6510   -4.7930    0.9980 ca        1 1LI     -0.182300
     11 C26         6.4280   -4.5150    0.7570 ca        1 1LI     -0.084000
     12 C28         4.4530   -4.5990    2.1320 ca        1 1LI     -0.130000
     13 F16         4.9200    4.0340   -0.5380 f         1 1LI     -0.094900
     14 C14         3.2740    2.6910    0.5330 ca        1 1LI     -0.218000
     15 C12         2.8070    5.0220   -0.0460 ca        1 1LI     -0.179000
     16 C11         1.5210    4.8770    0.5000 ca        1 1LI      0.195900
     17 F15         0.6650    5.9180    0.4940 f         1 1LI     -0.094900
     18 C9          1.9900    2.5650    1.0710 ca        1 1LI     -0.105300
     19 C31         1.9300    0.0370    0.9370 c3        1 1LI      0.092500
     20 N6          1.5620    0.1730   -0.5140 ny        1 1LI     -0.692800
     21 O5         -0.4610   -0.9530   -0.6680 o         1 1LI     -0.439100
     22 C3         -0.5410    1.4230   -1.2520 c3        1 1LI     -0.196100
     23 O18         1.8280   -1.2660    2.9510 oh        1 1LI     -0.589800
     24 N19         1.5650   -3.7210    1.7770 ny        1 1LI     -0.763000
     25 C34        -0.2210   -6.7990    1.0580 c3        1 1LI     -0.094400
     26 C33         0.4670   -6.5030    2.3720 c3        1 1LI     -0.094400
     27 C32         1.9270   -6.1580    2.1850 c3        1 1LI     -0.103900
     28 C23         4.2530   -4.8360   -0.2640 ca        1 1LI     -0.122000
     29 C27         5.8430   -4.4600    2.0300 ca        1 1LI     -0.037300
     30 C25         5.6360   -4.7000   -0.3760 ca        1 1LI     -0.119000
     31 C29         6.6600   -4.2790    3.2840 c3        1 1LI     -0.019700
     32 C30         8.1490   -4.1400    2.9880 c3        1 1LI     -0.090433
     33 C2          6.1990   -3.0210    4.0140 c3        1 1LI     -0.090433
     34 C1          6.4650   -5.4920    4.1910 c3        1 1LI     -0.090433
     35 H7          0.1890   -1.1320    1.6420 h1        1 1LI      0.085700
     36 H8          0.4700    1.3140    1.9520 hc        1 1LI      0.097700
     37 H8A         2.1130    1.2280    2.7240 hc        1 1LI      0.097700
     38 H10         0.1040    3.5750    1.5040 ha        1 1LI      0.157000
     39 H17         2.8520   -2.4610    0.6730 hx        1 1LI      0.115700
     40 H17A        1.1420   -2.6420   -0.0040 hx        1 1LI      0.115700
     41 H21         1.5670   -4.5430   -0.8890 hc        1 1LI      0.085200
     42 H21A        1.9680   -6.2750   -0.5460 hc        1 1LI      0.085200
     43 H22        -0.4410   -6.0090   -0.9400 hc        1 1LI      0.057200
     44 H22A       -0.5930   -4.7750    0.3600 hc        1 1LI      0.057200
     45 H26         7.5210   -4.4280    0.6340 ha        1 1LI      0.171000
     46 H28         4.0000   -4.5820    3.1370 ha        1 1LI      0.132000
     47 H14         4.0060    1.8740    0.5970 ha        1 1LI      0.157000
     48 H12         3.1330    5.9880   -0.4680 ha        1 1LI      0.204000
     49 H31         3.0600   -0.0830    0.9610 hx        1 1LI      0.128700
     50 HN6         2.0120   -0.5880   -1.0340 hn        1 1LI      0.470300
     51 H3         -1.6600    1.3110   -1.2560 hc        1 1LI      0.130367
     52 H3A        -0.2590    2.2710   -0.5730 hc        1 1LI      0.130367
     53 H3B        -0.2100    1.6650   -2.2980 hc        1 1LI      0.130367
     54 HO18        1.3250   -0.6520    3.5080 ho        1 1LI      0.457000
     55 HN19        0.5640   -3.8860    1.9320 hn        1 1LI      0.459300
     56 H34         0.1810   -7.7600    0.6360 hc        1 1LI      0.079200
     57 H34A       -1.3190   -6.9510    1.2340 hc        1 1LI      0.079200
     58 H33         0.4000   -7.4110    3.0330 hc        1 1LI      0.057200
     59 H33A       -0.0720   -5.6800    2.9130 hc        1 1LI      0.057200
     60 H32         2.3930   -5.9210    3.1780 hc        1 1LI      0.085200
     61 H32A        2.4740   -7.0510    1.7730 hc        1 1LI      0.085200
     62 H23         3.6660   -5.0070   -1.1790 ha        1 1LI      0.141000
     63 H25         6.1110   -4.7590   -1.3690 ha        1 1LI      0.162000
     64 H30         8.7070   -3.9990    3.9460 hc        1 1LI      0.045811
     65 H30A        8.5410   -5.0590    2.4900 hc        1 1LI      0.045811
     66 H30B        8.3440   -3.2540    2.3370 hc        1 1LI      0.045811
     67 H2          6.3400   -2.1210    3.3690 hc        1 1LI      0.045811
     68 H2A         6.8020   -2.8870    4.9460 hc        1 1LI      0.045811
     69 H2B         5.1230   -3.0960    4.3010 hc        1 1LI      0.045811
     70 H1          7.0840   -5.3740    5.1140 hc        1 1LI      0.045811
     71 H1A         5.3970   -5.5960    4.4930 hc        1 1LI      0.045811
     72 H1B         6.7850   -6.4240    3.6670 hc        1 1LI      0.045811
     73 H62         1.9480    1.0750   -0.8410 hn        1 1LI      0.470300
     74 H192        2.0190   -3.5590    2.6880 hn        1 1LI      0.459300
@<TRIPOS>BOND
     1    1   20 1   
     2    1   21 2   
     3    1   22 1   
     4    2    6 1   
     5    2   19 1   
     6    2   23 1   
     7    2   35 1   
     8    3   18 1   
     9    3   19 1   
    10    3   36 1   
    11    3   37 1   
    12    4   16 ar  
    13    4   18 ar  
    14    4   38 1   
    15    5   13 1   
    16    5   14 ar  
    17    5   15 ar  
    18    6   24 1   
    19    6   39 1   
    20    6   40 1   
    21    7    8 1   
    22    7   10 1   
    23    7   24 1   
    24    7   27 1   
    25    8    9 1   
    26    8   41 1   
    27    8   42 1   
    28    9   25 1   
    29    9   43 1   
    30    9   44 1   
    31   10   12 ar  
    32   10   28 ar  
    33   11   29 ar  
    34   11   30 ar  
    35   11   45 1   
    36   12   29 ar  
    37   12   46 1   
    38   14   18 ar  
    39   14   47 1   
    40   15   16 ar  
    41   15   48 1   
    42   16   17 1   
    43   19   20 1   
    44   19   49 1   
    45   20   50 1   
    46   20   73 1   
    47   22   51 1   
    48   22   52 1   
    49   22   53 1   
    50   23   54 1   
    51   24   55 1   
    52   24   74 1   
    53   25   26 1   
    54   25   56 1   
    55   25   57 1   
    56   26   27 1   
    57   26   58 1   
    58   26   59 1   
    59   27   60 1   
    60   27   61 1   
    61   28   30 ar  
    62   28   62 1   
    63   29   31 1   
    64   30   63 1   
    65   31   32 1   
    66   31   33 1   
    67   31   34 1   
    68   32   64 1   
    69   32   65 1   
    70   32   66 1   
    71   33   67 1   
    72   33   68 1   
    73   33   69 1   
    74   34   70 1   
    75   34   71 1   
    76   34   72 1   
@<TRIPOS>SUBSTRUCTURE
     1 1LI         1 TEMP              0 ****  ****    0 ROOT
