@<TRIPOS>MOLECULE
1LI
   72    68     1     0     0
SMALL
bcc


@<TRIPOS>ATOM
      1 C4         -2.5680    2.7610   -2.7690 c1        1 1LI      0.306000
      2 C7         -1.9450    1.1020    0.4670 c3        1 1LI      0.003000
      3 C8         -2.1430    3.5780    0.4520 c3        1 1LI     -0.146000
      4 C10        -2.6240    5.8570   -0.4180 c1        1 1LI     -0.187000
      5 C13         0.0820    6.3900   -0.8300 c1        1 1LI      0.124000
      6 C17        -0.9280    0.0740   -0.0410 c3        1 1LI     -0.112000
      7 C20        -0.2390   -2.2490    0.1350 c3        1 1LI      0.074000
      8 C21        -0.9150   -2.6150   -1.2560 c3        1 1LI     -0.145000
      9 C22        -2.3980   -2.9210   -1.1370 c3        1 1LI     -0.145000
     10 C24         1.0840   -2.0090    0.0010 c2        1 1LI     -0.111000
     11 C26         3.8350   -1.8560   -0.4050 c1        1 1LI     -0.129500
     12 C28         1.9650   -2.3920    1.0150 c2        1 1LI     -0.133000
     13 F16         1.3410    6.8610   -0.7920 f         1 1LI     -0.098000
     14 C14        -0.3340    5.0970   -0.5100 c1        1 1LI     -0.177000
     15 C12        -0.8560    7.4160   -0.9430 c2        1 1LI     -0.210000
     16 C11        -2.2090    7.1500   -0.7370 c1        1 1LI      0.119000
     17 F15        -3.1180    8.1360   -0.8670 f         1 1LI     -0.101000
     18 C9         -1.6880    4.8320   -0.3040 c1        1 1LI     -0.017000
     19 C31        -1.8810    2.3500   -0.4010 c3        1 1LI      0.003000
     20 N6         -2.8650    2.2660   -1.4260 n2        1 1LI     -0.383000
     21 O5         -1.5290    3.3740   -2.9800 o         1 1LI     -0.371000
     22 C3         -3.6180    2.6100   -3.8950 c3        1 1LI     -0.242000
     23 O18        -1.6480    1.4360    1.7880 oh        1 1LI     -0.328000
     24 N19        -0.9580   -1.1100    0.8200 n3        1 1LI     -0.283000
     25 C34        -2.7410   -3.2270    0.1410 c3        1 1LI     -0.150000
     26 C33        -1.9910   -3.9730    1.0000 c3        1 1LI     -0.145000
     27 C32        -0.5240   -3.6640    0.8630 c3        1 1LI     -0.145000
     28 C23         1.5800   -1.5510   -1.2120 c1        1 1LI     -0.121000
     29 C27         3.3420   -2.3140    0.8070 c1        1 1LI     -0.060000
     30 C25         2.9540   -1.4740   -1.4170 c1        1 1LI     -0.129500
     31 C29         4.3380   -2.7880    1.9330 c3        1 1LI     -0.017000
     32 C30         3.5650   -3.5250    3.0170 c3        1 1LI     -0.203667
     33 C2          5.3750   -3.7150    1.3290 c3        1 1LI     -0.203667
     34 C1          5.0470   -1.5460    2.5550 c3        1 1LI     -0.203667
     35 H7         -2.8460    0.7190    0.4230 h1        1 1LI      0.123000
     36 H8         -3.1010    3.6430    0.6450 hc        1 1LI      0.111500
     37 H8A        -1.6440    3.5040    1.2920 hc        1 1LI      0.111500
     38 H10        -3.5870    5.6680   -0.2710 ha        1 1LI      0.149000
     39 H17        -1.1510   -0.1790   -0.9430 h1        1 1LI      0.093000
     40 H17A       -0.0410    0.4630   -0.0240 h1        1 1LI      0.093000
     41 H21        -0.4650   -3.3910   -1.6290 hc        1 1LI      0.085000
     42 H21A       -0.7980   -1.8490   -1.8770 hc        1 1LI      0.085000
     43 H22        -2.6170   -3.6810   -1.7190 hc        1 1LI      0.075000
     44 H22A       -2.9050   -2.1450   -1.4240 hc        1 1LI      0.075000
     45 H26         4.7850   -1.8030   -0.5480 ha        1 1LI      0.132500
     46 H28         1.6170   -2.7160    1.8700 ha        1 1LI      0.135000
     47 H14         0.3330    4.3910   -0.3580 ha        1 1LI      0.156000
     48 H12        -0.5610    8.3350   -1.1700 ha        1 1LI      0.166000
     49 H31        -0.9850    2.4190   -0.8100 h1        1 1LI      0.125000
     50 HN6        -3.6850    1.8970   -1.2440 hn        1 1LI      0.224000
     51 H3         -4.2720    3.3430   -3.8340 hc        1 1LI      0.107000
     52 H3A        -3.1660    2.6430   -4.7760 hc        1 1LI      0.107000
     53 H3B        -4.0800    1.7530   -3.7970 hc        1 1LI      0.107000
     54 HO18       -0.7740    1.4280    1.9030 ho        1 1LI      0.205000
     55 HN19       -0.5450   -0.9210    1.6120 hn        1 1LI      0.159000
     56 H34        -2.8920   -2.3620    0.5930 hc        1 1LI      0.082000
     57 H34A       -3.6190   -3.6760    0.0860 hc        1 1LI      0.082000
     58 H33        -2.1400   -4.9390    0.8070 hc        1 1LI      0.075000
     59 H33A       -2.2750   -3.7810    1.9260 hc        1 1LI      0.075000
     60 H32        -0.1020   -4.3720    0.3460 hc        1 1LI      0.085000
     61 H32A       -0.1250   -3.6440    1.7490 hc        1 1LI      0.085000
     62 H23         0.9610   -1.2820   -1.9230 ha        1 1LI      0.140000
     63 H25         3.3070   -1.1460   -2.2840 ha        1 1LI      0.132500
     64 H30         2.8980   -2.9390    3.3900 hc        1 1LI      0.076222
     65 H30A        4.1860   -3.8110    3.7280 hc        1 1LI      0.076222
     66 H30B        3.1230   -4.3190    2.6260 hc        1 1LI      0.076222
     67 H2          4.9260   -4.3900    0.7760 hc        1 1LI      0.076222
     68 H2A         5.9910   -3.1980    0.7770 hc        1 1LI      0.076222
     69 H2B         5.8750   -4.1600    2.0470 hc        1 1LI      0.076222
     70 H1          4.3800   -0.8730    2.7840 hc        1 1LI      0.076222
     71 H1A         5.5270   -1.8140    3.3610 hc        1 1LI      0.076222
     72 H1B         5.6790   -1.1730    1.9070 hc        1 1LI      0.076222
@<TRIPOS>BOND
     1    1   21 1   
     2    1   22 1   
     3    2    6 1   
     4    2   19 1   
     5    2   23 1   
     6    2   35 1   
     7    3   18 1   
     8    3   19 1   
     9    3   36 1   
    10    3   37 1   
    11    4   18 1   
    12    4   38 1   
    13    5   14 1   
    14    5   15 1   
    15    6   24 1   
    16    6   39 1   
    17    6   40 1   
    18    7    8 1   
    19    7   10 1   
    20    7   24 1   
    21    7   27 1   
    22    8    9 1   
    23    8   41 1   
    24    8   42 1   
    25    9   25 1   
    26    9   43 1   
    27    9   44 1   
    28   10   12 1   
    29   10   28 1   
    30   11   30 1   
    31   11   45 1   
    32   12   29 1   
    33   12   46 1   
    34   14   47 1   
    35   15   16 1   
    36   15   48 1   
    37   16   17 1   
    38   19   20 1   
    39   19   49 1   
    40   20   50 1   
    41   22   51 1   
    42   22   52 1   
    43   22   53 1   
    44   23   54 1   
    45   24   55 1   
    46   25   26 1   
    47   25   56 1   
    48   25   57 1   
    49   26   27 1   
    50   26   58 1   
    51   26   59 1   
    52   27   60 1   
    53   27   61 1   
    54   28   62 1   
    55   29   31 1   
    56   30   63 1   
    57   31   32 1   
    58   31   33 1   
    59   31   34 1   
    60   32   64 1   
    61   32   65 1   
    62   32   66 1   
    63   33   67 1   
    64   33   68 1   
    65   33   69 1   
    66   34   70 1   
    67   34   71 1   
    68   34   72 1   
@<TRIPOS>SUBSTRUCTURE
     1 1LI         1 TEMP              0 ****  ****    0 ROOT
