@<TRIPOS>MOLECULE
1LI
   72    74     1     0     0
SMALL
bcc


@<TRIPOS>ATOM
      1 C4          2.7080    2.7260    0.1710 c         1 1LI      0.655100
      2 C7          0.2840    0.9120    0.9730 c3        1 1LI      0.109100
      3 C8          2.4940   -0.2630    1.0660 c3        1 1LI     -0.077100
      4 C10         4.9090   -0.5290    0.4820 ca        1 1LI     -0.186000
      5 C13         4.3150   -2.6450   -1.2490 ca        1 1LI      0.153900
      6 C17        -0.7360    1.6640    0.0980 c3        1 1LI      0.134800
      7 C20        -3.1910    1.6000   -0.1230 c3        1 1LI      0.235500
      8 C21        -3.2820    2.6460   -1.2580 c3        1 1LI     -0.063400
      9 C22        -3.4890    4.0510   -0.7310 c3        1 1LI     -0.072400
     10 C24        -3.1730    0.1840   -0.6990 ca        1 1LI     -0.110300
     11 C26        -3.1360   -2.4630   -1.6370 ca        1 1LI     -0.129000
     12 C28        -3.1320   -0.8960    0.1920 ca        1 1LI     -0.144000
     13 F16         4.0190   -3.6690   -2.0840 f         1 1LI     -0.135400
     14 C14         3.2830   -1.9970   -0.5490 ca        1 1LI     -0.186000
     15 C12         5.6530   -2.2440   -1.0940 ca        1 1LI     -0.213000
     16 C11         5.9380   -1.1830   -0.2210 ca        1 1LI      0.153900
     17 F15         7.2210   -0.7830   -0.0550 f         1 1LI     -0.135400
     18 C9          3.5840   -0.9380    0.3120 ca        1 1LI     -0.024300
     19 C31         1.5410    0.5230    0.1420 c3        1 1LI      0.094700
     20 N6          2.1590    1.6520   -0.5110 n         1 1LI     -0.568900
     21 O5          2.5850    2.8510    1.4050 o         1 1LI     -0.606100
     22 C3          3.4310    3.7630   -0.6550 c3        1 1LI     -0.177100
     23 O18        -0.2830   -0.2560    1.5400 oh        1 1LI     -0.603800
     24 N19        -2.0240    1.8670    0.7320 n3        1 1LI     -0.806200
     25 C34        -4.7460    4.1420    0.1080 c3        1 1LI     -0.073400
     26 C33        -4.7260    3.1240    1.2290 c3        1 1LI     -0.072400
     27 C32        -4.5000    1.7230    0.7050 c3        1 1LI     -0.063400
     28 C23        -3.1830   -0.0800   -2.0720 ca        1 1LI     -0.129000
     29 C27        -3.1110   -2.2230   -0.2580 ca        1 1LI     -0.065300
     30 C25        -3.1710   -1.3950   -2.5310 ca        1 1LI     -0.132000
     31 C29        -3.0570   -3.3380    0.7540 c3        1 1LI     -0.011700
     32 C30        -3.0220   -4.7140    0.0990 c3        1 1LI     -0.087767
     33 C2         -1.8000   -3.1850    1.6080 c3        1 1LI     -0.087767
     34 C1         -4.2880   -3.2680    1.6530 c3        1 1LI     -0.087767
     35 H7          0.5940    1.5370    1.8600 h1        1 1LI      0.117700
     36 H8          1.8830   -1.0360    1.6090 hc        1 1LI      0.086700
     37 H8A         2.9150    0.4380    1.8370 hc        1 1LI      0.086700
     38 H10         5.1590    0.2960    1.1670 ha        1 1LI      0.155500
     39 H17        -0.3250    2.6900   -0.1220 h1        1 1LI      0.047700
     40 H17A       -0.8320    1.1150   -0.8840 h1        1 1LI      0.047700
     41 H21        -2.3510    2.6150   -1.8810 hc        1 1LI      0.042200
     42 H21A       -4.1530    2.3730   -1.9100 hc        1 1LI      0.042200
     43 H22        -2.6040    4.3650   -0.1190 hc        1 1LI      0.045700
     44 H22A       -3.5670    4.7570   -1.5990 hc        1 1LI      0.045700
     45 H26        -3.1280   -3.4890   -2.0330 ha        1 1LI      0.136000
     46 H28        -3.1170   -0.7020    1.2780 ha        1 1LI      0.138000
     47 H14         2.2450   -2.3350   -0.6780 ha        1 1LI      0.155500
     48 H12         6.4580   -2.7540   -1.6400 ha        1 1LI      0.165000
     49 H31         1.1980   -0.1790   -0.6790 h1        1 1LI      0.049700
     50 HN6         2.4200    1.5200   -1.4590 hn        1 1LI      0.310500
     51 H3          2.7420    4.2110   -1.4110 hc        1 1LI      0.067700
     52 H3A         3.7970    4.5710    0.0250 hc        1 1LI      0.067700
     53 H3B         4.3050    3.3080   -1.1810 hc        1 1LI      0.067700
     54 HO18       -0.6730   -0.7760    0.8230 ho        1 1LI      0.404000
     55 HN19       -2.0940    1.3180    1.5710 hn        1 1LI      0.370800
     56 H34        -4.8370    5.1730    0.5380 hc        1 1LI      0.036200
     57 H34A       -5.6440    3.9670   -0.5410 hc        1 1LI      0.036200
     58 H33        -3.9210    3.3920    1.9620 hc        1 1LI      0.045700
     59 H33A       -5.7040    3.1540    1.7780 hc        1 1LI      0.045700
     60 H32        -5.3490    1.4290    0.0340 hc        1 1LI      0.042200
     61 H32A       -4.4810    1.0020    1.5630 hc        1 1LI      0.042200
     62 H23        -3.1990    0.7360   -2.8100 ha        1 1LI      0.136000
     63 H25        -3.1880   -1.5930   -3.6140 ha        1 1LI      0.131000
     64 H30        -2.1230   -4.8180   -0.5530 hc        1 1LI      0.038478
     65 H30A       -2.9780   -5.5040    0.8880 hc        1 1LI      0.038478
     66 H30B       -3.9400   -4.8820   -0.5130 hc        1 1LI      0.038478
     67 H2         -1.8140   -2.2190    2.1690 hc        1 1LI      0.038478
     68 H2A        -1.7370   -4.0210    2.3440 hc        1 1LI      0.038478
     69 H2B        -0.8890   -3.2070    0.9630 hc        1 1LI      0.038478
     70 H1         -5.2170   -3.3740    1.0440 hc        1 1LI      0.038478
     71 H1A        -4.2560   -4.0930    2.4050 hc        1 1LI      0.038478
     72 H1B        -4.3250   -2.2950    2.1970 hc        1 1LI      0.038478
@<TRIPOS>BOND
     1    1   20 1   
     2    1   21 2   
     3    1   22 1   
     4    2    6 1   
     5    2   19 1   
     6    2   23 1   
     7    2   35 1   
     8    3   18 1   
     9    3   19 1   
    10    3   36 1   
    11    3   37 1   
    12    4   16 ar  
    13    4   18 ar  
    14    4   38 1   
    15    5   13 1   
    16    5   14 ar  
    17    5   15 ar  
    18    6   24 1   
    19    6   39 1   
    20    6   40 1   
    21    7    8 1   
    22    7   10 1   
    23    7   24 1   
    24    7   27 1   
    25    8    9 1   
    26    8   41 1   
    27    8   42 1   
    28    9   25 1   
    29    9   43 1   
    30    9   44 1   
    31   10   12 ar  
    32   10   28 ar  
    33   11   29 ar  
    34   11   30 ar  
    35   11   45 1   
    36   12   29 ar  
    37   12   46 1   
    38   14   18 ar  
    39   14   47 1   
    40   15   16 ar  
    41   15   48 1   
    42   16   17 1   
    43   19   20 1   
    44   19   49 1   
    45   20   50 1   
    46   22   51 1   
    47   22   52 1   
    48   22   53 1   
    49   23   54 1   
    50   24   55 1   
    51   25   26 1   
    52   25   56 1   
    53   25   57 1   
    54   26   27 1   
    55   26   58 1   
    56   26   59 1   
    57   27   60 1   
    58   27   61 1   
    59   28   30 ar  
    60   28   62 1   
    61   29   31 1   
    62   30   63 1   
    63   31   32 1   
    64   31   33 1   
    65   31   34 1   
    66   32   64 1   
    67   32   65 1   
    68   32   66 1   
    69   33   67 1   
    70   33   68 1   
    71   33   69 1   
    72   34   70 1   
    73   34   71 1   
    74   34   72 1   
@<TRIPOS>SUBSTRUCTURE
     1 1LI         1 TEMP              0 ****  ****    0 ROOT
