@<TRIPOS>MOLECULE
1LI
   74    76     1     0     0
SMALL
bcc


@<TRIPOS>ATOM
      1 C4          0.0430    0.1430   -0.7800 c         1 1LI      0.575100
      2 C7          1.3160   -1.2120    1.6490 c3        1 1LI      0.118100
      3 C8          1.5720    1.2960    1.7530 c3        1 1LI     -0.061100
      4 C10         1.0980    3.6430    1.0810 ca        1 1LI     -0.218000
      5 C13         3.6610    3.9250   -0.0170 ca        1 1LI      0.195900
      6 C17         1.7520   -2.5170    0.9410 c3        1 1LI      0.089800
      7 C20         2.1730   -5.0110    1.1730 c3        1 1LI      0.228500
      8 C21         1.4460   -5.3610   -0.1360 c3        1 1LI     -0.103900
      9 C22        -0.0200   -5.6880    0.0580 c3        1 1LI     -0.094400
     10 C24         3.6540   -4.7920    0.9860 ca        1 1LI     -0.182300
     11 C26         6.4280   -4.5090    0.7290 ca        1 1LI     -0.084000
     12 C28         4.4620   -4.6010    2.1160 ca        1 1LI     -0.130000
     13 F16         4.8970    4.0410   -0.5440 f         1 1LI     -0.094900
     14 C14         3.2610    2.6930    0.5390 ca        1 1LI     -0.218000
     15 C12         2.7860    5.0250   -0.0300 ca        1 1LI     -0.179000
     16 C11         1.5050    4.8760    0.5280 ca        1 1LI      0.195900
     17 F15         0.6490    5.9170    0.5320 f         1 1LI     -0.094900
     18 C9          1.9820    2.5640    1.0880 ca        1 1LI     -0.105300
     19 C31         1.9240    0.0360    0.9470 c3        1 1LI      0.092500
     20 N6          1.5430    0.1750   -0.5000 n4        1 1LI     -0.692800
     21 O5         -0.4790   -0.9520   -0.6390 o         1 1LI     -0.439100
     22 C3         -0.5690    1.4250   -1.2150 c3        1 1LI     -0.196100
     23 O18         1.8420   -1.2720    2.9590 oh        1 1LI     -0.588800
     24 N19         1.5710   -3.7240    1.7810 n4        1 1LI     -0.763000
     25 C34        -0.2150   -6.8030    1.0620 c3        1 1LI     -0.094400
     26 C33         0.4800   -6.5100    2.3730 c3        1 1LI     -0.094400
     27 C32         1.9390   -6.1620    2.1790 c3        1 1LI     -0.103900
     28 C23         4.2490   -4.8290   -0.2800 ca        1 1LI     -0.122000
     29 C27         5.8520   -4.4590    2.0060 ca        1 1LI     -0.037300
     30 C25         5.6300   -4.6910   -0.3990 ca        1 1LI     -0.119000
     31 C29         6.6760   -4.2820    3.2560 c3        1 1LI     -0.019700
     32 C30         8.1620   -4.1390    2.9510 c3        1 1LI     -0.090433
     33 C2          6.2180   -3.0270    3.9940 c3        1 1LI     -0.090433
     34 C1          6.4890   -5.4980    4.1590 c3        1 1LI     -0.090433
     35 H7          0.1920   -1.1370    1.6650 h1        1 1LI      0.085700
     36 H8          0.4720    1.3090    1.9790 hc        1 1LI      0.097700
     37 H8A         2.1220    1.2220    2.7360 hc        1 1LI      0.097700
     38 H10         0.1000    3.5700    1.5410 ha        1 1LI      0.157000
     39 H17         2.8480   -2.4600    0.6700 hx        1 1LI      0.115700
     40 H17A        1.1320   -2.6410    0.0060 hx        1 1LI      0.115700
     41 H21         1.9640   -6.2710   -0.5530 hc        1 1LI      0.085200
     42 H21A        1.5580   -4.5380   -0.8880 hc        1 1LI      0.085200
     43 H22        -0.4480   -6.0070   -0.9320 hc        1 1LI      0.057200
     44 H22A       -0.5940   -4.7760    0.3730 hc        1 1LI      0.057200
     45 H26         7.5210   -4.4200    0.6000 ha        1 1LI      0.171000
     46 H28         4.0150   -4.5880    3.1240 ha        1 1LI      0.132000
     47 H14         3.9950    1.8760    0.5940 ha        1 1LI      0.157000
     48 H12         3.1070    5.9930   -0.4520 ha        1 1LI      0.204000
     49 H31         3.0550   -0.0830    0.9610 hx        1 1LI      0.128700
     50 HN6         1.9250    1.0800   -0.8270 hn        1 1LI      0.470300
     51 H3         -0.2470    1.6710   -2.2630 hc        1 1LI      0.130367
     52 H3A        -1.6870    1.3110   -1.2090 hc        1 1LI      0.130367
     53 H3B        -0.2810    2.2720   -0.5360 hc        1 1LI      0.130367
     54 HO18        1.3420   -0.6600    3.5220 ho        1 1LI      0.457000
     55 HN19        0.5720   -3.8910    1.9420 hn        1 1LI      0.459300
     56 H34         0.1850   -7.7610    0.6340 hc        1 1LI      0.079200
     57 H34A       -1.3120   -6.9560    1.2440 hc        1 1LI      0.079200
     58 H33         0.4180   -7.4200    3.0320 hc        1 1LI      0.057200
     59 H33A       -0.0560   -5.6900    2.9200 hc        1 1LI      0.057200
     60 H32         2.4850   -7.0530    1.7600 hc        1 1LI      0.085200
     61 H32A        2.4100   -5.9280    3.1700 hc        1 1LI      0.085200
     62 H23         3.6560   -4.9970   -1.1920 ha        1 1LI      0.141000
     63 H25         6.0990   -4.7460   -1.3960 ha        1 1LI      0.162000
     64 H30         8.7270   -4.0020    3.9060 hc        1 1LI      0.045811
     65 H30A        8.5530   -5.0560    2.4480 hc        1 1LI      0.045811
     66 H30B        8.3520   -3.2510    2.3030 hc        1 1LI      0.045811
     67 H2          5.1440   -3.1050    4.2860 hc        1 1LI      0.045811
     68 H2A         6.3540   -2.1250    3.3510 hc        1 1LI      0.045811
     69 H2B         6.8260   -2.8960    4.9220 hc        1 1LI      0.045811
     70 H1          7.1120   -5.3830    5.0790 hc        1 1LI      0.045811
     71 H1A         5.4210   -5.6060    4.4680 hc        1 1LI      0.045811
     72 H1B         6.8060   -6.4290    3.6300 hc        1 1LI      0.045811
     73 H62         1.9900   -0.5840   -1.0260 hn        1 1LI      0.470300
     74 H192        2.0310   -3.5640    2.6890 hn        1 1LI      0.459300
@<TRIPOS>BOND
     1    1   20 1   
     2    1   21 2   
     3    1   22 1   
     4    2    6 1   
     5    2   19 1   
     6    2   23 1   
     7    2   35 1   
     8    3   18 1   
     9    3   19 1   
    10    3   36 1   
    11    3   37 1   
    12    4   16 ar  
    13    4   18 ar  
    14    4   38 1   
    15    5   13 1   
    16    5   14 ar  
    17    5   15 ar  
    18    6   24 1   
    19    6   39 1   
    20    6   40 1   
    21    7    8 1   
    22    7   10 1   
    23    7   24 1   
    24    7   27 1   
    25    8    9 1   
    26    8   41 1   
    27    8   42 1   
    28    9   25 1   
    29    9   43 1   
    30    9   44 1   
    31   10   12 ar  
    32   10   28 ar  
    33   11   29 ar  
    34   11   30 ar  
    35   11   45 1   
    36   12   29 ar  
    37   12   46 1   
    38   14   18 ar  
    39   14   47 1   
    40   15   16 ar  
    41   15   48 1   
    42   16   17 1   
    43   19   20 1   
    44   19   49 1   
    45   20   50 1   
    46   20   73 1   
    47   22   51 1   
    48   22   52 1   
    49   22   53 1   
    50   23   54 1   
    51   24   55 1   
    52   24   74 1   
    53   25   26 1   
    54   25   56 1   
    55   25   57 1   
    56   26   27 1   
    57   26   58 1   
    58   26   59 1   
    59   27   60 1   
    60   27   61 1   
    61   28   30 ar  
    62   28   62 1   
    63   29   31 1   
    64   30   63 1   
    65   31   32 1   
    66   31   33 1   
    67   31   34 1   
    68   32   64 1   
    69   32   65 1   
    70   32   66 1   
    71   33   67 1   
    72   33   68 1   
    73   33   69 1   
    74   34   70 1   
    75   34   71 1   
    76   34   72 1   
@<TRIPOS>SUBSTRUCTURE
     1 1LI         1 TEMP              0 ****  ****    0 ROOT
