@<TRIPOS>MOLECULE
1LJ
   46    48     1     0     0
SMALL
bcc


@<TRIPOS>ATOM
      1 C4         -0.0970    0.0660   -0.2690 ca        1 1LJ     -0.403500
      2 C5          1.2890    0.0640   -0.4840 ca        1 1LJ     -0.015000
      3 C6          2.1800    0.0630    0.5860 ca        1 1LJ     -0.153000
      4 C10        -1.4130   -1.5500   -1.8200 ca        1 1LJ     -0.326500
      5 C13        -1.9040   -4.2680   -2.3480 ca        1 1LJ      0.063600
      6 C15        -0.6240   -2.2510   -2.7380 ca        1 1LJ      0.005000
      7 C17        -2.8920   -6.4890   -1.9550 c         1 1LJ      0.642100
      8 C20        -3.7990   -8.0250   -3.7440 c3        1 1LJ      0.211100
      9 C21        -4.0520   -9.4320   -4.0960 ca        1 1LJ     -0.422600
     10 C22        -5.2100  -10.1010   -3.6540 ca        1 1LJ     -0.003000
     11 C24        -4.4900  -12.0600   -4.9060 ca        1 1LJ      0.731200
     12 C26        -3.1740  -10.1410   -4.9480 ca        1 1LJ      0.502200
     13 C1          1.6950    0.0690    1.8950 ca        1 1LJ     -0.053000
     14 C2          0.3190    0.0810    2.1270 ca        1 1LJ     -0.153000
     15 C3         -0.5660    0.0820    1.0530 ca        1 1LJ     -0.015000
     16 S7         -1.1580    0.1220   -1.5510 sy        1 1LJ      1.440600
     17 O8         -2.3820    0.6710   -1.1500 o         1 1LJ     -0.643300
     18 O9         -0.5240    0.6340   -2.6890 o         1 1LJ     -0.643300
     19 C11        -2.4480   -2.2270   -1.1750 ca        1 1LJ      0.005000
     20 C12        -2.7040   -3.5750   -1.4230 ca        1 1LJ     -0.166500
     21 C14        -0.8500   -3.5950   -3.0080 ca        1 1LJ     -0.166500
     22 N16        -2.1220   -5.6320   -2.6900 n         1 1LJ     -0.423100
     23 O18        -3.5400   -6.2810   -0.9230 o         1 1LJ     -0.488100
     24 N19        -3.0130   -7.9300   -2.4580 n4        1 1LJ     -0.680800
     25 C23        -5.4420  -11.4030   -4.0430 ca        1 1LJ     -0.323300
     26 N25        -3.3530  -11.3960   -5.3480 nb        1 1LJ     -0.730000
     27 N27        -4.6920  -13.3520   -5.2930 nh        1 1LJ     -0.934500
     28 H1          1.6740    0.0850   -1.5190 ha        1 1LJ      0.153000
     29 H2          3.2650    0.0680    0.3980 ha        1 1LJ      0.150000
     30 H3          0.1850   -1.7190   -3.2740 ha        1 1LJ      0.174000
     31 H4         -3.2010   -7.5040   -4.5450 hx        1 1LJ      0.102200
     32 H5         -4.7640   -7.4630   -3.5780 hx        1 1LJ      0.102200
     33 H6         -5.9370   -9.5820   -3.0080 ha        1 1LJ      0.145000
     34 H7         -2.2620   -9.6560   -5.3490 h4        1 1LJ      0.022100
     35 H8          2.3980    0.0740    2.7430 ha        1 1LJ      0.147000
     36 H9         -0.0670    0.1010    3.1580 ha        1 1LJ      0.150000
     37 H10        -1.6550    0.1170    1.2370 ha        1 1LJ      0.153000
     38 H11        -3.0970   -1.6800   -0.4650 ha        1 1LJ      0.174000
     39 H12        -3.5330   -4.0680   -0.8900 ha        1 1LJ      0.158500
     40 H13        -0.2090   -4.1100   -3.7400 ha        1 1LJ      0.158500
     41 H14        -1.6250   -5.9610   -3.4920 hn        1 1LJ      0.346500
     42 H15        -2.0920   -8.3590   -2.5820 hn        1 1LJ      0.461300
     43 H16        -6.3440  -11.9360   -3.7090 ha        1 1LJ      0.165000
     44 H17        -5.5210  -13.8180   -5.0150 hn        1 1LJ      0.459800
     45 H18        -4.0610  -13.8100   -5.9080 hn        1 1LJ      0.459800
     46 H192       -3.5120   -8.4570   -1.7260 hn        1 1LJ      0.461300
@<TRIPOS>BOND
     1    1    2 ar  
     2    1   15 ar  
     3    1   16 1   
     4    2    3 ar  
     5    2   28 1   
     6    3   13 ar  
     7    3   29 1   
     8    4    6 ar  
     9    4   16 1   
    10    4   19 ar  
    11    5   20 ar  
    12    5   21 ar  
    13    5   22 1   
    14    6   21 ar  
    15    6   30 1   
    16    7   22 1   
    17    7   23 2   
    18    7   24 1   
    19    8    9 1   
    20    8   24 1   
    21    8   31 1   
    22    8   32 1   
    23    9   10 ar  
    24    9   12 ar  
    25   10   25 ar  
    26   10   33 1   
    27   11   25 ar  
    28   11   26 ar  
    29   11   27 1   
    30   12   26 ar  
    31   12   34 1   
    32   13   14 ar  
    33   13   35 1   
    34   14   15 ar  
    35   14   36 1   
    36   15   37 1   
    37   16   17 2   
    38   16   18 2   
    39   19   20 ar  
    40   19   38 1   
    41   20   39 1   
    42   21   40 1   
    43   22   41 1   
    44   24   42 1   
    45   24   46 1   
    46   25   43 1   
    47   27   44 1   
    48   27   45 1   
@<TRIPOS>SUBSTRUCTURE
     1 1LJ         1 TEMP              0 ****  ****    0 ROOT
