@<TRIPOS>MOLECULE
1LJ
   45    47     1     0     0
SMALL
bcc


@<TRIPOS>ATOM
      1 C4         -4.6500    0.9790   -0.0800 ca        1 1LJ     -0.365500
      2 C5         -4.9900    1.3080   -1.3980 ca        1 1LJ     -0.018500
      3 C6         -5.1320    2.6370   -1.7910 ca        1 1LJ     -0.156500
      4 C10        -2.8750   -0.8930    0.1270 ca        1 1LJ     -0.415500
      5 C13        -0.1140   -1.3830   -0.3110 ca        1 1LJ      0.148600
      6 C15        -2.4190   -1.4090   -1.0940 ca        1 1LJ      0.014000
      7 C17         2.3120   -1.5560    0.2900 c         1 1LJ      0.760100
      8 C20         4.7310   -1.7730    0.6400 c3        1 1LJ      0.135300
      9 C21         5.3860   -0.4510    0.3950 ca        1 1LJ     -0.311600
     10 C22         4.8620    0.7260    0.9450 ca        1 1LJ     -0.037000
     11 C24         6.6890    1.9520   -0.0840 ca        1 1LJ      0.644200
     12 C26         6.5630   -0.3490   -0.3690 ca        1 1LJ      0.449200
     13 C1         -4.9380    3.6600   -0.8620 ca        1 1LJ     -0.070000
     14 C2         -4.6090    3.3490    0.4580 ca        1 1LJ     -0.156500
     15 C3         -4.4690    2.0180    0.8420 ca        1 1LJ     -0.018500
     16 S7         -4.5040   -0.6290    0.3960 sy        1 1LJ      1.446600
     17 O8         -4.7760   -0.7270    1.7710 o         1 1LJ     -0.660300
     18 O9         -5.2580   -1.4360   -0.4740 o         1 1LJ     -0.660300
     19 C11        -1.9240   -0.6440    1.1240 ca        1 1LJ      0.014000
     20 C12        -0.5700   -0.8750    0.9250 ca        1 1LJ     -0.205500
     21 C14        -1.0770   -1.6540   -1.3230 ca        1 1LJ     -0.205500
     22 N16         1.2300   -1.6140   -0.6150 n         1 1LJ     -0.471100
     23 O18         2.1780   -1.1380    1.4620 o         1 1LJ     -0.619100
     24 N19         3.5600   -2.0440   -0.1640 n         1 1LJ     -0.528900
     25 C23         5.5030    1.9340    0.7180 ca        1 1LJ     -0.306300
     26 N25         7.2170    0.7940   -0.6090 nb        1 1LJ     -0.729000
     27 N27         7.2830    3.1750   -0.4020 nh        1 1LJ     -0.932500
     28 H1         -5.1610    0.4970   -2.1280 ha        1 1LJ      0.151000
     29 H2         -5.4010    2.8780   -2.8300 ha        1 1LJ      0.140000
     30 H3         -3.1560   -1.6400   -1.8850 ha        1 1LJ      0.153000
     31 H4          5.4620   -2.6040    0.4150 h1        1 1LJ      0.077200
     32 H5          4.4380   -1.8420    1.7290 h1        1 1LJ      0.077200
     33 H6          3.9420    0.6800    1.5540 ha        1 1LJ      0.160000
     34 H7          7.0280   -1.2500   -0.8130 h4        1 1LJ      0.018100
     35 H8         -5.0490    4.7110   -1.1690 ha        1 1LJ      0.135000
     36 H9         -4.4640    4.1520    1.1950 ha        1 1LJ      0.140000
     37 H10        -4.2260    1.7690    1.8900 ha        1 1LJ      0.151000
     38 H11        -2.2650   -0.2640    2.1050 ha        1 1LJ      0.153000
     39 H12         0.1350   -0.6640    1.7460 ha        1 1LJ      0.159500
     40 H13        -0.7660   -2.0630   -2.2960 ha        1 1LJ      0.159500
     41 H14         1.3940   -2.0270   -1.5080 hn        1 1LJ      0.318500
     42 H15         3.7240   -2.0120   -1.1470 hn        1 1LJ      0.291500
     43 H16         5.1020    2.8650    1.1390 ha        1 1LJ      0.145000
     44 H17         7.1430    3.8920    0.2720 hn        1 1LJ      0.411800
     45 H18         8.1960    3.1420   -0.7970 hn        1 1LJ      0.411800
@<TRIPOS>BOND
     1    1    2 ar  
     2    1   15 ar  
     3    1   16 1   
     4    2    3 ar  
     5    2   28 1   
     6    3   13 ar  
     7    3   29 1   
     8    4    6 ar  
     9    4   16 1   
    10    4   19 ar  
    11    5   20 ar  
    12    5   21 ar  
    13    5   22 1   
    14    6   21 ar  
    15    6   30 1   
    16    7   22 1   
    17    7   23 2   
    18    7   24 1   
    19    8    9 1   
    20    8   24 1   
    21    8   31 1   
    22    8   32 1   
    23    9   10 ar  
    24    9   12 ar  
    25   10   25 ar  
    26   10   33 1   
    27   11   25 ar  
    28   11   26 ar  
    29   11   27 1   
    30   12   26 ar  
    31   12   34 1   
    32   13   14 ar  
    33   13   35 1   
    34   14   15 ar  
    35   14   36 1   
    36   15   37 1   
    37   16   17 2   
    38   16   18 2   
    39   19   20 ar  
    40   19   38 1   
    41   20   39 1   
    42   21   40 1   
    43   22   41 1   
    44   24   42 1   
    45   25   43 1   
    46   27   44 1   
    47   27   45 1   
@<TRIPOS>SUBSTRUCTURE
     1 1LJ         1 TEMP              0 ****  ****    0 ROOT
