@<TRIPOS>MOLECULE
1LJ
   48    50     1     0     0
SMALL
bcc


@<TRIPOS>ATOM
      1 C4         -1.9330   -1.0200   -0.3890 ca        1 1LJ     -0.495500
      2 C5         -1.3490    0.0350   -1.1220 ca        1 1LJ     -0.001500
      3 C6         -0.7360    1.1030   -0.4830 ca        1 1LJ     -0.142500
      4 C10        -1.4520   -3.4490   -1.3750 ca        1 1LJ     -0.174500
      5 C13         0.2110   -5.6070   -1.9450 ca        1 1LJ     -0.130400
      6 C15        -0.6750   -3.4450   -2.5310 ca        1 1LJ     -0.011000
      7 C17         0.3640   -7.8400   -3.0090 c         1 1LJ      0.482100
      8 C20        -1.7780   -8.1640   -4.2400 c3        1 1LJ      0.183100
      9 C21        -3.1930   -8.6110   -4.1370 ca        1 1LJ     -0.284600
     10 C22        -4.2550   -7.7070   -4.2480 ca        1 1LJ     -0.013000
     11 C24        -5.7680   -9.5820   -4.2830 ca        1 1LJ      0.519200
     12 C26        -3.5000   -9.9980   -4.0890 ca        1 1LJ      0.477200
     13 C1         -0.6930    1.1500    0.9140 ca        1 1LJ     -0.003000
     14 C2         -1.2680    0.1180    1.6630 ca        1 1LJ     -0.142500
     15 C3         -1.8800   -0.9480    1.0190 ca        1 1LJ     -0.001500
     16 S7         -2.7380   -2.2010   -1.1330 sy        1 1LJ      1.442600
     17 O8         -3.6410   -2.8940   -0.3260 o         1 1LJ     -0.634300
     18 O9         -3.0990   -1.9230   -2.4510 o         1 1LJ     -0.634300
     19 C11        -1.3300   -4.5010   -0.4610 ca        1 1LJ     -0.011000
     20 C12        -0.5070   -5.5900   -0.7290 ca        1 1LJ     -0.132500
     21 C14         0.1670   -4.5190   -2.8350 ca        1 1LJ     -0.132500
     22 N16         1.0690   -6.7550   -2.2490 n4        1 1LJ     -0.490200
     23 O18         0.9870   -8.6100   -3.7220 o         1 1LJ     -0.285100
     24 N19        -1.1240   -7.9660   -2.8790 n4        1 1LJ     -0.652800
     25 C23        -5.5740   -8.1860   -4.3220 ca        1 1LJ     -0.187300
     26 N25        -4.7440  -10.4810   -4.1540 nb        1 1LJ     -0.613000
     27 N27        -7.1300  -10.1460   -4.4050 n4        1 1LJ     -0.829300
     28 H1         -1.4080    0.0190   -2.2260 ha        1 1LJ      0.154500
     29 H2         -0.2960    1.9230   -1.0750 ha        1 1LJ      0.175000
     30 H3         -0.7400   -2.5920   -3.2390 ha        1 1LJ      0.211500
     31 H4         -1.7080   -7.1770   -4.7870 hx        1 1LJ      0.145700
     32 H5         -1.1660   -8.9390   -4.8000 hx        1 1LJ      0.145700
     33 H6         -4.0850   -6.6160   -4.3070 ha        1 1LJ      0.191000
     34 H7         -2.7100  -10.7780   -4.0190 h4        1 1LJ      0.077100
     35 H8         -0.2150    2.0050    1.4250 ha        1 1LJ      0.177000
     36 H9         -1.2490    0.1610    2.7650 ha        1 1LJ      0.175000
     37 H10        -2.3610   -1.7430    1.6160 ha        1 1LJ      0.154500
     38 H11        -1.9160   -4.4760    0.4830 ha        1 1LJ      0.211500
     39 H12        -0.4000   -6.3860    0.0270 ha        1 1LJ      0.172500
     40 H13         0.7800   -4.4810   -3.7530 ha        1 1LJ      0.172500
     41 H14         1.8810   -6.4480   -2.8290 hn        1 1LJ      0.520800
     42 H15        -1.5340   -7.1340   -2.4150 hn        1 1LJ      0.496300
     43 H16        -6.4100   -7.4680   -4.4210 ha        1 1LJ      0.210000
     44 H17        -7.8280   -9.3970   -4.2970 hn        1 1LJ      0.497467
     45 H18        -7.2900  -10.8700   -3.6850 hn        1 1LJ      0.497467
     46 H162        1.4420   -7.1600   -1.3670 hn        1 1LJ      0.520800
     47 H192       -1.3180   -8.7950   -2.2900 hn        1 1LJ      0.496300
     48 H273       -7.2400  -10.5840   -5.3360 hn        1 1LJ      0.497467
@<TRIPOS>BOND
     1    1    2 ar  
     2    1   15 ar  
     3    1   16 1   
     4    2    3 ar  
     5    2   28 1   
     6    3   13 ar  
     7    3   29 1   
     8    4    6 ar  
     9    4   16 1   
    10    4   19 ar  
    11    5   20 ar  
    12    5   21 ar  
    13    5   22 1   
    14    6   21 ar  
    15    6   30 1   
    16    7   22 1   
    17    7   23 2   
    18    7   24 1   
    19    8    9 1   
    20    8   24 1   
    21    8   31 1   
    22    8   32 1   
    23    9   10 ar  
    24    9   12 ar  
    25   10   25 ar  
    26   10   33 1   
    27   11   25 ar  
    28   11   26 ar  
    29   11   27 1   
    30   12   26 ar  
    31   12   34 1   
    32   13   14 ar  
    33   13   35 1   
    34   14   15 ar  
    35   14   36 1   
    36   15   37 1   
    37   16   17 2   
    38   16   18 2   
    39   19   20 ar  
    40   19   38 1   
    41   20   39 1   
    42   21   40 1   
    43   22   41 1   
    44   22   46 1   
    45   24   42 1   
    46   24   47 1   
    47   25   43 1   
    48   27   44 1   
    49   27   45 1   
    50   27   48 1   
@<TRIPOS>SUBSTRUCTURE
     1 1LJ         1 TEMP              0 ****  ****    0 ROOT
