@<TRIPOS>MOLECULE
1LJ
   46    48     1     0     0
SMALL
bcc


@<TRIPOS>ATOM
      1 C4         -0.0990    0.0680   -0.2720 ca        1 1LJ     -0.403500
      2 C5          1.2890    0.0610   -0.4730 ca        1 1LJ     -0.015000
      3 C6          2.1690    0.0630    0.6040 ca        1 1LJ     -0.153000
      4 C10        -1.4060   -1.5510   -1.8280 ca        1 1LJ     -0.326500
      5 C13        -1.9000   -4.2700   -2.3480 ca        1 1LJ      0.063600
      6 C15        -0.6090   -2.2590   -2.7340 ca        1 1LJ      0.005500
      7 C17        -2.9020   -6.4860   -1.9560 c         1 1LJ      0.642100
      8 C20        -3.7890   -8.0270   -3.7500 c3        1 1LJ      0.211100
      9 C21        -4.0440   -9.4350   -4.0980 ca        1 1LJ     -0.422600
     10 C22        -5.2120  -10.0960   -3.6700 ca        1 1LJ     -0.003000
     11 C24        -4.4820  -12.0650   -4.9010 ca        1 1LJ      0.731200
     12 C26        -3.1570  -10.1520   -4.9340 ca        1 1LJ      0.502200
     13 C1          1.6720    0.0760    1.9090 ca        1 1LJ     -0.053000
     14 C2          0.2930    0.0930    2.1280 ca        1 1LJ     -0.153000
     15 C3         -0.5810    0.0920    1.0450 ca        1 1LJ     -0.015000
     16 S7         -1.1480    0.1210   -1.5640 sy        1 1LJ      1.440600
     17 O8         -2.3740    0.6760   -1.1780 o         1 1LJ     -0.643300
     18 O9         -0.5020    0.6260   -2.6990 o         1 1LJ     -0.643300
     19 C11        -2.4500   -2.2220   -1.1900 ca        1 1LJ      0.005500
     20 C12        -2.7070   -3.5700   -1.4350 ca        1 1LJ     -0.166500
     21 C14        -0.8370   -3.6030   -3.0000 ca        1 1LJ     -0.166500
     22 N16        -2.1190   -5.6350   -2.6850 ns        1 1LJ     -0.423100
     23 O18        -3.5630   -6.2700   -0.9340 o         1 1LJ     -0.488100
     24 N19        -3.0210   -7.9280   -2.4540 ny        1 1LJ     -0.680800
     25 C23        -5.4440  -11.3990   -4.0550 ca        1 1LJ     -0.323300
     26 N25        -3.3350  -11.4090   -5.3290 nb        1 1LJ     -0.730000
     27 N27        -4.6850  -13.3570   -5.2840 nv        1 1LJ     -0.934500
     28 H1          1.6830    0.0760   -1.5050 ha        1 1LJ      0.153000
     29 H2          3.2560    0.0640    0.4280 ha        1 1LJ      0.150000
     30 H3          0.2070   -1.7320   -3.2640 ha        1 1LJ      0.174000
     31 H4         -4.7540   -7.4590   -3.6010 hx        1 1LJ      0.102200
     32 H5         -3.1770   -7.5130   -4.5450 hx        1 1LJ      0.102200
     33 H6         -5.9460   -9.5700   -3.0380 ha        1 1LJ      0.145000
     34 H7         -2.2360   -9.6740   -5.3230 h4        1 1LJ      0.022100
     35 H8          2.3660    0.0830    2.7640 ha        1 1LJ      0.147000
     36 H9         -0.1020    0.1180    3.1550 ha        1 1LJ      0.150000
     37 H10        -1.6710    0.1310    1.2190 ha        1 1LJ      0.153000
     38 H11        -3.1040   -1.6690   -0.4900 ha        1 1LJ      0.174000
     39 H12        -3.5430   -4.0580   -0.9070 ha        1 1LJ      0.158500
     40 H13        -0.1910   -4.1250   -3.7230 ha        1 1LJ      0.158500
     41 H14        -1.6130   -5.9700   -3.4790 hn        1 1LJ      0.346500
     42 H15        -2.1010   -8.3620   -2.5610 hn        1 1LJ      0.461300
     43 H16        -6.3530  -11.9260   -3.7330 ha        1 1LJ      0.165000
     44 H17        -5.5200  -13.8180   -5.0160 hn        1 1LJ      0.459800
     45 H18        -4.0470  -13.8220   -5.8870 hn        1 1LJ      0.459800
     46 H192       -3.5340   -8.4490   -1.7260 hn        1 1LJ      0.461300
@<TRIPOS>BOND
     1    1    2 ar  
     2    1   15 ar  
     3    1   16 1   
     4    2    3 ar  
     5    2   28 1   
     6    3   13 ar  
     7    3   29 1   
     8    4    6 ar  
     9    4   16 1   
    10    4   19 ar  
    11    5   20 ar  
    12    5   21 ar  
    13    5   22 1   
    14    6   21 ar  
    15    6   30 1   
    16    7   22 1   
    17    7   23 2   
    18    7   24 1   
    19    8    9 1   
    20    8   24 1   
    21    8   31 1   
    22    8   32 1   
    23    9   10 ar  
    24    9   12 ar  
    25   10   25 ar  
    26   10   33 1   
    27   11   25 ar  
    28   11   26 ar  
    29   11   27 1   
    30   12   26 ar  
    31   12   34 1   
    32   13   14 ar  
    33   13   35 1   
    34   14   15 ar  
    35   14   36 1   
    36   15   37 1   
    37   16   17 2   
    38   16   18 2   
    39   19   20 ar  
    40   19   38 1   
    41   20   39 1   
    42   21   40 1   
    43   22   41 1   
    44   24   42 1   
    45   24   46 1   
    46   25   43 1   
    47   27   44 1   
    48   27   45 1   
@<TRIPOS>SUBSTRUCTURE
     1 1LJ         1 TEMP              0 ****  ****    0 ROOT
