@<TRIPOS>MOLECULE
1LJ
   45    38     1     0     0
SMALL
bcc


@<TRIPOS>ATOM
      1 C4          0.5850   -5.7800    1.3930 c1        1 1LJ     -0.811000
      2 C5          1.8760   -6.1550    1.0830 c1        1 1LJ     -0.019000
      3 C6          2.1140   -7.0170    0.0060 c1        1 1LJ     -0.099500
      4 C10         0.4390   -2.9380    2.0250 c1        1 1LJ     -0.858000
      5 C13         0.6490   -0.3160    1.1250 c1        1 1LJ      0.153000
      6 C15         1.6880   -2.3430    1.9160 c2        1 1LJ      0.013000
      7 C17        -0.3930    1.7350    0.1510 c1        1 1LJ      0.384000
      8 C20        -0.2360    3.5100   -1.6110 c3        1 1LJ      0.012000
      9 C21        -0.7590    4.9040   -1.7760 c2        1 1LJ     -0.242000
     10 C22        -0.5290    5.8300   -0.8120 c1        1 1LJ     -0.043000
     11 C24        -1.5070    7.5010   -2.1940 c1        1 1LJ      0.125000
     12 C26        -1.3730    5.2800   -2.9690 c2        1 1LJ     -0.006000
     13 C1          1.0490   -7.4950   -0.7510 c1        1 1LJ     -0.099500
     14 C2         -0.2510   -7.1170   -0.4380 c1        1 1LJ     -0.099500
     15 C3         -0.4880   -6.2630    0.6290 c1        1 1LJ     -0.099500
     16 S7          0.2930   -4.5790    2.6770 s4        1 1LJ      2.110800
     17 O8          1.1770   -4.7800    3.7870 o         1 1LJ     -0.548400
     18 O9         -0.9890   -4.7820    3.3010 o         1 1LJ     -0.548400
     19 C11        -0.7000   -2.2260    1.6870 c1        1 1LJ      0.013000
     20 C12        -0.5940   -0.9120    1.2360 c1        1 1LJ     -0.183000
     21 C14         1.7950   -1.0320    1.4660 c1        1 1LJ     -0.219000
     22 N16         0.7620    1.0530    0.6520 n2        1 1LJ     -0.325000
     23 O18        -1.4550    1.1740    0.1230 o         1 1LJ     -0.378000
     24 N19        -0.3030    3.1320   -0.2170 n3        1 1LJ     -0.338000
     25 C23        -0.8990    7.1300   -1.0130 c1        1 1LJ     -0.247000
     26 N25        -1.7390    6.5670   -3.1650 n1        1 1LJ     -0.197000
     27 N27        -1.8200    8.8720   -2.4330 n3        1 1LJ     -0.330000
     28 H1          2.6290   -5.8160    1.6190 ha        1 1LJ      0.151000
     29 H2          3.0300   -7.2830   -0.2140 ha        1 1LJ      0.141250
     30 H3          2.4880   -2.8440    2.1530 ha        1 1LJ      0.153000
     31 H4          0.7000    3.4710   -1.9180 h1        1 1LJ      0.115500
     32 H5         -0.7810    2.8910   -2.1440 h1        1 1LJ      0.115500
     33 H6         -0.1000    5.5690    0.0210 ha        1 1LJ      0.134000
     34 H7         -1.5400    4.6130   -3.6660 h4        1 1LJ      0.181000
     35 H8          1.2160   -8.0990   -1.5060 ha        1 1LJ      0.141250
     36 H9         -0.9990   -7.4530   -0.9700 ha        1 1LJ      0.141250
     37 H10        -1.4040   -5.9970    0.8490 ha        1 1LJ      0.141250
     38 H11        -1.5880   -2.6520    1.7650 ha        1 1LJ      0.153000
     39 H12        -1.3950   -0.4140    0.9980 ha        1 1LJ      0.181000
     40 H13         2.6720   -0.6140    1.3890 ha        1 1LJ      0.136000
     41 H14         1.5870    1.4670    0.6290 hn        1 1LJ      0.232000
     42 H15        -0.3110    3.7830    0.4370 hn        1 1LJ      0.205000
     43 H16        -0.7340    7.7960   -0.3210 ha        1 1LJ      0.142000
     44 H17        -1.6250    9.5120   -1.7880 hn        1 1LJ      0.207500
     45 H18        -2.2360    9.1180   -3.2110 hn        1 1LJ      0.207500
@<TRIPOS>BOND
     1    1    2 1   
     2    1   16 1   
     3    2   28 1   
     4    3   13 1   
     5    3   29 1   
     6    4    6 1   
     7    4   19 1   
     8    5   20 1   
     9    5   22 1   
    10    6   21 1   
    11    6   30 1   
    12    7   23 1   
    13    7   24 1   
    14    8    9 1   
    15    8   24 1   
    16    8   31 1   
    17    8   32 1   
    18    9   10 1   
    19    9   12 1   
    20   10   33 1   
    21   11   25 1   
    22   11   27 1   
    23   12   26 1   
    24   12   34 1   
    25   13   35 1   
    26   14   15 1   
    27   14   36 1   
    28   15   37 1   
    29   16   17 1   
    30   16   18 1   
    31   19   38 1   
    32   20   39 1   
    33   21   40 1   
    34   22   41 1   
    35   24   42 1   
    36   25   43 1   
    37   27   44 1   
    38   27   45 1   
@<TRIPOS>SUBSTRUCTURE
     1 1LJ         1 TEMP              0 ****  ****    0 ROOT
