@<TRIPOS>MOLECULE
1LL
   45    46     1     0     0
SMALL
bcc


@<TRIPOS>ATOM
      1 C4         -2.8580    1.2820   -2.9440 c3        1 1LL      0.091100
      2 C5         -1.3520    1.5280   -2.9830 c3        1 1LL      0.057100
      3 C6         -1.0970    2.8380   -3.6290 c3        1 1LL      0.141400
      4 O2         -3.2120    1.1400   -0.0300 oh        1 1LL     -0.597800
      5 C2         -2.5930    0.1010   -0.8130 c3        1 1LL      0.090100
      6 C3         -3.2090    0.0880   -2.1610 c3        1 1LL      0.123100
      7 O3         -4.6730    0.0240   -2.0170 oh        1 1LL     -0.577800
      8 O4         -3.5040    2.4320   -2.3560 oh        1 1LL     -0.590800
      9 O6          0.2830    3.0080   -3.8140 oh        1 1LL     -0.592800
     10 O5         -0.7490    1.5330   -1.6480 os        1 1LL     -0.420600
     11 C1         -1.0940    0.3510   -0.8650 c3        1 1LL      0.190200
     12 SAW        -0.4840    0.5520    0.7760 ss        1 1LL     -0.277200
     13 CAL         1.0570   -0.2960    0.9340 c3        1 1LL      0.190200
     14 OAM         0.8200   -1.6020    1.5650 os        1 1LL     -0.420600
     15 CAN         2.0450   -2.3030    1.8890 c3        1 1LL      0.057100
     16 CAU         1.7010   -3.5400    2.6940 c3        1 1LL      0.141400
     17 OAV         0.9000   -4.3840    1.9310 oh        1 1LL     -0.592800
     18 CAO         3.0080   -1.4480    2.6890 c3        1 1LL      0.091100
     19 OAT         2.4580   -1.2290    4.0030 oh        1 1LL     -0.590800
     20 CAP         3.2560   -0.1340    2.0540 c3        1 1LL      0.123100
     21 OAS         4.0520    0.7030    2.9850 oh        1 1LL     -0.577800
     22 CAQ         2.0160    0.5670    1.7310 c3        1 1LL      0.090100
     23 OAR         1.3580    0.9750    2.9840 oh        1 1LL     -0.597800
     24 H1         -3.1810    1.1690   -3.8510 h1        1 1LL      0.097700
     25 H2         -0.9290    0.8220   -3.5210 h1        1 1LL      0.063700
     26 H3         -1.5420    2.8670   -4.4860 h1        1 1LL      0.066200
     27 H4         -1.4290    3.5320   -3.0770 h1        1 1LL      0.066200
     28 H5         -3.5360    0.7880    0.7340 ho        1 1LL      0.422000
     29 H6         -2.7550   -0.7540   -0.3860 h1        1 1LL      0.076700
     30 H7         -2.9080   -0.6960   -2.6340 h1        1 1LL      0.085700
     31 H8         -4.9770   -0.7740   -2.3470 ho        1 1LL      0.430000
     32 H9         -4.1270    2.7620   -2.9370 ho        1 1LL      0.425000
     33 H10         0.4260    3.6580   -4.4110 ho        1 1LL      0.407000
     34 H11        -0.6640   -0.4260   -1.2660 h2        1 1LL      0.083700
     35 H12         1.4250   -0.4380    0.0520 h2        1 1LL      0.083700
     36 H13         2.4860   -2.5800    1.0500 h1        1 1LL      0.063700
     37 H14         1.2150   -3.2750    3.5110 h1        1 1LL      0.066200
     38 H15         2.5230   -4.0090    2.9400 h1        1 1LL      0.066200
     39 H16         0.9310   -5.1970    2.2670 ho        1 1LL      0.407000
     40 H17         3.8510   -1.9200    2.7740 h1        1 1LL      0.097700
     41 H18         3.0060   -1.5720    4.6150 ho        1 1LL      0.425000
     42 H19         3.7790   -0.2730    1.2120 h1        1 1LL      0.085700
     43 H20         4.8510    0.8990    2.6090 ho        1 1LL      0.430000
     44 H21         2.2300    1.3630    1.2140 h1        1 1LL      0.076700
     45 H22         1.1960    1.8670    2.9640 ho        1 1LL      0.422000
@<TRIPOS>BOND
     1    1    2 1   
     2    1    6 1   
     3    1    8 1   
     4    1   24 1   
     5    2    3 1   
     6    2   10 1   
     7    2   25 1   
     8    3    9 1   
     9    3   26 1   
    10    3   27 1   
    11    4    5 1   
    12    4   28 1   
    13    5    6 1   
    14    5   11 1   
    15    5   29 1   
    16    6    7 1   
    17    6   30 1   
    18    7   31 1   
    19    8   32 1   
    20    9   33 1   
    21   10   11 1   
    22   11   12 1   
    23   11   34 1   
    24   12   13 1   
    25   13   14 1   
    26   13   22 1   
    27   13   35 1   
    28   14   15 1   
    29   15   16 1   
    30   15   18 1   
    31   15   36 1   
    32   16   17 1   
    33   16   37 1   
    34   16   38 1   
    35   17   39 1   
    36   18   19 1   
    37   18   20 1   
    38   18   40 1   
    39   19   41 1   
    40   20   21 1   
    41   20   22 1   
    42   20   42 1   
    43   21   43 1   
    44   22   23 1   
    45   22   44 1   
    46   23   45 1   
@<TRIPOS>SUBSTRUCTURE
     1 1LL         1 TEMP              0 ****  ****    0 ROOT
