@<TRIPOS>MOLECULE
1LL
   45    46     1     0     0
SMALL
bcc


@<TRIPOS>ATOM
      1 C4          3.9590   -0.6200   -0.2090 c3        1 1LL      0.088100
      2 C5          2.7040   -1.2330    0.4290 c3        1 1LL      0.097100
      3 C6          3.0160   -1.8710    1.7860 c3        1 1LL      0.133400
      4 O2          3.0400    2.1800   -0.2730 oh        1 1LL     -0.599800
      5 C2          2.4570    1.2120   -1.1310 c3        1 1LL      0.089100
      6 C3          3.5810    0.2020   -1.4570 c3        1 1LL      0.122100
      7 O3          4.7050    0.8700   -1.9770 oh        1 1LL     -0.578800
      8 O4          4.6940    0.1690    0.7030 oh        1 1LL     -0.594800
      9 O6          2.4040   -3.1500    1.7800 oh        1 1LL     -0.604800
     10 O5          1.7200   -0.2220    0.6950 os        1 1LL     -0.409600
     11 C1          1.2980    0.4480   -0.4850 c3        1 1LL      0.187200
     12 SAW        -0.0000    1.5770   -0.0000 ss        1 1LL     -0.283200
     13 CAL        -1.2980    0.4480    0.4850 c3        1 1LL      0.187200
     14 OAM        -1.7200   -0.2220   -0.6950 os        1 1LL     -0.409600
     15 CAN        -2.7040   -1.2340   -0.4290 c3        1 1LL      0.097100
     16 CAU        -3.0160   -1.8720   -1.7860 c3        1 1LL      0.133400
     17 OAV        -2.4030   -3.1520   -1.7790 oh        1 1LL     -0.604800
     18 CAO        -3.9590   -0.6210    0.2090 c3        1 1LL      0.088100
     19 OAT        -4.6950    0.1680   -0.7030 oh        1 1LL     -0.594800
     20 CAP        -3.5810    0.2020    1.4560 c3        1 1LL      0.122100
     21 OAS        -4.7050    0.8700    1.9770 oh        1 1LL     -0.578800
     22 CAQ        -2.4570    1.2110    1.1310 c3        1 1LL      0.089100
     23 OAR        -3.0410    2.1790    0.2720 oh        1 1LL     -0.599800
     24 H1          4.6740   -1.4390   -0.5050 h1        1 1LL      0.097700
     25 H2          2.2650   -2.0000   -0.2690 h1        1 1LL      0.077700
     26 H3          4.1270   -1.9750    1.9140 h1        1 1LL      0.050200
     27 H4          2.6010   -1.2390    2.6160 h1        1 1LL      0.050200
     28 H5          2.3250    2.7270    0.0760 ho        1 1LL      0.422000
     29 H6          2.1060    1.7160   -2.0740 h1        1 1LL      0.075700
     30 H7          3.2340   -0.4810   -2.2800 h1        1 1LL      0.085700
     31 H8          5.0850    1.3940   -1.2550 ho        1 1LL      0.429000
     32 H9          4.1020    0.8620    1.0320 ho        1 1LL      0.425000
     33 H10         2.5240   -3.5170    2.6640 ho        1 1LL      0.407000
     34 H11         0.8800   -0.2960   -1.2160 h2        1 1LL      0.090700
     35 H12        -0.8790   -0.2960    1.2160 h2        1 1LL      0.090700
     36 H13        -2.2640   -2.0000    0.2690 h1        1 1LL      0.077700
     37 H14        -4.1270   -1.9770   -1.9130 h1        1 1LL      0.050200
     38 H15        -2.6010   -1.2400   -2.6150 h1        1 1LL      0.050200
     39 H16        -2.5230   -3.5190   -2.6630 ho        1 1LL      0.407000
     40 H17        -4.6740   -1.4400    0.5050 h1        1 1LL      0.097700
     41 H18        -4.1020    0.8610   -1.0320 ho        1 1LL      0.425000
     42 H19        -3.2340   -0.4810    2.2800 h1        1 1LL      0.085700
     43 H20        -5.0850    1.3930    1.2540 ho        1 1LL      0.429000
     44 H21        -2.1070    1.7160    2.0740 h1        1 1LL      0.075700
     45 H22        -2.3250    2.7260   -0.0770 ho        1 1LL      0.422000
@<TRIPOS>BOND
     1    1    2 1   
     2    1    6 1   
     3    1    8 1   
     4    1   24 1   
     5    2    3 1   
     6    2   10 1   
     7    2   25 1   
     8    3    9 1   
     9    3   26 1   
    10    3   27 1   
    11    4    5 1   
    12    4   28 1   
    13    5    6 1   
    14    5   11 1   
    15    5   29 1   
    16    6    7 1   
    17    6   30 1   
    18    7   31 1   
    19    8   32 1   
    20    9   33 1   
    21   10   11 1   
    22   11   12 1   
    23   11   34 1   
    24   12   13 1   
    25   13   14 1   
    26   13   22 1   
    27   13   35 1   
    28   14   15 1   
    29   15   16 1   
    30   15   18 1   
    31   15   36 1   
    32   16   17 1   
    33   16   37 1   
    34   16   38 1   
    35   17   39 1   
    36   18   19 1   
    37   18   20 1   
    38   18   40 1   
    39   19   41 1   
    40   20   21 1   
    41   20   22 1   
    42   20   42 1   
    43   21   43 1   
    44   22   23 1   
    45   22   44 1   
    46   23   45 1   
@<TRIPOS>SUBSTRUCTURE
     1 1LL         1 TEMP              0 ****  ****    0 ROOT
