@<TRIPOS>MOLECULE
1LM
   19    20     1     0     0
SMALL
bcc


@<TRIPOS>ATOM
      1 C01        -0.0030    0.1460   -0.0430 ca        1 1LM     -0.139000
      2 C02         1.4100    0.1220   -0.0320 ca        1 1LM     -0.117000
      3 C03         2.0970    0.0570    1.1530 ca        1 1LM     -0.173300
      4 C04         1.3950    0.0080    2.4020 ca        1 1LM      0.422600
      5 C05        -0.0350    0.0230    2.3840 ca        1 1LM     -0.180300
      6 C06        -0.7060    0.0990    1.1370 ca        1 1LM     -0.106000
      7 C07        -0.7290   -0.0340    3.6540 ca        1 1LM      0.203600
      8 C08         0.0410   -0.0980    4.8170 ca        1 1LM     -0.349300
      9 C09         1.4560   -0.0950    4.7100 ca        1 1LM      0.449200
     10 N10         2.1270   -0.0500    3.5730 nb        1 1LM     -0.694000
     11 N11        -2.1130    0.0420    3.7240 nv        1 1LM     -0.833200
     12 H1         -0.5310    0.2060   -1.0060 ha        1 1LM      0.133000
     13 H2          1.9520    0.1600   -0.9890 ha        1 1LM      0.135000
     14 H3          3.1980    0.0430    1.1650 ha        1 1LM      0.151000
     15 H4         -1.8050    0.1330    1.0970 ha        1 1LM      0.125000
     16 H5         -0.4180   -0.1430    5.8130 ha        1 1LM      0.141000
     17 H6          2.0670   -0.1380    5.6320 h4        1 1LM      0.019100
     18 H7         -2.5150   -0.2300    4.5920 hn        1 1LM      0.405800
     19 H8         -2.6180   -0.2540    2.9220 hn        1 1LM      0.405800
@<TRIPOS>BOND
     1    1    2 ar  
     2    1    6 ar  
     3    1   12 1   
     4    2    3 ar  
     5    2   13 1   
     6    3    4 ar  
     7    3   14 1   
     8    4    5 ar  
     9    4   10 ar  
    10    5    6 ar  
    11    5    7 ar  
    12    6   15 1   
    13    7    8 ar  
    14    7   11 1   
    15    8    9 ar  
    16    8   16 1   
    17    9   10 ar  
    18    9   17 1   
    19   11   18 1   
    20   11   19 1   
@<TRIPOS>SUBSTRUCTURE
     1 1LM         1 TEMP              0 ****  ****    0 ROOT
