@<TRIPOS>MOLECULE
1LM
   19    15     1     0     0
SMALL
bcc


@<TRIPOS>ATOM
      1 C01        -0.2140   -0.0060   -2.5360 c1        1 1LM     -0.117500
      2 C02         1.1780   -0.0060   -2.5360 c1        1 1LM     -0.117500
      3 C03         1.8720   -0.0060   -1.3330 c1        1 1LM     -0.117500
      4 C04         1.1690   -0.0060   -0.1130 c1        1 1LM      0.029000
      5 C05        -0.2060   -0.0060   -0.1130 c1        1 1LM     -0.115000
      6 C06        -0.9090   -0.0060   -1.3330 c1        1 1LM     -0.117500
      7 C07        -0.8980   -0.0060    1.0880 c1        1 1LM      0.122000
      8 C08        -0.2120   -0.0060    2.2720 c1        1 1LM     -0.284000
      9 C09         1.1800   -0.0060    2.2690 c1        1 1LM     -0.016000
     10 N10         1.8610   -0.0060    1.0860 n2        1 1LM     -0.168000
     11 N11        -2.2790    0.0230    1.4100 n2        1 1LM     -0.342000
     12 H1         -0.7020   -0.0060   -3.3810 ha        1 1LM      0.136000
     13 H2          1.6660   -0.0060   -3.3810 ha        1 1LM      0.136000
     14 H3          2.8490   -0.0060   -1.3340 ha        1 1LM      0.136000
     15 H4         -1.8850   -0.0060   -1.3340 ha        1 1LM      0.136000
     16 H5         -0.6980   -0.0060    3.1180 ha        1 1LM      0.141000
     17 H6          1.6690   -0.0060    3.1130 ha        1 1LM      0.156000
     18 H7         -2.6220   -0.5810    2.0020 hn        1 1LM      0.201000
     19 H8         -2.8200    0.6550    1.0380 hn        1 1LM      0.201000
@<TRIPOS>BOND
     1    1    6 1   
     2    1   12 1   
     3    2    3 1   
     4    2   13 1   
     5    3   14 1   
     6    4    5 1   
     7    4   10 1   
     8    5    7 1   
     9    6   15 1   
    10    7    8 1   
    11    8   16 1   
    12    9   10 1   
    13    9   17 1   
    14   11   18 1   
    15   11   19 1   
@<TRIPOS>SUBSTRUCTURE
     1 1LM         1 TEMP              0 ****  ****    0 ROOT
