@<TRIPOS>MOLECULE
1LM
   19    20     1     0     0
SMALL
bcc


@<TRIPOS>ATOM
      1 C01         2.3520   -1.1200    0.0210 ca        1 1LM     -0.139000
      2 C02         2.7370    0.2390   -0.0150 ca        1 1LM     -0.117000
      3 C03         1.7910    1.2310   -0.0260 ca        1 1LM     -0.173300
      4 C04         0.3940    0.9090   -0.0050 ca        1 1LM      0.422600
      5 C05         0.0110   -0.4690    0.0210 ca        1 1LM     -0.180300
      6 C06         1.0220   -1.4630    0.0400 ca        1 1LM     -0.106000
      7 C07        -1.4040   -0.7780    0.0350 ca        1 1LM      0.203600
      8 C08        -2.3060    0.2880    0.0230 ca        1 1LM     -0.349300
      9 C09        -1.8060    1.6160    0.0080 ca        1 1LM      0.449200
     10 N10        -0.5250    1.9400   -0.0100 nb        1 1LM     -0.694000
     11 N11        -1.8560   -2.0870    0.1270 nh        1 1LM     -0.833200
     12 H1          3.1300   -1.8970    0.0360 ha        1 1LM      0.133000
     13 H2          3.8080    0.4910   -0.0310 ha        1 1LM      0.135000
     14 H3          2.0880    2.2920   -0.0500 ha        1 1LM      0.151000
     15 H4          0.7530   -2.5290    0.0820 ha        1 1LM      0.125000
     16 H5         -3.3920    0.1270    0.0340 ha        1 1LM      0.141000
     17 H6         -2.5210    2.4610    0.0070 h4        1 1LM      0.019100
     18 H7         -1.2440   -2.7950   -0.2040 hn        1 1LM      0.405800
     19 H8         -2.8140   -2.2280   -0.0960 hn        1 1LM      0.405800
@<TRIPOS>BOND
     1    1    2 ar  
     2    1    6 ar  
     3    1   12 1   
     4    2    3 ar  
     5    2   13 1   
     6    3    4 ar  
     7    3   14 1   
     8    4    5 ar  
     9    4   10 ar  
    10    5    6 ar  
    11    5    7 ar  
    12    6   15 1   
    13    7    8 ar  
    14    7   11 1   
    15    8    9 ar  
    16    8   16 1   
    17    9   10 ar  
    18    9   17 1   
    19   11   18 1   
    20   11   19 1   
@<TRIPOS>SUBSTRUCTURE
     1 1LM         1 TEMP              0 ****  ****    0 ROOT
