@<TRIPOS>MOLECULE
1LM
   20    21     1     0     0
SMALL
bcc


@<TRIPOS>ATOM
      1 C01        -0.0120    0.0000   -0.0290 ca        1 1LM     -0.056000
      2 C02         1.4020    0.0000   -0.0300 ca        1 1LM     -0.106000
      3 C03         2.1040    0.0000    1.1500 ca        1 1LM     -0.130300
      4 C04         1.4110    0.0000    2.4050 ca        1 1LM      0.406600
      5 C05        -0.0250   -0.0000    2.3950 ca        1 1LM     -0.132300
      6 C06        -0.7110    0.0000    1.1560 ca        1 1LM     -0.172000
      7 C07        -0.6720   -0.0000    3.6750 ca        1 1LM     -0.029400
      8 C08         0.0670   -0.0000    4.8430 ca        1 1LM     -0.185300
      9 C09         1.4940    0.0000    4.7250 ca        1 1LM      0.416200
     10 N10         2.1410    0.0000    3.5760 nb        1 1LM     -0.580000
     11 N11        -2.1350   -0.0000    3.7290 n4        1 1LM     -0.706000
     12 H1         -0.5490    0.0000   -0.9930 ha        1 1LM      0.164000
     13 H2          1.9370    0.0000   -0.9950 ha        1 1LM      0.171000
     14 H3          3.2080    0.0000    1.1530 ha        1 1LM      0.183000
     15 H4         -1.8100   -0.0000    1.1200 ha        1 1LM      0.119000
     16 H5         -0.3810   -0.0000    5.8490 ha        1 1LM      0.170000
     17 H6          2.1130    0.0000    5.6460 h4        1 1LM      0.066100
     18 H7         -2.4930    0.8360    3.2510 hn        1 1LM      0.466800
     19 H8         -2.4920   -0.8370    3.2510 hn        1 1LM      0.466800
     20 H113       -2.4570   -0.0000    4.7030 hn        1 1LM      0.466800
@<TRIPOS>BOND
     1    1    2 ar  
     2    1    6 ar  
     3    1   12 1   
     4    2    3 ar  
     5    2   13 1   
     6    3    4 ar  
     7    3   14 1   
     8    4    5 ar  
     9    4   10 ar  
    10    5    6 ar  
    11    5    7 ar  
    12    6   15 1   
    13    7    8 ar  
    14    7   11 1   
    15    8    9 ar  
    16    8   16 1   
    17    9   10 ar  
    18    9   17 1   
    19   11   18 1   
    20   11   19 1   
    21   11   20 1   
@<TRIPOS>SUBSTRUCTURE
     1 1LM         1 TEMP              0 ****  ****    0 ROOT
