@<TRIPOS>MOLECULE
1LN
   21    21     1     0     0
SMALL
bcc


@<TRIPOS>ATOM
      1 C01        -0.0650    0.1040    0.0460 ca        1 1LN      0.020000
      2 C02         1.3260    0.3440    0.1170 ca        1 1LN     -0.185000
      3 C03         1.9530    0.3050    1.3440 ca        1 1LN      0.005700
      4 N04         1.2750    0.0170    2.5180 na        1 1LN     -0.057100
      5 C05        -0.1070   -0.1590    2.4830 ca        1 1LN      0.178500
      6 C06        -0.7720   -0.1390    1.1990 ca        1 1LN     -0.226000
      7 N07        -0.8500   -0.3490    3.6110 nh        1 1LN     -0.403200
      8 C08         2.0610   -0.0290    3.7510 c3        1 1LN     -0.008700
      9 C09         2.3720    1.3510    4.3480 c3        1 1LN      0.113400
     10 O10         3.2060    2.0110    3.4140 oh        1 1LN     -0.616800
     11 H1         -0.5760    0.1210   -0.9340 ha        1 1LN      0.187000
     12 H2          1.9090    0.5660   -0.7920 ha        1 1LN      0.197000
     13 H3          3.0370    0.5220    1.4680 h4        1 1LN      0.217000
     14 H4         -1.8600   -0.3130    1.1670 ha        1 1LN      0.186000
     15 H5         -0.4630   -0.3400    4.5240 hn        1 1LN      0.317200
     16 H6         -1.8250   -0.5240    3.5120 hn        1 1LN      0.317200
     17 H7          3.0430   -0.5330    3.4990 h1        1 1LN      0.098200
     18 H8          1.5510   -0.6630    4.5260 h1        1 1LN      0.098200
     19 H9          1.4390    1.9500    4.5240 h1        1 1LN      0.059700
     20 H10         2.9080    1.1940    5.3240 h1        1 1LN      0.059700
     21 H11         3.5510    2.8050    3.8440 ho        1 1LN      0.441000
@<TRIPOS>BOND
     1    1    2 ar  
     2    1    6 ar  
     3    1   11 1   
     4    2    3 ar  
     5    2   12 1   
     6    3    4 1   
     7    3   13 1   
     8    4    5 2   
     9    4    8 1   
    10    5    6 ar  
    11    5    7 1   
    12    6   14 1   
    13    7   15 1   
    14    7   16 1   
    15    8    9 1   
    16    8   17 1   
    17    8   18 1   
    18    9   10 1   
    19    9   19 1   
    20    9   20 1   
    21   10   21 1   
@<TRIPOS>SUBSTRUCTURE
     1 1LN         1 TEMP              0 ****  ****    0 ROOT
