@<TRIPOS>MOLECULE
1LN
   21    17     1     0     0
SMALL
bcc


@<TRIPOS>ATOM
      1 C01        -1.2980   -0.3070   -2.4750 c1        1 1LN      0.015000
      2 C02         0.0730   -0.3370   -2.5000 c1        1 1LN     -0.088000
      3 C03         0.7910   -0.3230   -1.3040 c1        1 1LN     -0.088000
      4 N04         0.1260   -0.2790   -0.1030 n1        1 1LN     -0.133000
      5 C05        -1.2410   -0.2490   -0.0780 c1        1 1LN      0.259000
      6 C06        -1.9610   -0.2630   -1.2720 c2        1 1LN     -0.223000
      7 N07        -1.9210   -0.3800    1.1510 n2        1 1LN     -0.321000
      8 C08         0.8510   -0.3630    1.1100 c2        1 1LN     -0.067000
      9 C09         1.5760    0.9210    1.3460 c3        1 1LN     -0.038000
     10 O10         2.1350    0.9100    2.6320 oh        1 1LN     -0.367000
     11 H1         -1.7980   -0.3170   -3.3050 ha        1 1LN      0.187000
     12 H2          0.5350   -0.3680   -3.3350 ha        1 1LN      0.195500
     13 H3          1.7780   -0.3440   -1.3200 ha        1 1LN      0.195500
     14 H4         -2.9140   -0.2430   -1.2540 ha        1 1LN      0.186000
     15 H5         -2.8470   -0.5110    1.1580 hn        1 1LN      0.275000
     16 H6         -1.4800   -0.2220    1.9300 hn        1 1LN      0.275000
     17 H7          1.5210   -1.1250    1.0540 ha        1 1LN      0.140000
     18 H8          0.2210   -0.5310    1.8610 ha        1 1LN      0.140000
     19 H9          2.2820    1.0210    0.6870 h1        1 1LN      0.105500
     20 H10         0.9470    1.6710    1.2690 h1        1 1LN      0.105500
     21 H11         2.6260    1.6400    2.7490 ho        1 1LN      0.245000
@<TRIPOS>BOND
     1    1    6 1   
     2    1   11 1   
     3    2    3 1   
     4    2   12 1   
     5    3   13 1   
     6    4    5 1   
     7    5    6 1   
     8    6   14 1   
     9    7   15 1   
    10    7   16 1   
    11    8    9 1   
    12    8   17 1   
    13    8   18 1   
    14    9   10 1   
    15    9   19 1   
    16    9   20 1   
    17   10   21 1   
@<TRIPOS>SUBSTRUCTURE
     1 1LN         1 TEMP              0 ****  ****    0 ROOT
