@<TRIPOS>MOLECULE
1LN
   21    21     1     0     0
SMALL
bcc


@<TRIPOS>ATOM
      1 C01        -4.7140    1.2040   17.3350 ca        1 1LN      0.020000
      2 C02        -5.6470    0.7990   16.3550 ca        1 1LN     -0.185000
      3 C03        -6.4550    1.7470   15.7640 ca        1 1LN      0.005700
      4 N04        -6.3750    3.0950   16.0780 na        1 1LN     -0.057100
      5 C05        -5.5100    3.5100   17.0870 ca        1 1LN      0.178500
      6 C06        -4.6440    2.5270   17.7010 ca        1 1LN     -0.226000
      7 N07        -5.4490    4.8040   17.5150 nh        1 1LN     -0.403200
      8 C08        -7.2630    4.0040   15.3540 c3        1 1LN     -0.008700
      9 C09        -8.7040    4.0310   15.8870 c3        1 1LN      0.113400
     10 O10        -9.2400    2.7420   15.6520 oh        1 1LN     -0.616800
     11 H1         -4.0520    0.4550   17.8080 ha        1 1LN      0.187000
     12 H2         -5.7390   -0.2600   16.0640 ha        1 1LN      0.197000
     13 H3         -7.2340    1.4840   15.0130 h4        1 1LN      0.218000
     14 H4         -3.9330    2.8610   18.4750 ha        1 1LN      0.186000
     15 H5         -4.7690    5.0450   18.2010 hn        1 1LN      0.317200
     16 H6         -6.0370    5.5200   17.1610 hn        1 1LN      0.317200
     17 H7         -7.2930    3.6520   14.2790 h1        1 1LN      0.098200
     18 H8         -6.8490    5.0490   15.3510 h1        1 1LN      0.098200
     19 H9         -8.7390    4.2700   16.9830 h1        1 1LN      0.059700
     20 H10        -9.2710    4.8130   15.3130 h1        1 1LN      0.059700
     21 H11       -10.1910    2.7880   15.8200 ho        1 1LN      0.441000
@<TRIPOS>BOND
     1    1    2 ar  
     2    1    6 ar  
     3    1   11 1   
     4    2    3 ar  
     5    2   12 1   
     6    3    4 1   
     7    3   13 1   
     8    4    5 2   
     9    4    8 1   
    10    5    6 ar  
    11    5    7 1   
    12    6   14 1   
    13    7   15 1   
    14    7   16 1   
    15    8    9 1   
    16    8   17 1   
    17    8   18 1   
    18    9   10 1   
    19    9   19 1   
    20    9   20 1   
    21   10   21 1   
@<TRIPOS>SUBSTRUCTURE
     1 1LN         1 TEMP              0 ****  ****    0 ROOT
