@<TRIPOS>MOLECULE
1LN
   22    22     1     0     0
SMALL
bcc


@<TRIPOS>ATOM
      1 C01         0.1710   -0.0670   -0.1410 ca        1 1LN      0.016000
      2 C02         1.5460   -0.2320   -0.0390 ca        1 1LN     -0.093000
      3 C03         2.1540   -0.2140    1.2330 ca        1 1LN      0.027700
      4 N04         1.4430   -0.0340    2.3830 na        1 1LN      0.037900
      5 C05         0.0620    0.1510    2.2830 ca        1 1LN      0.039300
      6 C06        -0.5820    0.1280    1.0340 ca        1 1LN     -0.085000
      7 N07        -0.7530    0.3990    3.4850 n4        1 1LN     -0.721000
      8 C08         2.1530   -0.0740    3.6750 c3        1 1LN     -0.043700
      9 C09         2.3660    1.2860    4.3540 c3        1 1LN      0.115400
     10 O10         1.1240    1.6750    4.9120 oh        1 1LN     -0.693800
     11 H1         -0.3410   -0.0840   -1.1270 ha        1 1LN      0.236000
     12 H2          2.1850   -0.3820   -0.9360 ha        1 1LN      0.242000
     13 H3          3.2570   -0.3570    1.3340 h4        1 1LN      0.244000
     14 H4         -1.6790    0.2650    0.9500 ha        1 1LN      0.220000
     15 H5         -0.4700   -0.2070    4.2720 hn        1 1LN      0.504467
     16 H6         -0.6220    1.3870    3.7920 hn        1 1LN      0.504467
     17 H7          3.1750   -0.5290    3.4930 h1        1 1LN      0.126700
     18 H8          1.5950   -0.7700    4.3680 h1        1 1LN      0.126700
     19 H9          2.7190    2.0720    3.6330 h1        1 1LN      0.102700
     20 H10         3.1410    1.1410    5.1600 h1        1 1LN      0.102700
     21 H11         1.2970    2.3180    5.6190 ho        1 1LN      0.487000
     22 H073       -1.7470    0.2320    3.2660 hn        1 1LN      0.504467
@<TRIPOS>BOND
     1    1    2 ar  
     2    1    6 ar  
     3    1   11 1   
     4    2    3 ar  
     5    2   12 1   
     6    3    4 1   
     7    3   13 1   
     8    4    5 2   
     9    4    8 1   
    10    5    6 ar  
    11    5    7 1   
    12    6   14 1   
    13    7   15 1   
    14    7   16 1   
    15    7   22 1   
    16    8    9 1   
    17    8   17 1   
    18    8   18 1   
    19    9   10 1   
    20    9   19 1   
    21    9   20 1   
    22   10   21 1   
@<TRIPOS>SUBSTRUCTURE
     1 1LN         1 TEMP              0 ****  ****    0 ROOT
