@<TRIPOS>MOLECULE
1LN
   21    21     1     0     0
SMALL
bcc


@<TRIPOS>ATOM
      1 C01        -0.0590    0.0720    0.0430 ca        1 1LN      0.020000
      2 C02         1.3320    0.3130    0.1170 ca        1 1LN     -0.185000
      3 C03         1.9540    0.2890    1.3470 ca        1 1LN      0.005700
      4 N04         1.2720    0.0140    2.5220 na        1 1LN     -0.057100
      5 C05        -0.1100   -0.1630    2.4830 ca        1 1LN      0.178500
      6 C06        -0.7700   -0.1580    1.1970 ca        1 1LN     -0.226000
      7 N07        -0.8570   -0.3400    3.6110 nv        1 1LN     -0.403200
      8 C08         2.0540   -0.0180    3.7570 c3        1 1LN     -0.008700
      9 C09         2.3650    1.3700    4.3390 c3        1 1LN      0.113400
     10 O10         3.2030    2.0170    3.4000 oh        1 1LN     -0.616800
     11 H1         -0.5660    0.0770   -0.9380 ha        1 1LN      0.187000
     12 H2          1.9180    0.5240   -0.7920 ha        1 1LN      0.197000
     13 H3          3.0380    0.5070    1.4720 h4        1 1LN      0.217000
     14 H4         -1.8580   -0.3320    1.1630 ha        1 1LN      0.186000
     15 H5         -0.4730   -0.3200    4.5260 hn        1 1LN      0.317200
     16 H6         -1.8320   -0.5160    3.5100 hn        1 1LN      0.317200
     17 H7          3.0360   -0.5250    3.5150 h1        1 1LN      0.098200
     18 H8          1.5400   -0.6410    4.5390 h1        1 1LN      0.098200
     19 H9          1.4320    1.9710    4.5040 h1        1 1LN      0.059700
     20 H10         2.8960    1.2240    5.3180 h1        1 1LN      0.059700
     21 H11         3.5470    2.8160    3.8210 ho        1 1LN      0.441000
@<TRIPOS>BOND
     1    1    2 ar  
     2    1    6 ar  
     3    1   11 1   
     4    2    3 ar  
     5    2   12 1   
     6    3    4 1   
     7    3   13 1   
     8    4    5 2   
     9    4    8 1   
    10    5    6 ar  
    11    5    7 1   
    12    6   14 1   
    13    7   15 1   
    14    7   16 1   
    15    8    9 1   
    16    8   17 1   
    17    8   18 1   
    18    9   10 1   
    19    9   19 1   
    20    9   20 1   
    21   10   21 1   
@<TRIPOS>SUBSTRUCTURE
     1 1LN         1 TEMP              0 ****  ****    0 ROOT
