@<TRIPOS>MOLECULE
1LP
   20    20     1     0     0
SMALL
bcc


@<TRIPOS>ATOM
      1 O2         -0.0500   -0.2030    0.0280 o         1 1LP     -0.521100
      2 C1          1.1620    0.0030    0.0410 c         1 1LP      0.573900
      3 C2          1.9770    0.0010    1.3150 c3        1 1LP     -0.140400
      4 C3          2.7980   -1.2740    1.3770 c3        1 1LP     -0.084100
      5 C1'         2.8390    1.2200    1.3770 ca        1 1LP     -0.082300
      6 C6'         2.6440    2.1590    2.3970 ca        1 1LP     -0.123000
      7 C5'         3.4430    3.3000    2.4650 ca        1 1LP     -0.127000
      8 C4'         4.4420    3.5130    1.5150 ca        1 1LP     -0.126000
      9 C3'         4.6400    2.5820    0.4960 ca        1 1LP     -0.127000
     10 C2'         3.8430    1.4410    0.4270 ca        1 1LP     -0.123000
     11 H1C1        1.7400    0.1980   -0.8890 h4        1 1LP     -0.000800
     12 H2          1.2650    0.0040    2.1920 hc        1 1LP      0.081700
     13 H3C1        2.1230   -2.1640    1.3650 hc        1 1LP      0.044700
     14 H3C2        3.4000   -1.2930    2.3170 hc        1 1LP      0.044700
     15 H3C3        3.4970   -1.3400    0.5090 hc        1 1LP      0.044700
     16 H6'         1.8570    1.9980    3.1490 ha        1 1LP      0.132500
     17 H5'         3.2840    4.0320    3.2700 ha        1 1LP      0.133500
     18 H4'         5.0710    4.4140    1.5700 ha        1 1LP      0.134000
     19 H3'         5.4260    2.7470   -0.2550 ha        1 1LP      0.133500
     20 H2'         4.0080    0.7080   -0.3780 ha        1 1LP      0.132500
@<TRIPOS>BOND
     1    1    2 2   
     2    2    3 1   
     3    2   11 1   
     4    3    4 1   
     5    3    5 1   
     6    3   12 1   
     7    4   13 1   
     8    4   14 1   
     9    4   15 1   
    10    5    6 ar  
    11    5   10 ar  
    12    6    7 ar  
    13    6   16 1   
    14    7    8 ar  
    15    7   17 1   
    16    8    9 ar  
    17    8   18 1   
    18    9   10 ar  
    19    9   19 1   
    20   10   20 1   
@<TRIPOS>SUBSTRUCTURE
     1 1LP         1 TEMP              0 ****  ****    0 ROOT
