@<TRIPOS>MOLECULE
1LP
   20    20     1     0     0
SMALL
bcc


@<TRIPOS>ATOM
      1 O2         -0.0460   -0.2150    0.0280 o         1 1LP     -0.521100
      2 C1          1.1650   -0.0020    0.0400 c         1 1LP      0.573900
      3 C2          1.9820   -0.0040    1.3130 c3        1 1LP     -0.140400
      4 C3          2.8090   -1.2750    1.3690 c3        1 1LP     -0.084100
      5 C1'         2.8390    1.2190    1.3780 ca        1 1LP     -0.082300
      6 C6'         2.6410    2.1540    2.4010 ca        1 1LP     -0.123000
      7 C5'         3.4350    3.2970    2.4720 ca        1 1LP     -0.127000
      8 C4'         4.4310    3.5190    1.5210 ca        1 1LP     -0.126000
      9 C3'         4.6320    2.5920    0.4990 ca        1 1LP     -0.127000
     10 C2'         3.8410    1.4480    0.4260 ca        1 1LP     -0.123000
     11 H1C1        1.7400    0.2010   -0.8900 h4        1 1LP     -0.000800
     12 H2          1.2720   -0.0070    2.1910 hc        1 1LP      0.081700
     13 H3C1        3.5070   -1.3350    0.5000 hc        1 1LP      0.044700
     14 H3C2        2.1390   -2.1680    1.3550 hc        1 1LP      0.044700
     15 H3C3        3.4120   -1.2950    2.3090 hc        1 1LP      0.044700
     16 H6'         1.8560    1.9870    3.1540 ha        1 1LP      0.132500
     17 H5'         3.2730    4.0260    3.2800 ha        1 1LP      0.133500
     18 H4'         5.0560    4.4220    1.5780 ha        1 1LP      0.134000
     19 H3'         5.4160    2.7640   -0.2530 ha        1 1LP      0.133500
     20 H2'         4.0070    0.7180   -0.3810 ha        1 1LP      0.132500
@<TRIPOS>BOND
     1    1    2 2   
     2    2    3 1   
     3    2   11 1   
     4    3    4 1   
     5    3    5 1   
     6    3   12 1   
     7    4   13 1   
     8    4   14 1   
     9    4   15 1   
    10    5    6 ar  
    11    5   10 ar  
    12    6    7 ar  
    13    6   16 1   
    14    7    8 ar  
    15    7   17 1   
    16    8    9 ar  
    17    8   18 1   
    18    9   10 ar  
    19    9   19 1   
    20   10   20 1   
@<TRIPOS>SUBSTRUCTURE
     1 1LP         1 TEMP              0 ****  ****    0 ROOT
