@<TRIPOS>MOLECULE
1LP
   20    20     1     0     0
SMALL
bcc


@<TRIPOS>ATOM
      1 O2         -0.9460   -0.7740    3.0690 o         1 1LP     -0.521100
      2 C1         -0.1420   -0.6890    2.1430 c         1 1LP      0.573900
      3 C2          0.0330    0.5710    1.3260 c3        1 1LP     -0.140400
      4 C3          1.3320    1.2460    1.7260 c3        1 1LP     -0.084100
      5 C1'         0.0020    0.2480   -0.1330 ca        1 1LP     -0.082300
      6 C6'        -1.0160    0.7700   -0.9400 ca        1 1LP     -0.123000
      7 C5'        -1.0540    0.4750   -2.3020 ca        1 1LP     -0.127000
      8 C4'        -0.0780   -0.3430   -2.8700 ca        1 1LP     -0.126000
      9 C3'         0.9380   -0.8670   -2.0710 ca        1 1LP     -0.127000
     10 C2'         0.9790   -0.5740   -0.7090 ca        1 1LP     -0.123000
     11 H1C1        0.5160   -1.5370    1.8510 h4        1 1LP     -0.000800
     12 H2         -0.8170    1.2730    1.5690 hc        1 1LP      0.081700
     13 H3C1        2.2050    0.5750    1.5360 hc        1 1LP      0.044700
     14 H3C2        1.4710    2.1830    1.1360 hc        1 1LP      0.044700
     15 H3C3        1.3090    1.5060    2.8120 hc        1 1LP      0.044700
     16 H6'        -1.7910    1.4150   -0.4990 ha        1 1LP      0.132500
     17 H5'        -1.8570    0.8900   -2.9290 ha        1 1LP      0.133500
     18 H4'        -0.1090   -0.5760   -3.9450 ha        1 1LP      0.134000
     19 H3'         1.7100   -1.5130   -2.5150 ha        1 1LP      0.133500
     20 H2'         1.7860   -0.9870   -0.0850 ha        1 1LP      0.132500
@<TRIPOS>BOND
     1    1    2 2   
     2    2    3 1   
     3    2   11 1   
     4    3    4 1   
     5    3    5 1   
     6    3   12 1   
     7    4   13 1   
     8    4   14 1   
     9    4   15 1   
    10    5    6 ar  
    11    5   10 ar  
    12    6    7 ar  
    13    6   16 1   
    14    7    8 ar  
    15    7   17 1   
    16    8    9 ar  
    17    8   18 1   
    18    9   10 ar  
    19    9   19 1   
    20   10   20 1   
@<TRIPOS>SUBSTRUCTURE
     1 1LP         1 TEMP              0 ****  ****    0 ROOT
