@<TRIPOS>MOLECULE
1LP
   20    17     1     0     0
SMALL
bcc


@<TRIPOS>ATOM
      1 O2         -2.5500   -1.3680    1.5880 o         1 1LP     -0.282000
      2 C1         -2.1250   -0.9820    0.5150 c1        1 1LP      0.192000
      3 C2         -0.7110   -1.3180    0.0970 c2        1 1LP     -0.137000
      4 C3         -0.7160   -1.8370   -1.3250 c3        1 1LP     -0.202000
      5 C1'         0.1480   -0.0750    0.1770 c2        1 1LP     -0.075000
      6 C6'         1.3190   -0.0890    0.9190 c1        1 1LP     -0.119000
      7 C5'         2.0800    1.0630    1.0340 c1        1 1LP     -0.126500
      8 C4'         1.6710    2.2300    0.4070 c1        1 1LP     -0.126500
      9 C3'         0.5000    2.2440   -0.3350 c1        1 1LP     -0.127000
     10 C2'        -0.2610    1.0910   -0.4500 c2        1 1LP     -0.127000
     11 H1C1       -2.7010   -0.4620   -0.0800 ha        1 1LP      0.092000
     12 H2         -0.3500   -2.0030    0.6920 ha        1 1LP      0.121000
     13 H3C1        0.1830   -2.1500   -1.5610 hc        1 1LP      0.084000
     14 H3C2       -0.9810   -1.1160   -1.9340 hc        1 1LP      0.084000
     15 H3C3       -1.3510   -2.5790   -1.4000 hc        1 1LP      0.084000
     16 H6'         1.6070   -0.9110    1.3610 ha        1 1LP      0.135000
     17 H5'         2.9050    1.0530    1.5560 ha        1 1LP      0.134000
     18 H4'         2.2080    3.0410    0.4870 ha        1 1LP      0.134000
     19 H3'         0.2120    3.0650   -0.7770 ha        1 1LP      0.133000
     20 H2'        -1.0860    1.1010   -0.9720 ha        1 1LP      0.130000
@<TRIPOS>BOND
     1    1    2 1   
     2    2   11 1   
     3    3    4 1   
     4    3    5 1   
     5    3   12 1   
     6    4   13 1   
     7    4   14 1   
     8    4   15 1   
     9    5    6 1   
    10    5   10 1   
    11    6   16 1   
    12    7    8 1   
    13    7   17 1   
    14    8   18 1   
    15    9   10 1   
    16    9   19 1   
    17   10   20 1   
@<TRIPOS>SUBSTRUCTURE
     1 1LP         1 TEMP              0 ****  ****    0 ROOT
