@<TRIPOS>MOLECULE
1LQ
   19    20     1     0     0
SMALL
bcc


@<TRIPOS>ATOM
      1 CAE         0.0150   -0.0210   -0.0270 ca        1 1LQ     -0.139300
      2 CAB         1.3870   -0.0270   -0.0290 ca        1 1LQ     -0.089000
      3 CAC         2.1180   -0.0270    1.1850 ca        1 1LQ     -0.058000
      4 CAF         1.4660   -0.0200    2.3960 ca        1 1LQ     -0.155000
      5 C5          0.0520   -0.0130    2.4410 ca        1 1LQ     -0.241600
      6 C4         -0.7040   -0.0140    1.2130 ca        1 1LQ      0.430600
      7 N3         -2.0810   -0.0070    1.2180 nb        1 1LQ     -0.603000
      8 C2         -2.6900   -0.0010    2.4040 ca        1 1LQ      0.658900
      9 N1         -2.0820   -0.0000    3.6460 nb        1 1LQ     -0.663000
     10 C6         -0.7450   -0.0060    3.6370 ca        1 1LQ      0.501200
     11 NAA        -0.0610   -0.0050    4.9520 n4        1 1LQ     -0.829300
     12 H1         -0.5570   -0.0210   -0.9730 ha        1 1LQ      0.188000
     13 H2          1.9410   -0.0330   -0.9840 ha        1 1LQ      0.175000
     14 H3          3.2210   -0.0320    1.1440 ha        1 1LQ      0.169000
     15 H4          2.0580   -0.0200    3.3220 ha        1 1LQ      0.126000
     16 H5         -3.8050    0.0040    2.4250 h5        1 1LQ      0.102100
     17 H6          0.5230   -0.8470    5.0170 hn        1 1LQ      0.475800
     18 H7          0.5310    0.8310    5.0120 hn        1 1LQ      0.475800
     19 HAA3       -0.7420   -0.0000    5.7250 hn        1 1LQ      0.475800
@<TRIPOS>BOND
     1    1    2 ar  
     2    1    6 ar  
     3    1   12 1   
     4    2    3 ar  
     5    2   13 1   
     6    3    4 ar  
     7    3   14 1   
     8    4    5 ar  
     9    4   15 1   
    10    5    6 ar  
    11    5   10 ar  
    12    6    7 ar  
    13    7    8 ar  
    14    8    9 ar  
    15    8   16 1   
    16    9   10 ar  
    17   10   11 1   
    18   11   17 1   
    19   11   18 1   
    20   11   19 1   
@<TRIPOS>SUBSTRUCTURE
     1 1LQ         1 TEMP              0 ****  ****    0 ROOT
