@<TRIPOS>MOLECULE
1LQ
   18    19     1     0     0
SMALL
bcc


@<TRIPOS>ATOM
      1 CAE         1.8110    1.2310    0.0170 ca        1 1LQ     -0.181300
      2 CAB         2.7500    0.2290    0.0090 ca        1 1LQ     -0.103000
      3 CAC         2.3570   -1.1270   -0.0150 ca        1 1LQ     -0.145000
      4 CAF         1.0230   -1.4640   -0.0280 ca        1 1LQ     -0.091000
      5 C5          0.0270   -0.4620   -0.0130 ca        1 1LQ     -0.296600
      6 C4          0.4160    0.9140    0.0030 ca        1 1LQ      0.440600
      7 N3         -0.5200    1.9340    0.0040 nb        1 1LQ     -0.724000
      8 C2         -1.7980    1.5540   -0.0050 ca        1 1LQ      0.675900
      9 N1         -2.3120    0.2810   -0.0070 nb        1 1LQ     -0.789000
     10 C6         -1.4120   -0.7340   -0.0230 ca        1 1LQ      0.700200
     11 NAA        -1.8720   -2.0370   -0.1070 nh        1 1LQ     -0.947500
     12 H1          2.1140    2.2900    0.0320 ha        1 1LQ      0.155000
     13 H2          3.8230    0.4750    0.0190 ha        1 1LQ      0.137000
     14 H3          3.1310   -1.9090   -0.0280 ha        1 1LQ      0.136000
     15 H4          0.7470   -2.5290   -0.0590 ha        1 1LQ      0.126000
     16 H5         -2.5630    2.3600   -0.0040 h5        1 1LQ      0.051100
     17 H6         -1.2620   -2.7540    0.2020 hn        1 1LQ      0.426800
     18 H7         -2.8450   -2.2010    0.0090 hn        1 1LQ      0.426800
@<TRIPOS>BOND
     1    1    2 ar  
     2    1    6 ar  
     3    1   12 1   
     4    2    3 ar  
     5    2   13 1   
     6    3    4 ar  
     7    3   14 1   
     8    4    5 ar  
     9    4   15 1   
    10    5    6 ar  
    11    5   10 ar  
    12    6    7 ar  
    13    7    8 ar  
    14    8    9 ar  
    15    8   16 1   
    16    9   10 ar  
    17   10   11 1   
    18   11   17 1   
    19   11   18 1   
@<TRIPOS>SUBSTRUCTURE
     1 1LQ         1 TEMP              0 ****  ****    0 ROOT
