@<TRIPOS>MOLECULE
1LQ
   18    19     1     0     0
SMALL
bcc


@<TRIPOS>ATOM
      1 CAE         0.0030    0.0450   -0.0150 ca        1 1LQ     -0.181300
      2 CAB         1.3750    0.1020   -0.0390 ca        1 1LQ     -0.103000
      3 CAC         2.1180    0.0970    1.1610 ca        1 1LQ     -0.145000
      4 CAF         1.4760    0.0380    2.3770 ca        1 1LQ     -0.091000
      5 C5          0.0650   -0.0150    2.4430 ca        1 1LQ     -0.296600
      6 C4         -0.6960   -0.0190    1.2310 ca        1 1LQ      0.440600
      7 N3         -2.0780   -0.0830    1.2420 nb        1 1LQ     -0.724000
      8 C2         -2.6520   -0.1360    2.4430 ca        1 1LQ      0.675900
      9 N1         -2.0530   -0.1260    3.6780 nb        1 1LQ     -0.789000
     10 C6         -0.6970   -0.0780    3.6920 ca        1 1LQ      0.700200
     11 NAA        -0.0350   -0.1460    4.9060 nh        1 1LQ     -0.947500
     12 H1         -0.5790    0.0450   -0.9510 ha        1 1LQ      0.155000
     13 H2          1.9110    0.1510   -1.0000 ha        1 1LQ      0.137000
     14 H3          3.2170    0.1370    1.1130 ha        1 1LQ      0.136000
     15 H4          2.0810    0.0230    3.2950 ha        1 1LQ      0.126000
     16 H5         -3.7620   -0.1880    2.4690 h5        1 1LQ      0.051100
     17 H6          0.8890    0.2070    4.9390 hn        1 1LQ      0.426800
     18 H7         -0.5720   -0.0660    5.7390 hn        1 1LQ      0.426800
@<TRIPOS>BOND
     1    1    2 ar  
     2    1    6 ar  
     3    1   12 1   
     4    2    3 ar  
     5    2   13 1   
     6    3    4 ar  
     7    3   14 1   
     8    4    5 ar  
     9    4   15 1   
    10    5    6 ar  
    11    5   10 ar  
    12    6    7 ar  
    13    7    8 ar  
    14    8    9 ar  
    15    8   16 1   
    16    9   10 ar  
    17   10   11 1   
    18   11   17 1   
    19   11   18 1   
@<TRIPOS>SUBSTRUCTURE
     1 1LQ         1 TEMP              0 ****  ****    0 ROOT
