@<TRIPOS>MOLECULE
1LQ
   18    14     1     0     0
SMALL
bcc


@<TRIPOS>ATOM
      1 CAE         0.1340   -0.0760   -2.1640 c1        1 1LQ     -0.116000
      2 CAB         1.5190   -0.0760   -2.1640 c1        1 1LQ     -0.124000
      3 CAC         2.2120   -0.0760   -0.9650 c1        1 1LQ     -0.124000
      4 CAF         1.5190   -0.0760    0.2350 c1        1 1LQ     -0.091000
      5 C5          0.1070   -0.0760    0.2360 c1        1 1LQ     -0.166000
      6 C4         -0.5720   -0.0760   -0.9400 c2        1 1LQ      0.047000
      7 N3         -1.9350   -0.0760   -0.9390 n2        1 1LQ     -0.198000
      8 C2         -2.6180   -0.0760    0.2450 c1        1 1LQ      0.013000
      9 N1         -1.9330   -0.0760    1.4330 n1        1 1LQ     -0.263000
     10 C6         -0.5880   -0.0760    1.4350 c1        1 1LQ      0.179000
     11 NAA        -0.4110    0.2990    2.7920 n2        1 1LQ     -0.345000
     12 H1         -0.3540   -0.0760   -3.0090 ha        1 1LQ      0.155000
     13 H2          2.0070   -0.0760   -3.0090 ha        1 1LQ      0.136500
     14 H3          3.1880   -0.0760   -0.9650 ha        1 1LQ      0.136500
     15 H4          2.0080   -0.0760    1.0800 ha        1 1LQ      0.126000
     16 H5         -3.5940   -0.0760    0.2450 ha        1 1LQ      0.188000
     17 H6         -0.3940    1.1810    3.0230 hn        1 1LQ      0.222000
     18 H7         -0.2970   -0.3420    3.4310 hn        1 1LQ      0.222000
@<TRIPOS>BOND
     1    1    6 1   
     2    1   12 1   
     3    2    3 1   
     4    2   13 1   
     5    3   14 1   
     6    4    5 1   
     7    4   15 1   
     8    5    6 1   
     9    6    7 1   
    10    7    8 1   
    11    8   16 1   
    12    9   10 1   
    13   11   17 1   
    14   11   18 1   
@<TRIPOS>SUBSTRUCTURE
     1 1LQ         1 TEMP              0 ****  ****    0 ROOT
