@<TRIPOS>MOLECULE
1LQ
   18    19     1     0     0
SMALL
bcc


@<TRIPOS>ATOM
      1 CAE         0.0150    0.0320   -0.0160 ca        1 1LQ     -0.181300
      2 CAB         1.3860    0.1000   -0.0320 ca        1 1LQ     -0.103000
      3 CAC         2.1230    0.1070    1.1720 ca        1 1LQ     -0.145000
      4 CAF         1.4740    0.0510    2.3850 ca        1 1LQ     -0.091000
      5 C5          0.0630   -0.0130    2.4430 ca        1 1LQ     -0.296600
      6 C4         -0.6900   -0.0300    1.2280 ca        1 1LQ      0.440600
      7 N3         -2.0720   -0.1050    1.2310 nb        1 1LQ     -0.724000
      8 C2         -2.6530   -0.1540    2.4290 ca        1 1LQ      0.675900
      9 N1         -2.0610   -0.1330    3.6680 nb        1 1LQ     -0.789000
     10 C6         -0.7050   -0.0740    3.6890 ca        1 1LQ      0.700200
     11 NAA        -0.0500   -0.1300    4.9070 nv        1 1LQ     -0.947500
     12 H1         -0.5620    0.0220   -0.9540 ha        1 1LQ      0.155000
     13 H2          1.9280    0.1470   -0.9900 ha        1 1LQ      0.137000
     14 H3          3.2210    0.1560    1.1300 ha        1 1LQ      0.136000
     15 H4          2.0740    0.0460    3.3060 ha        1 1LQ      0.126000
     16 H5         -3.7620   -0.2150    2.4500 h5        1 1LQ      0.051100
     17 H6         -0.5910   -0.0490    5.7360 hn        1 1LQ      0.426800
     18 H7          0.8730    0.2300    4.9420 hn        1 1LQ      0.426800
@<TRIPOS>BOND
     1    1    2 ar  
     2    1    6 ar  
     3    1   12 1   
     4    2    3 ar  
     5    2   13 1   
     6    3    4 ar  
     7    3   14 1   
     8    4    5 ar  
     9    4   15 1   
    10    5    6 ar  
    11    5   10 ar  
    12    6    7 ar  
    13    7    8 ar  
    14    8    9 ar  
    15    8   16 1   
    16    9   10 ar  
    17   10   11 1   
    18   11   17 1   
    19   11   18 1   
@<TRIPOS>SUBSTRUCTURE
     1 1LQ         1 TEMP              0 ****  ****    0 ROOT
