@<TRIPOS>MOLECULE
1LR
   30    31     1     0     0
SMALL
bcc


@<TRIPOS>ATOM
      1 OAJ         0.5260    1.5380   -1.1290 oh        1 1LR     -0.594100
      2 CAC         1.5240    0.7070   -0.7220 ca        1 1LR      0.225100
      3 CAD         1.4970   -0.0420    0.4730 ca        1 1LR     -0.205600
      4 CAG         0.2870    0.0130    1.4050 c         1 1LR      0.924200
      5 OAH         0.3330   -0.6590    2.4590 o         1 1LR     -0.787300
      6 OAI        -0.6900    0.7360    1.0340 o         1 1LR     -0.787300
      7 CAE         2.5800   -0.8480    0.7940 ca        1 1LR     -0.022000
      8 CAF         3.6960   -0.9370   -0.0540 ca        1 1LR     -0.164000
      9 CAA         3.7370   -0.2230   -1.2360 ca        1 1LR     -0.094000
     10 CAB         2.6470    0.6060   -1.5830 ca        1 1LR     -0.170400
     11 NAK         2.6860    1.3880   -2.8180 n4        1 1LR     -0.511200
     12 CAL         2.8330    0.5220   -4.0440 c         1 1LR      0.580700
     13 OAM         3.9800    0.4540   -4.4820 o         1 1LR     -0.474100
     14 CAN         1.6360   -0.0990   -4.6120 ca        1 1LR     -0.192600
     15 CAO         1.7750   -0.6750   -5.8900 ca        1 1LR     -0.061000
     16 CAP         0.6860   -1.2920   -6.4960 ca        1 1LR     -0.137500
     17 CAQ        -0.5430   -1.3490   -5.8360 ca        1 1LR     -0.063000
     18 CAR        -0.6820   -0.7860   -4.5660 ca        1 1LR     -0.137500
     19 CAS         0.4010   -0.1610   -3.9500 ca        1 1LR     -0.061000
     20 H2          2.5370   -1.4220    1.7390 ha        1 1LR      0.186000
     21 H3          4.5430   -1.5830    0.2240 ha        1 1LR      0.147000
     22 H4          4.6080   -0.3000   -1.9060 ha        1 1LR      0.139000
     23 H5          2.7520   -0.6360   -6.4010 ha        1 1LR      0.166500
     24 H6          0.7980   -1.7400   -7.4950 ha        1 1LR      0.159000
     25 H7         -1.4040   -1.8420   -6.3160 ha        1 1LR      0.153000
     26 H8         -1.6480   -0.8390   -4.0390 ha        1 1LR      0.159000
     27 H9          0.2590    0.2550   -2.9360 ha        1 1LR      0.166500
     28 H10        -0.2050    1.5540   -0.4440 ho        1 1LR      0.533000
     29 H11         1.8150    1.9360   -2.8810 hn        1 1LR      0.462300
     30 HAK2        3.4890    2.0270   -2.7660 hn        1 1LR      0.462300
@<TRIPOS>BOND
     1    1    2 1   
     2    1   28 1   
     3    2    3 ar  
     4    2   10 ar  
     5    3    4 1   
     6    3    7 ar  
     7    4    5 1   
     8    4    6 1   
     9    7    8 ar  
    10    7   20 1   
    11    8    9 ar  
    12    8   21 1   
    13    9   10 ar  
    14    9   22 1   
    15   10   11 1   
    16   11   12 1   
    17   11   29 1   
    18   11   30 1   
    19   12   13 2   
    20   12   14 1   
    21   14   15 ar  
    22   14   19 ar  
    23   15   16 ar  
    24   15   23 1   
    25   16   17 ar  
    26   16   24 1   
    27   17   18 ar  
    28   17   25 1   
    29   18   19 ar  
    30   18   26 1   
    31   19   27 1   
@<TRIPOS>SUBSTRUCTURE
     1 1LR         1 TEMP              0 ****  ****    0 ROOT
