@<TRIPOS>MOLECULE
1LR
   29    30     1     0     0
SMALL
bcc


@<TRIPOS>ATOM
      1 OAJ         0.0840    0.0890   -0.3870 oh        1 1LR     -0.577100
      2 CAC         1.4260   -0.0130   -0.1230 ca        1 1LR      0.149100
      3 CAD         1.9740    0.1200    1.1630 ca        1 1LR     -0.201600
      4 CAG         1.1280    0.3850    2.3950 c         1 1LR      0.918200
      5 OAH         1.7100    0.4960    3.5070 o         1 1LR     -0.830300
      6 OAI        -0.1330    0.4830    2.2610 o         1 1LR     -0.830300
      7 CAE         3.3570    0.0060    1.3240 ca        1 1LR     -0.078000
      8 CAF         4.1870   -0.2390    0.2350 ca        1 1LR     -0.191000
      9 CAA         3.6550   -0.3820   -1.0440 ca        1 1LR     -0.121000
     10 CAB         2.2700   -0.2740   -1.2510 ca        1 1LR     -0.036400
     11 NAK         1.6790   -0.4540   -2.5230 ns        1 1LR     -0.430100
     12 CAL         2.2650   -0.1850   -3.7400 c         1 1LR      0.661700
     13 OAM         3.4890    0.0090   -3.9040 o         1 1LR     -0.618100
     14 CAN         1.3510   -0.2170   -4.9290 ca        1 1LR     -0.131600
     15 CAO         1.8020   -0.8440   -6.0960 ca        1 1LR     -0.093500
     16 CAP         0.9890   -0.8770   -7.2270 ca        1 1LR     -0.143500
     17 CAQ        -0.2710   -0.2790   -7.2000 ca        1 1LR     -0.123000
     18 CAR        -0.7160    0.3570   -6.0410 ca        1 1LR     -0.143500
     19 CAS         0.0910    0.3890   -4.9040 ca        1 1LR     -0.093500
     20 H2          3.7680    0.1190    2.3410 ha        1 1LR      0.155000
     21 H3          5.2740   -0.3210    0.3770 ha        1 1LR      0.113000
     22 H4          4.3260   -0.5680   -1.8970 ha        1 1LR      0.146000
     23 H5          2.8060   -1.2970   -6.1080 ha        1 1LR      0.150000
     24 H6          1.3430   -1.3740   -8.1410 ha        1 1LR      0.128500
     25 H7         -0.9120   -0.3060   -8.0930 ha        1 1LR      0.123000
     26 H8         -1.7060    0.8350   -6.0210 ha        1 1LR      0.128500
     27 H9         -0.2660    0.9040   -3.9980 ha        1 1LR      0.150000
     28 H10        -0.3980    0.2460    0.4560 ho        1 1LR      0.493000
     29 H11         0.6830   -0.5280   -2.5000 hn        1 1LR      0.326500
@<TRIPOS>BOND
     1    1    2 1   
     2    1   28 1   
     3    2    3 ar  
     4    2   10 ar  
     5    3    4 1   
     6    3    7 ar  
     7    4    5 1   
     8    4    6 1   
     9    7    8 ar  
    10    7   20 1   
    11    8    9 ar  
    12    8   21 1   
    13    9   10 ar  
    14    9   22 1   
    15   10   11 1   
    16   11   12 1   
    17   11   29 1   
    18   12   13 2   
    19   12   14 1   
    20   14   15 ar  
    21   14   19 ar  
    22   15   16 ar  
    23   15   23 1   
    24   16   17 ar  
    25   16   24 1   
    26   17   18 ar  
    27   17   25 1   
    28   18   19 ar  
    29   18   26 1   
    30   19   27 1   
@<TRIPOS>SUBSTRUCTURE
     1 1LR         1 TEMP              0 ****  ****    0 ROOT
