@<TRIPOS>MOLECULE
1LR
   29    30     1     0     0
SMALL
bcc


@<TRIPOS>ATOM
      1 OAJ         0.0840    0.0950   -0.3870 oh        1 1LR     -0.577100
      2 CAC         1.4270   -0.0110   -0.1230 ca        1 1LR      0.149100
      3 CAD         1.9740    0.1210    1.1630 ca        1 1LR     -0.201600
      4 CAG         1.1290    0.3890    2.3950 c         1 1LR      0.918200
      5 OAH         1.7120    0.4990    3.5070 o         1 1LR     -0.830300
      6 OAI        -0.1310    0.4910    2.2610 o         1 1LR     -0.830300
      7 CAE         3.3570    0.0030    1.3240 ca        1 1LR     -0.078000
      8 CAF         4.1870   -0.2450    0.2350 ca        1 1LR     -0.191000
      9 CAA         3.6540   -0.3870   -1.0440 ca        1 1LR     -0.121000
     10 CAB         2.2700   -0.2750   -1.2510 ca        1 1LR     -0.036400
     11 NAK         1.6780   -0.4540   -2.5230 n         1 1LR     -0.430100
     12 CAL         2.2650   -0.1880   -3.7400 c         1 1LR      0.661700
     13 OAM         3.4900    0.0010   -3.9040 o         1 1LR     -0.618100
     14 CAN         1.3510   -0.2180   -4.9290 ca        1 1LR     -0.131600
     15 CAO         1.8000   -0.8480   -6.0950 ca        1 1LR     -0.093500
     16 CAP         0.9860   -0.8800   -7.2260 ca        1 1LR     -0.143500
     17 CAQ        -0.2710   -0.2760   -7.2000 ca        1 1LR     -0.123000
     18 CAR        -0.7140    0.3630   -6.0420 ca        1 1LR     -0.143500
     19 CAS         0.0940    0.3930   -4.9050 ca        1 1LR     -0.093500
     20 H2          3.7680    0.1150    2.3420 ha        1 1LR      0.155000
     21 H3          5.2730   -0.3300    0.3770 ha        1 1LR      0.113000
     22 H4          4.3250   -0.5760   -1.8960 ha        1 1LR      0.146000
     23 H5          2.8020   -1.3050   -6.1070 ha        1 1LR      0.150000
     24 H6          1.3390   -1.3790   -8.1400 ha        1 1LR      0.128500
     25 H7         -0.9120   -0.3020   -8.0930 ha        1 1LR      0.123000
     26 H8         -1.7020    0.8450   -6.0220 ha        1 1LR      0.128500
     27 H9         -0.2620    0.9100   -3.9990 ha        1 1LR      0.150000
     28 H10        -0.3970    0.2540    0.4560 ho        1 1LR      0.493000
     29 H11         0.6820   -0.5240   -2.5000 hn        1 1LR      0.326500
@<TRIPOS>BOND
     1    1    2 1   
     2    1   28 1   
     3    2    3 ar  
     4    2   10 ar  
     5    3    4 1   
     6    3    7 ar  
     7    4    5 1   
     8    4    6 1   
     9    7    8 ar  
    10    7   20 1   
    11    8    9 ar  
    12    8   21 1   
    13    9   10 ar  
    14    9   22 1   
    15   10   11 1   
    16   11   12 1   
    17   11   29 1   
    18   12   13 2   
    19   12   14 1   
    20   14   15 ar  
    21   14   19 ar  
    22   15   16 ar  
    23   15   23 1   
    24   16   17 ar  
    25   16   24 1   
    26   17   18 ar  
    27   17   25 1   
    28   18   19 ar  
    29   18   26 1   
    30   19   27 1   
@<TRIPOS>SUBSTRUCTURE
     1 1LR         1 TEMP              0 ****  ****    0 ROOT
