@<TRIPOS>MOLECULE
1LS
   48    42     1     0     0
SMALL
bcc


@<TRIPOS>ATOM
      1 C4         -5.4930   -4.4400    1.1820 c1        1 1LS     -0.063000
      2 C6         -6.6350   -5.8630    2.6910 c1        1 1LS     -0.122500
      3 C7         -4.6200   -2.1740    1.8950 c3        1 1LS      0.001000
      4 C13         0.9540   -0.8810   -0.2990 c1        1 1LS     -0.203000
      5 C15         1.8420    1.3090    0.1450 c1        1 1LS     -0.838000
      6 C17        -0.5200    0.8930    0.3710 c1        1 1LS     -0.163000
      7 C22         3.1720    3.7560   -1.9580 c3        1 1LS     -0.011500
      8 C24         5.2040    3.7250   -3.1610 c3        1 1LS     -0.153000
      9 C26         4.4790    1.8040   -1.9950 c3        1 1LS     -0.011500
     10 C1         -6.4050   -4.9590    3.7180 c1        1 1LS     -0.122500
     11 C2         -5.7200   -3.8010    3.4690 c1        1 1LS     -0.071000
     12 C3         -5.2620   -3.5350    2.2060 c1        1 1LS     -0.178000
     13 N5         -6.1780   -5.5980    1.4330 n1        1 1LS     -0.140000
     14 N8         -3.2300   -2.3670    1.5220 n3        1 1LS     -0.320000
     15 C9         -2.4190   -1.2260    1.1240 c1        1 1LS      0.157000
     16 S10        -2.6360    0.2570    1.8710 s         1 1LS     -0.274000
     17 N11        -1.4190   -1.3750    0.0900 n2        1 1LS     -0.284000
     18 C12        -0.3230   -0.4290   -0.0010 c1        1 1LS      0.126000
     19 C14         2.0380   -0.0100   -0.2250 c2        1 1LS      0.001000
     20 C16         0.5600    1.7630    0.4440 c1        1 1LS      0.003000
     21 S18         3.2610    2.3520    0.5010 ss        1 1LS      2.853000
     22 O19         4.2010    1.6780    1.3450 o         1 1LS     -0.934000
     23 O20         2.8930    3.4700    1.3290 o         1 1LS     -0.934000
     24 N21         3.9850    2.8650   -0.9330 n2        1 1LS     -0.837000
     25 C23         4.0450    4.3700   -3.0410 c3        1 1LS     -0.162500
     26 C25         5.3600    2.4060   -3.0790 c3        1 1LS     -0.162500
     27 H1         -5.1670   -4.2510    0.2830 ha        1 1LS      0.156000
     28 H2         -7.1240   -6.6900    2.8680 ha        1 1LS      0.155500
     29 H3         -4.6680   -1.6040    2.6840 h1        1 1LS      0.128500
     30 H4         -5.0980   -1.7500    1.1580 h1        1 1LS      0.128500
     31 H5          1.0940   -1.8100   -0.5600 ha        1 1LS      0.137000
     32 H6         -1.4160    1.2120    0.5800 ha        1 1LS      0.190000
     33 H7          2.4920    3.2020   -2.3820 h1        1 1LS      0.087250
     34 H8          2.7300    4.4750   -1.4660 h1        1 1LS      0.087250
     35 H9          5.5710    3.9880   -4.0410 hc        1 1LS      0.084000
     36 H10         5.8000    4.1110   -2.4770 hc        1 1LS      0.084000
     37 H11         4.9820    1.1110   -1.5320 h1        1 1LS      0.087250
     38 H12         3.6960    1.3950   -2.4170 h1        1 1LS      0.087250
     39 H13        -6.7320   -5.1490    4.6180 ha        1 1LS      0.155500
     40 H14        -5.5600   -3.1680    4.1880 ha        1 1LS      0.168000
     41 H15        -2.8480   -3.1940    1.5980 hn        1 1LS      0.215000
     42 H16        -1.4600   -2.0820   -0.4840 hn        1 1LS      0.226000
     43 H17         2.9410   -0.3310   -0.4360 ha        1 1LS      0.158000
     44 H18         0.4210    2.6950    0.7060 ha        1 1LS      0.154000
     45 H19         3.5650    4.3320   -3.8990 hc        1 1LS      0.088500
     46 H20         4.2240    5.3110   -2.8150 hc        1 1LS      0.088500
     47 H21         6.2970    2.2070   -2.8780 hc        1 1LS      0.088500
     48 H22         5.1250    2.0010   -3.9430 hc        1 1LS      0.088500
@<TRIPOS>BOND
     1    1   13 1   
     2    1   27 1   
     3    2   10 1   
     4    2   28 1   
     5    3   12 1   
     6    3   14 1   
     7    3   29 1   
     8    3   30 1   
     9    4   19 1   
    10    4   31 1   
    11    5   19 1   
    12    5   20 1   
    13    6   18 1   
    14    6   32 1   
    15    7   24 1   
    16    7   25 1   
    17    7   33 1   
    18    7   34 1   
    19    8   25 1   
    20    8   26 1   
    21    8   35 1   
    22    8   36 1   
    23    9   24 1   
    24    9   26 1   
    25    9   37 1   
    26    9   38 1   
    27   10   39 1   
    28   11   12 1   
    29   11   40 1   
    30   14   15 1   
    31   14   41 1   
    32   15   16 1   
    33   17   18 1   
    34   17   42 1   
    35   19   43 1   
    36   20   44 1   
    37   21   22 1   
    38   21   23 1   
    39   25   45 1   
    40   25   46 1   
    41   26   47 1   
    42   26   48 1   
@<TRIPOS>SUBSTRUCTURE
     1 1LS         1 TEMP              0 ****  ****    0 ROOT
