@<TRIPOS>MOLECULE
1LS
   48    45     1     0     0
SMALL
bcc


@<TRIPOS>ATOM
      1 C4          0.9000    1.1930   -0.2460 c2        1 1LS     -0.002000
      2 C6          0.5170   -0.9450    2.5970 c1        1 1LS     -0.128000
      3 C7          2.1790   -0.6780   -5.3300 cv        1 1LS     -0.450000
      4 C13         6.1800   -2.8070   -6.1620 c2        1 1LS     -0.219000
      5 C15         6.7420   -4.2750   -8.2290 c2        1 1LS     -0.875000
      6 C17         1.1550   -3.4270   -0.5250 c1        1 1LS     -0.681000
      7 C22         6.7590   -0.7590  -10.3620 c1        1 1LS     -0.106000
      8 C24         3.0400   -2.3580  -11.9940 c1        1 1LS     -0.054000
      9 C26         4.3210   -4.1050  -10.6360 c3        1 1LS     -0.030000
     10 C1          0.4740   -2.0690    3.2550 c2        1 1LS     -0.099000
     11 C2          0.5690    0.1190    1.9190 c1        1 1LS     -0.088000
     12 C3          0.6340    1.2110    1.1960 c2        1 1LS     -0.154000
     13 N5          1.0180    0.1890   -1.0330 n2        1 1LS     -0.290000
     14 N8          1.9120   -0.5610   -3.9980 na        1 1LS     -0.049000
     15 C9          2.2970   -1.8450   -3.6050 cv        1 1LS     -0.438000
     16 S10         2.7240   -2.2950   -5.2210 ss        1 1LS      0.492000
     17 N11         2.3160   -2.4370   -2.3620 nh        1 1LS     -0.139000
     18 C12         1.2060   -2.9660   -1.7950 c2        1 1LS      0.300000
     19 C14         6.4590   -3.5330   -7.1990 c1        1 1LS      0.046000
     20 C16         1.0580   -3.8590    0.6470 c1        1 1LS      0.089000
     21 O19         7.8320   -2.7680   -9.9470 o         1 1LS     -0.942000
     22 O20         7.2100   -5.0060  -10.5600 o         1 1LS     -0.942000
     23 N21         5.4300   -3.2940  -10.2390 n3        1 1LS     -0.908000
     24 C23         7.4690    0.0530   -9.4050 c3        1 1LS     -0.287000
     25 C25         3.6530   -3.6620  -11.9410 c3        1 1LS     -0.266000
     26 H1          1.0110    2.2010   -0.7020 h4        1 1LS      0.139000
     27 H2          0.9110   -0.7140   -0.6130 hn        1 1LS      0.149000
     28 H3          0.4920    2.2050    1.6530 ha        1 1LS      0.148000
     29 H4          2.0420    0.0650   -6.1030 h5        1 1LS      0.206000
     30 H5          5.1450   -2.6670   -5.8000 ha        1 1LS      0.162500
     31 H6          0.3070   -3.0150   -2.4540 h4        1 1LS      0.156000
     32 H8          5.2660   -2.2990  -10.2630 hn        1 1LS      0.286000
     33 H9          8.0100    0.9350   -9.8340 hc        1 1LS      0.110000
     34 H10         3.1490   -1.7100  -11.1100 ha        1 1LS      0.041000
     35 H11         3.5390   -4.0950   -9.8210 h1        1 1LS      0.085000
     36 H12         4.6780   -5.1700  -10.7580 h1        1 1LS      0.085000
     37 H13         0.6300   -3.0400    2.7410 ha        1 1LS      0.161000
     38 H14         0.2830   -2.1100    4.3380 ha        1 1LS      0.161000
     39 H15         1.5500    0.1920   -3.4660 hn        1 1LS      0.274000
     40 H16         3.1440   -2.3160   -1.8120 hn        1 1LS      0.247000
     41 H17         6.9580   -2.2800   -5.5890 ha        1 1LS      0.162500
     42 H18         6.9520   -5.3500   -8.0380 h4        1 1LS      0.200000
     43 H19         8.2420   -0.6360   -8.9500 hc        1 1LS      0.110000
     44 H20         6.7960    0.4100   -8.5850 hc        1 1LS      0.110000
     45 H21         4.3960   -3.6890  -12.7950 hc        1 1LS      0.157500
     46 H22         2.8570   -4.4190  -12.2050 hc        1 1LS      0.157500
     47 S18         6.8840   -3.8320   -9.8460 s6        1 1LS      2.862000
     48 H7          7.1730   -0.7810  -11.3810 ha        1 1LS      0.051000
@<TRIPOS>BOND
     1    1   12 1   
     2    1   13 1   
     3    1   26 1   
     4    2   10 1   
     5    2   11 1   
     6    3   14 1   
     7    3   16 1   
     8    3   29 1   
     9    4   19 1   
    10    4   30 1   
    11    4   41 1   
    12    5   19 1   
    13    5   42 1   
    14    5   47 1   
    15    6   18 1   
    16    6   20 1   
    17    7   24 1   
    18    7   48 1   
    19    8   25 1   
    20    8   34 1   
    21    9   23 1   
    22    9   25 1   
    23    9   35 1   
    24    9   36 1   
    25   10   37 1   
    26   10   38 1   
    27   11   12 1   
    28   12   28 1   
    29   13   27 1   
    30   14   15 1   
    31   14   39 1   
    32   15   16 1   
    33   15   17 1   
    34   17   18 1   
    35   17   40 1   
    36   18   31 1   
    37   21   47 1   
    38   22   47 1   
    39   23   32 1   
    40   23   47 1   
    41   24   33 1   
    42   24   43 1   
    43   24   44 1   
    44   25   45 1   
    45   25   46 1   
@<TRIPOS>SUBSTRUCTURE
     1 1LS         1 TEMP              0 ****  ****    0 ROOT
