@<TRIPOS>MOLECULE
1LS
   49    46     1     0     0
SMALL
bcc


@<TRIPOS>ATOM
      1 C4         -0.0440   -2.6700   -2.8020 c2        1 1LS      0.032000
      2 C6         -2.2850   -0.0330   -1.7520 c1        1 1LS     -0.130000
      3 C7          4.3590   -2.7340   -2.1770 c2        1 1LS     -0.302000
      4 C13         2.8310   -5.3820   -9.2300 c2        1 1LS     -0.180000
      5 C15         5.0170   -4.6190   -8.0460 c2        1 1LS     -0.889000
      6 C17         9.6930   -3.8440   -2.3010 c1        1 1LS     -0.619000
      7 C22         4.1710   -1.5380   -8.8790 c3        1 1LS     -0.037000
      8 C24         4.2100    0.8840   -8.1800 c3        1 1LS     -0.161000
      9 C26         6.5530   -1.4400   -8.7110 c1        1 1LS     -0.039000
     10 C1         -2.7440    1.1240   -1.3640 c2        1 1LS     -0.077000
     11 C2         -1.8490   -1.1570   -2.1270 c1        1 1LS     -0.064000
     12 C3         -1.4390   -2.3420   -2.5120 c2        1 1LS     -0.159000
     13 N5          0.9950   -1.9200   -2.7510 n2        1 1LS     -0.341000
     14 N8          3.7430   -2.6740   -3.3100 n8        1 1LS     -0.123000
     15 C9          6.9070   -3.2900   -2.8050 c1        1 1LS     -0.698000
     16 S10         6.0160   -3.0570   -1.7350 ss        1 1LS      1.042000
     17 N11         7.7830   -3.5120   -3.7530 n7        1 1LS     -0.078000
     18 C12         9.1310   -3.7780   -3.5030 c2        1 1LS      0.259000
     19 C14         3.9090   -4.9820   -8.6340 c1        1 1LS      0.054000
     20 C16        10.2710   -3.9150   -1.1680 c1        1 1LS      0.251000
     21 O19         4.3540   -3.0010   -6.1820 o         1 1LS     -0.968500
     22 O20         6.6430   -3.3960   -6.5600 o         1 1LS     -0.968500
     23 N21         5.4440   -2.0130   -8.3290 n3        1 1LS     -0.561000
     24 C23         3.4950   -0.4440   -8.0580 c3        1 1LS     -0.178000
     25 C25         3.5810    1.9280   -7.2940 c3        1 1LS     -0.212000
     26 H1          0.1190   -3.7280   -3.1080 h4        1 1LS      0.145000
     27 H2          0.8520   -0.9700   -2.4810 hn        1 1LS      0.159000
     28 H3         -2.1640   -3.1670   -2.6350 ha        1 1LS      0.164000
     29 H4          3.7500   -2.5490   -1.2580 h5        1 1LS      0.185000
     30 H5          2.6250   -5.1570  -10.2900 ha        1 1LS      0.181500
     31 H6          9.7120   -3.9360   -4.4420 h4        1 1LS      0.169000
     32 H9          5.2940    0.7600   -7.9120 hc        1 1LS      0.093000
     33 H10         4.1790    1.2270   -9.2480 hc        1 1LS      0.093000
     34 H11         3.6360    1.6250   -6.2210 hc        1 1LS      0.077333
     35 H12         7.5180   -1.7970   -8.2960 ha        1 1LS      0.107000
     36 H13        -2.0880    1.9970   -1.2160 ha        1 1LS      0.150000
     37 H14        -3.8150    1.2880   -1.1630 ha        1 1LS      0.150000
     38 H15         2.7440   -2.4620   -3.3710 hn        1 1LS      0.292500
     39 H16         7.4870   -3.4930   -4.7180 hn        1 1LS      0.281000
     40 H17         2.0560   -5.9710   -8.7120 ha        1 1LS      0.181500
     41 H18         5.8690   -5.3370   -8.1230 h4        1 1LS      0.216000
     42 H19         3.4210   -0.7490   -6.9800 hc        1 1LS      0.099000
     43 H20         2.4460   -0.3410   -8.4470 hc        1 1LS      0.099000
     44 H21         4.1140    2.9030   -7.4130 hc        1 1LS      0.077333
     45 H22         2.5070    2.0790   -7.5620 hc        1 1LS      0.077333
     46 H7          4.3580   -1.1510   -9.9220 h1        1 1LS      0.114000
     47 H82         4.2150   -2.8280   -4.1890 hn        1 1LS      0.292500
     48 S18         5.3540   -3.2590   -7.1750 s6        1 1LS      2.629000
     49 H8          3.4860   -2.4340   -8.9460 h1        1 1LS      0.114000
@<TRIPOS>BOND
     1    1   12 1   
     2    1   13 1   
     3    1   26 1   
     4    2   10 1   
     5    2   11 1   
     6    3   14 1   
     7    3   16 1   
     8    3   29 1   
     9    4   19 1   
    10    4   30 1   
    11    4   40 1   
    12    5   19 1   
    13    5   41 1   
    14    5   48 1   
    15    6   18 1   
    16    6   20 1   
    17    7   23 1   
    18    7   24 1   
    19    7   46 1   
    20    7   49 1   
    21    8   24 1   
    22    8   25 1   
    23    8   32 1   
    24    8   33 1   
    25    9   23 1   
    26    9   35 1   
    27   10   36 1   
    28   10   37 1   
    29   11   12 1   
    30   12   28 1   
    31   13   27 1   
    32   14   38 1   
    33   14   47 1   
    34   15   16 1   
    35   15   17 1   
    36   17   18 1   
    37   17   39 1   
    38   18   31 1   
    39   21   48 1   
    40   22   48 1   
    41   23   48 1   
    42   24   42 1   
    43   24   43 1   
    44   25   34 1   
    45   25   44 1   
    46   25   45 1   
@<TRIPOS>SUBSTRUCTURE
     1 1LS         1 TEMP              0 ****  ****    0 ROOT
