@<TRIPOS>MOLECULE
1LS
   48    50     1     0     0
SMALL
bcc


@<TRIPOS>ATOM
      1 C4         -7.2760   -0.1820    0.6740 ca        1 1LS      0.402200
      2 C6         -7.9190    1.1270   -1.1050 ca        1 1LS      0.402200
      3 C7         -5.1360   -1.5300    0.6740 c3        1 1LS      0.124300
      4 C13        -0.0860    0.3850   -0.3170 ca        1 1LS     -0.183000
      5 C15         2.1590    0.9360    0.4560 ca        1 1LS     -0.393500
      6 C17         0.3600    0.6310    2.0620 ca        1 1LS     -0.183000
      7 C22         4.5610   -0.8720   -1.2350 c3        1 1LS      0.224300
      8 C24         6.5730   -2.1220   -0.4070 c3        1 1LS     -0.076400
      9 C26         5.1010   -0.7970    1.1340 c3        1 1LS      0.224300
     10 C1         -6.7640    0.7940   -1.8370 ca        1 1LS     -0.247300
     11 C2         -5.8360   -0.0720   -1.2580 ca        1 1LS     -0.071000
     12 C3         -6.0890   -0.5750    0.0240 ca        1 1LS     -0.250600
     13 N5         -8.1800    0.6530    0.1290 nb        1 1LS     -0.666000
     14 N8         -4.0180   -0.9050    1.3410 n         1 1LS     -0.510900
     15 C9         -2.8160   -0.6730    0.6720 c         1 1LS      0.574400
     16 S10        -2.5320   -1.3330   -0.7810 s         1 1LS     -0.557400
     17 N11        -1.8980    0.1210    1.3610 n         1 1LS     -0.430100
     18 C12        -0.5550    0.3510    1.0120 ca        1 1LS      0.118600
     19 C14         1.2500    0.6740   -0.5720 ca        1 1LS      0.002500
     20 C16         1.6850    0.9160    1.7740 ca        1 1LS      0.002500
     21 O19         3.8180    1.9700   -1.1300 o         1 1LS     -0.654800
     22 O20         4.2940    2.0200    1.2290 o         1 1LS     -0.654800
     23 N21         4.4830   -0.1440    0.0070 n3        1 1LS     -0.816500
     24 C23         5.9690   -1.3670   -1.5720 c3        1 1LS     -0.089400
     25 C25         6.5230   -1.2910    0.8570 c3        1 1LS     -0.089400
     26 H1         -7.5210   -0.5600    1.6830 h4        1 1LS      0.019100
     27 H2         -8.6790    1.8100   -1.5260 h4        1 1LS      0.025100
     28 H3         -5.6810   -2.1270    1.4640 h1        1 1LS      0.089200
     29 H4         -4.7380   -2.2470   -0.1080 h1        1 1LS      0.089200
     30 H5         -0.7690    0.1700   -1.1600 ha        1 1LS      0.163500
     31 H6          0.0290    0.6270    3.1120 ha        1 1LS      0.163500
     32 H8          4.2010   -0.2030   -2.0710 h1        1 1LS      0.050950
     33 H9          6.0090   -3.0790   -0.2490 hc        1 1LS      0.042700
     34 H10         7.6350   -2.3920   -0.6410 hc        1 1LS      0.042700
     35 H11         5.1300   -0.0750    2.0010 h1        1 1LS      0.050950
     36 H12         4.4700   -1.6840    1.4330 h1        1 1LS      0.050950
     37 H13        -6.6020    1.2080   -2.8410 ha        1 1LS      0.149000
     38 H14        -4.9120   -0.3640   -1.7890 ha        1 1LS      0.168000
     39 H15        -4.2610   -0.3360    2.1230 hn        1 1LS      0.300500
     40 H16        -2.1180    0.3920    2.3000 hn        1 1LS      0.312500
     41 H17         1.5960    0.7150   -1.6210 ha        1 1LS      0.155000
     42 H18         2.3830    1.1450    2.5990 ha        1 1LS      0.155000
     43 H19         5.9010   -2.0330   -2.4700 hc        1 1LS      0.051450
     44 H20         6.6240   -0.4970   -1.8400 hc        1 1LS      0.051450
     45 H21         6.8590   -1.9010    1.7340 hc        1 1LS      0.051450
     46 H22         7.2170   -0.4160    0.7630 hc        1 1LS      0.051450
     47 S18         3.7710    1.3130    0.1210 sy        1 1LS      1.511200
     48 H7          3.8750   -1.7670   -1.1780 h1        1 1LS      0.050950
@<TRIPOS>BOND
     1    1   12 ar  
     2    1   13 ar  
     3    1   26 1   
     4    2   10 ar  
     5    2   13 ar  
     6    2   27 1   
     7    3   12 1   
     8    3   14 1   
     9    3   28 1   
    10    3   29 1   
    11    4   18 ar  
    12    4   19 ar  
    13    4   30 1   
    14    5   19 ar  
    15    5   20 ar  
    16    5   47 1   
    17    6   18 ar  
    18    6   20 ar  
    19    6   31 1   
    20    7   23 1   
    21    7   24 1   
    22    7   32 1   
    23    7   48 1   
    24    8   24 1   
    25    8   25 1   
    26    8   33 1   
    27    8   34 1   
    28    9   23 1   
    29    9   25 1   
    30    9   35 1   
    31    9   36 1   
    32   10   11 ar  
    33   10   37 1   
    34   11   12 ar  
    35   11   38 1   
    36   14   15 1   
    37   14   39 1   
    38   15   16 2   
    39   15   17 1   
    40   17   18 1   
    41   17   40 1   
    42   19   41 1   
    43   20   42 1   
    44   21   47 2   
    45   22   47 2   
    46   23   47 1   
    47   24   43 1   
    48   24   44 1   
    49   25   45 1   
    50   25   46 1   
@<TRIPOS>SUBSTRUCTURE
     1 1LS         1 TEMP              0 ****  ****    0 ROOT
