@<TRIPOS>MOLECULE
1LT
   53    55     1     0     0
SMALL
bcc


@<TRIPOS>ATOM
      1 C1          0.1850   -1.1930    0.2150 cc        1 1LT      0.384600
      2 C2          0.3600   -0.5220    2.3370 cd        1 1LT      0.394300
      3 C3         -1.1270    0.4540    3.9540 c         1 1LT      0.756100
      4 O1         -3.9630    2.9910    6.3950 o         1 1LT     -0.406100
      5 C11         2.5360   -1.5270   -1.8360 ca        1 1LT     -0.217300
      6 C12         3.3970   -1.3260   -2.9300 ca        1 1LT      0.408200
      7 C13         3.8470    0.8600   -2.3240 ca        1 1LT      0.410600
      8 C14         3.0060    0.7480   -1.1960 ca        1 1LT     -0.232300
      9 C15         4.5770    2.1680   -2.5700 c3        1 1LT     -0.113300
     10 C16         5.4600    2.4920   -1.3740 c3        1 1LT     -0.096600
     11 C17         5.4280    2.1470   -3.8330 c3        1 1LT     -0.096600
     12 C18         3.5240    3.3340   -2.7440 c3        1 1LT      0.622900
     13 F2          2.5740    3.1070   -3.7040 f         1 1LT     -0.238300
     14 F           2.8030    3.6400   -1.6140 f         1 1LT     -0.238300
     15 F1          4.0920    4.5330   -3.0950 f         1 1LT     -0.238300
     16 N4          4.0360   -0.1730   -3.1830 nb        1 1LT     -0.635000
     17 C10         2.3310   -0.4600   -0.9520 ca        1 1LT      0.014000
     18 C9          1.4530   -0.5820    0.1880 cd        1 1LT     -0.156400
     19 C          -0.4720   -1.8260   -0.9540 c3        1 1LT     -0.137400
     20 S           1.8480    0.0360    1.6930 ss        1 1LT      0.044700
     21 N          -0.4370   -1.1570    1.4480 nc        1 1LT     -0.630000
     22 N1          0.0330   -0.3010    3.6970 n         1 1LT     -0.458400
     23 O          -1.5510    1.3160    3.1420 o         1 1LT     -0.658100
     24 N2         -1.7360    0.4270    5.2390 n         1 1LT     -0.476800
     25 C7         -3.1010    0.9200    5.3450 c3        1 1LT      0.042700
     26 C8         -3.1750    2.4180    5.6620 c         1 1LT      0.538100
     27 N3         -2.2200    3.3100    4.9140 n4        1 1LT     -0.759400
     28 C6         -3.8110    0.1150    6.4620 c3        1 1LT     -0.088400
     29 C5         -2.7360   -0.7540    7.1020 c3        1 1LT     -0.095400
     30 C4         -1.5100   -0.6660    6.1820 c3        1 1LT      0.064000
     31 H1          2.0430   -2.4970   -1.6830 ha        1 1LT      0.155000
     32 H2          3.5860   -2.1410   -3.6560 h4        1 1LT      0.039100
     33 H3          2.8610    1.6080   -0.5260 ha        1 1LT      0.155000
     34 H4          4.8550    2.5690   -0.4400 hc        1 1LT      0.060700
     35 H5          6.2290    1.6930   -1.2460 hc        1 1LT      0.060700
     36 H6          5.9790    3.4680   -1.5450 hc        1 1LT      0.060700
     37 H7          5.9450    3.1310   -3.9520 hc        1 1LT      0.060700
     38 H8          6.1990    1.3430   -3.7660 hc        1 1LT      0.060700
     39 H9          4.7900    1.9670   -4.7320 hc        1 1LT      0.060700
     40 H10        -1.5800   -1.6760   -0.9280 hc        1 1LT      0.066033
     41 H11        -0.0710   -1.3830   -1.9000 hc        1 1LT      0.066033
     42 H12        -0.2660   -2.9260   -0.9540 hc        1 1LT      0.066033
     43 H13         0.1820   -1.1100    4.2740 hn        1 1LT      0.322500
     44 H14        -3.6550    0.8160    4.3580 h1        1 1LT      0.125700
     45 H15        -2.2440    3.0660    3.9060 hn        1 1LT      0.478133
     46 H16        -2.4620    4.2980    5.0430 hn        1 1LT      0.478133
     47 H17        -4.2960    0.7870    7.2120 hc        1 1LT      0.093700
     48 H18        -4.6110   -0.5140    5.9950 hc        1 1LT      0.093700
     49 H19        -2.4810   -0.3840    8.1270 hc        1 1LT      0.083200
     50 H20        -3.0790   -1.8140    7.1980 hc        1 1LT      0.083200
     51 H21        -1.3710   -1.6480    5.6480 h1        1 1LT      0.071200
     52 H22        -0.5750   -0.4390    6.7640 h1        1 1LT      0.071200
     53 H33        -1.2660    3.1460    5.2510 hn        1 1LT      0.478133
@<TRIPOS>BOND
     1    1   18 2   
     2    1   19 1   
     3    1   21 1   
     4    2   20 1   
     5    2   21 2   
     6    2   22 1   
     7    3   22 1   
     8    3   23 2   
     9    3   24 1   
    10    4   26 2   
    11    5    6 ar  
    12    5   17 ar  
    13    5   31 1   
    14    6   16 ar  
    15    6   32 1   
    16    7    8 ar  
    17    7    9 1   
    18    7   16 ar  
    19    8   17 ar  
    20    8   33 1   
    21    9   10 1   
    22    9   11 1   
    23    9   12 1   
    24   10   34 1   
    25   10   35 1   
    26   10   36 1   
    27   11   37 1   
    28   11   38 1   
    29   11   39 1   
    30   12   13 1   
    31   12   14 1   
    32   12   15 1   
    33   17   18 1   
    34   18   20 1   
    35   19   40 1   
    36   19   41 1   
    37   19   42 1   
    38   22   43 1   
    39   24   25 1   
    40   24   30 1   
    41   25   26 1   
    42   25   28 1   
    43   25   44 1   
    44   26   27 1   
    45   27   45 1   
    46   27   46 1   
    47   27   53 1   
    48   28   29 1   
    49   28   47 1   
    50   28   48 1   
    51   29   30 1   
    52   29   49 1   
    53   29   50 1   
    54   30   51 1   
    55   30   52 1   
@<TRIPOS>SUBSTRUCTURE
     1 1LT         1 TEMP              0 ****  ****    0 ROOT
