@<TRIPOS>MOLECULE
1LT
   54    56     1     0     0
SMALL
bcc


@<TRIPOS>ATOM
      1 C1          0.3060    0.2870    0.8610 cc        1 1LT      0.399600
      2 C2          0.0910   -1.3250    2.3860 cd        1 1LT      0.241300
      3 C3         -1.7160   -1.2680    4.0580 c         1 1LT      0.684100
      4 O1         -3.4870    2.2000    3.7680 o         1 1LT     -0.345100
      5 C11         1.9660   -1.4570   -1.8590 ca        1 1LT     -0.219300
      6 C12         2.7730   -1.2280   -2.9900 ca        1 1LT      0.423200
      7 C13         3.7010    0.6930   -2.0900 ca        1 1LT      0.425600
      8 C14         2.9550    0.5250   -0.9000 ca        1 1LT     -0.209300
      9 C15         4.6210    1.8950   -2.2100 c3        1 1LT     -0.118300
     10 C16         5.6330    1.8910   -1.0750 c3        1 1LT     -0.100100
     11 C17         5.3580    1.9510   -3.5420 c3        1 1LT     -0.100100
     12 C18         3.7490    3.2110   -2.1070 c3        1 1LT      0.622900
     13 F2          2.7480    3.2990   -3.0380 f         1 1LT     -0.235633
     14 F           3.1000    3.3800   -0.9050 f         1 1LT     -0.235633
     15 F1          4.4760    4.3620   -2.2540 f         1 1LT     -0.235633
     16 N4          3.6090   -0.1850   -3.1180 nb        1 1LT     -0.604000
     17 C10         2.0580   -0.5480   -0.7960 ca        1 1LT     -0.047000
     18 C9          1.2330   -0.6880    0.3830 cd        1 1LT     -0.102400
     19 C           0.0430    1.5770    0.1760 c3        1 1LT     -0.150400
     20 S           1.2570   -2.0150    1.3650 ss        1 1LT      0.228700
     21 N          -0.3440   -0.0840    2.0020 nc        1 1LT     -0.629000
     22 N1         -0.4570   -1.9670    3.5700 n4        1 1LT     -0.562500
     23 O          -2.7880   -1.7730    3.6750 o         1 1LT     -0.575100
     24 N2         -1.6250   -0.1700    4.8610 n         1 1LT     -0.421800
     25 C7         -2.8330    0.4520    5.3960 c3        1 1LT      0.062700
     26 C8         -3.6660    1.1140    4.2840 c         1 1LT      0.512100
     27 N3         -4.8460    0.3250    3.7780 n4        1 1LT     -0.761400
     28 C6         -2.3650    1.5310    6.4050 c3        1 1LT     -0.086400
     29 C5         -0.8420    1.5710    6.3330 c3        1 1LT     -0.091400
     30 C4         -0.4050    0.4620    5.3650 c3        1 1LT      0.076000
     31 H1          1.2780   -2.3120   -1.8370 ha        1 1LT      0.152000
     32 H2          2.7400   -1.9190   -3.8570 h4        1 1LT      0.057100
     33 H3          3.0700    1.2410   -0.0720 ha        1 1LT      0.163000
     34 H4          5.1240    1.9250   -0.0820 hc        1 1LT      0.066700
     35 H5          6.2970    2.7870   -1.1640 hc        1 1LT      0.066700
     36 H6          6.2640    0.9720   -1.1330 hc        1 1LT      0.066700
     37 H7          4.6360    2.0130   -4.3910 hc        1 1LT      0.066700
     38 H8          5.9950    1.0430   -3.6700 hc        1 1LT      0.066700
     39 H9          6.0150    2.8560   -3.5650 hc        1 1LT      0.066700
     40 H10        -0.5150    1.3820   -0.7760 hc        1 1LT      0.085367
     41 H11        -0.5590    2.2740    0.8090 hc        1 1LT      0.085367
     42 H12         1.0140    2.0770   -0.0820 hc        1 1LT      0.085367
     43 H13        -0.7360   -2.9340    3.3260 hn        1 1LT      0.481800
     44 H14        -3.4590   -0.3340    5.9150 h1        1 1LT      0.111700
     45 H15        -5.2960    0.8210    2.9950 hn        1 1LT      0.484467
     46 H16        -5.5370    0.2010    4.5270 hn        1 1LT      0.484467
     47 H17        -2.8000    2.5340    6.1580 hc        1 1LT      0.106700
     48 H18        -2.7120    1.2440    7.4320 hc        1 1LT      0.106700
     49 H19        -0.4860    2.5660    5.9610 hc        1 1LT      0.105700
     50 H20        -0.3910    1.4040    7.3450 hc        1 1LT      0.105700
     51 H21         0.1840    0.8880    4.5050 h1        1 1LT      0.086700
     52 H22         0.2180   -0.3080    5.9010 h1        1 1LT      0.086700
     53 H121        0.2620   -1.9840    4.3080 hn        1 1LT      0.481800
     54 H33        -4.5360   -0.6050    3.4560 hn        1 1LT      0.484467
@<TRIPOS>BOND
     1    1   18 2   
     2    1   19 1   
     3    1   21 1   
     4    2   20 1   
     5    2   21 2   
     6    2   22 1   
     7    3   22 1   
     8    3   23 2   
     9    3   24 1   
    10    4   26 2   
    11    5    6 ar  
    12    5   17 ar  
    13    5   31 1   
    14    6   16 ar  
    15    6   32 1   
    16    7    8 ar  
    17    7    9 1   
    18    7   16 ar  
    19    8   17 ar  
    20    8   33 1   
    21    9   10 1   
    22    9   11 1   
    23    9   12 1   
    24   10   34 1   
    25   10   35 1   
    26   10   36 1   
    27   11   37 1   
    28   11   38 1   
    29   11   39 1   
    30   12   13 1   
    31   12   14 1   
    32   12   15 1   
    33   17   18 1   
    34   18   20 1   
    35   19   40 1   
    36   19   41 1   
    37   19   42 1   
    38   22   43 1   
    39   22   53 1   
    40   24   25 1   
    41   24   30 1   
    42   25   26 1   
    43   25   28 1   
    44   25   44 1   
    45   26   27 1   
    46   27   45 1   
    47   27   46 1   
    48   27   54 1   
    49   28   29 1   
    50   28   47 1   
    51   28   48 1   
    52   29   30 1   
    53   29   49 1   
    54   29   50 1   
    55   30   51 1   
    56   30   52 1   
@<TRIPOS>SUBSTRUCTURE
     1 1LT         1 TEMP              0 ****  ****    0 ROOT
