@<TRIPOS>MOLECULE
1LT
   53    55     1     0     0
SMALL
bcc


@<TRIPOS>ATOM
      1 C1          0.1330   -1.1670    0.1980 cc        1 1LT      0.384600
      2 C2          0.3600   -0.5330    2.3260 cd        1 1LT      0.394300
      3 C3         -1.0790    0.4440    3.9870 c         1 1LT      0.756100
      4 O1         -3.8220    2.9930    6.5210 o         1 1LT     -0.406100
      5 C11         2.4390   -1.5090   -1.9020 ca        1 1LT     -0.217300
      6 C12         3.2820   -1.3040   -3.0100 ca        1 1LT      0.408200
      7 C13         3.7790    0.8650   -2.3790 ca        1 1LT      0.410600
      8 C14         2.9580    0.7490   -1.2370 ca        1 1LT     -0.232300
      9 C15         4.5260    2.1650   -2.6190 c3        1 1LT     -0.113300
     10 C16         5.4360    2.4570   -1.4360 c3        1 1LT     -0.096600
     11 C17         5.3530    2.1490   -3.8980 c3        1 1LT     -0.096600
     12 C18         3.4890    3.3490   -2.7560 c3        1 1LT      0.622900
     13 F2          2.5180    3.1520   -3.7030 f         1 1LT     -0.238300
     14 F           2.7930    3.6500   -1.6090 f         1 1LT     -0.238300
     15 F1          4.0690    4.5450   -3.1000 f         1 1LT     -0.238300
     16 N4          3.9360   -0.1580   -3.2570 nb        1 1LT     -0.635000
     17 C10         2.2680   -0.4520   -0.9980 ca        1 1LT      0.014000
     18 C9          1.4100   -0.5770    0.1560 cd        1 1LT     -0.156400
     19 C          -0.5570   -1.7700   -0.9680 c3        1 1LT     -0.137400
     20 S           1.8440    0.0110    1.6630 ss        1 1LT      0.044700
     21 N          -0.4650   -1.1410    1.4440 nc        1 1LT     -0.630000
     22 N1          0.0620   -0.3280    3.6960 ns        1 1LT     -0.458400
     23 O          -1.5020    1.3270    3.1960 o         1 1LT     -0.658100
     24 N2         -1.6650    0.4070    5.2820 n         1 1LT     -0.476800
     25 C7         -3.0190    0.9240    5.4220 c3        1 1LT      0.042700
     26 C8         -3.0590    2.4180    5.7630 c         1 1LT      0.538100
     27 N3         -2.1010    3.3040    5.0130 nz        1 1LT     -0.759400
     28 C6         -3.7220    0.1140    6.5380 c3        1 1LT     -0.088400
     29 C5         -2.6520   -0.7850    7.1440 c3        1 1LT     -0.095400
     30 C4         -1.4420   -0.7050    6.2020 c3        1 1LT      0.064000
     31 H1          1.9330   -2.4730   -1.7540 ha        1 1LT      0.155000
     32 H2          3.4440   -2.1110   -3.7500 h4        1 1LT      0.039100
     33 H3          2.8400    1.6010   -0.5520 ha        1 1LT      0.155000
     34 H4          5.9670    3.4270   -1.6020 hc        1 1LT      0.060700
     35 H5          4.8490    2.5300   -0.4890 hc        1 1LT      0.060700
     36 H6          6.1940    1.6440   -1.3340 hc        1 1LT      0.060700
     37 H7          6.1120    1.3320   -3.8580 hc        1 1LT      0.060700
     38 H8          5.8840    3.1270   -4.0120 hc        1 1LT      0.060700
     39 H9          4.6960    1.9920   -4.7870 hc        1 1LT      0.060700
     40 H10        -1.6610   -1.6020   -0.9190 hc        1 1LT      0.066033
     41 H11        -0.1650   -1.3210   -1.9140 hc        1 1LT      0.066033
     42 H12        -0.3690   -2.8740   -0.9880 hc        1 1LT      0.066033
     43 H13         0.2070   -1.1480    4.2570 hn        1 1LT      0.322500
     44 H14        -3.5920    0.8460    4.4440 h1        1 1LT      0.125700
     45 H15        -2.3210    4.2930    5.1620 hn        1 1LT      0.478133
     46 H16        -1.1430    3.1170    5.3280 hn        1 1LT      0.478133
     47 H17        -4.5430   -0.4930    6.0770 hc        1 1LT      0.093700
     48 H18        -4.1810    0.7820    7.3080 hc        1 1LT      0.093700
     49 H19        -2.3720   -0.4370    8.1700 hc        1 1LT      0.083200
     50 H20        -3.0130   -1.8410    7.2290 hc        1 1LT      0.083200
     51 H21        -1.3320   -1.6800    5.6500 h1        1 1LT      0.071200
     52 H22        -0.4930   -0.5050    6.7710 h1        1 1LT      0.071200
     53 H33        -2.1470    3.0770    4.0010 hn        1 1LT      0.478133
@<TRIPOS>BOND
     1    1   18 2   
     2    1   19 1   
     3    1   21 1   
     4    2   20 1   
     5    2   21 2   
     6    2   22 1   
     7    3   22 1   
     8    3   23 2   
     9    3   24 1   
    10    4   26 2   
    11    5    6 ar  
    12    5   17 ar  
    13    5   31 1   
    14    6   16 ar  
    15    6   32 1   
    16    7    8 ar  
    17    7    9 1   
    18    7   16 ar  
    19    8   17 ar  
    20    8   33 1   
    21    9   10 1   
    22    9   11 1   
    23    9   12 1   
    24   10   34 1   
    25   10   35 1   
    26   10   36 1   
    27   11   37 1   
    28   11   38 1   
    29   11   39 1   
    30   12   13 1   
    31   12   14 1   
    32   12   15 1   
    33   17   18 1   
    34   18   20 1   
    35   19   40 1   
    36   19   41 1   
    37   19   42 1   
    38   22   43 1   
    39   24   25 1   
    40   24   30 1   
    41   25   26 1   
    42   25   28 1   
    43   25   44 1   
    44   26   27 1   
    45   27   45 1   
    46   27   46 1   
    47   27   53 1   
    48   28   29 1   
    49   28   47 1   
    50   28   48 1   
    51   29   30 1   
    52   29   49 1   
    53   29   50 1   
    54   30   51 1   
    55   30   52 1   
@<TRIPOS>SUBSTRUCTURE
     1 1LT         1 TEMP              0 ****  ****    0 ROOT
