@<TRIPOS>MOLECULE
1LU
   20    19     1     0     0
SMALL
bcc


@<TRIPOS>ATOM
      1 OS         -0.0950    0.0310   -0.0100 oh        1 1LU     -0.649800
      2 CA          1.3190   -0.0910   -0.0250 c3        1 1LU      0.014100
      3 C           1.9030   -0.1760    1.4100 c         1 1LU      0.892600
      4 O           1.1030    0.0670    2.3610 o         1 1LU     -0.837800
      5 CB          1.9350    1.0930   -0.7610 c3        1 1LU     -0.079400
      6 CG          1.5870    1.1130   -2.2420 c3        1 1LU     -0.071700
      7 CD1         1.7520    2.5080   -2.8090 c3        1 1LU     -0.082600
      8 CD2         2.4380    0.1330   -3.0210 c3        1 1LU     -0.082600
      9 OXT         3.1180   -0.4800    1.5460 o         1 1LU     -0.837800
     10 HOS        -0.3460    0.2660    0.8990 ho        1 1LU      0.423000
     11 HA          1.5390   -1.0470   -0.5740 h1        1 1LU      0.036700
     12 HB1         3.0460    1.0460   -0.6230 hc        1 1LU      0.045200
     13 HB2         1.5650    2.0370   -0.2830 hc        1 1LU      0.045200
     14 HG          0.5050    0.8100   -2.3440 hc        1 1LU      0.057700
     15 HD11        1.0650    3.2210   -2.2920 hc        1 1LU      0.020867
     16 HD12        1.5180    2.5190   -3.9010 hc        1 1LU      0.020867
     17 HD13        2.8010    2.8650   -2.6690 hc        1 1LU      0.020867
     18 HD21        2.1340    0.1180   -4.0960 hc        1 1LU      0.020867
     19 HD22        3.5170    0.4160   -2.9620 hc        1 1LU      0.020867
     20 HD23        2.3220   -0.8960   -2.6020 hc        1 1LU      0.020867
@<TRIPOS>BOND
     1    1    2 1   
     2    1   10 1   
     3    2    3 1   
     4    2    5 1   
     5    2   11 1   
     6    3    4 1   
     7    3    9 1   
     8    5    6 1   
     9    5   12 1   
    10    5   13 1   
    11    6    7 1   
    12    6    8 1   
    13    6   14 1   
    14    7   15 1   
    15    7   16 1   
    16    7   17 1   
    17    8   18 1   
    18    8   19 1   
    19    8   20 1   
@<TRIPOS>SUBSTRUCTURE
     1 1LU         1 TEMP              0 ****  ****    0 ROOT
