@<TRIPOS>MOLECULE
1LU
   20    19     1     0     0
SMALL
bcc


@<TRIPOS>ATOM
      1 OS         -0.0970   -0.0120   -0.0390 oh        1 1LU     -0.649800
      2 CA          1.3190   -0.1120   -0.0390 c3        1 1LU      0.014100
      3 C           1.8880   -0.2020    1.4010 c         1 1LU      0.892600
      4 O           1.0740    0.0180    2.3460 o         1 1LU     -0.837800
      5 CB          1.9240    1.0900   -0.7550 c3        1 1LU     -0.079400
      6 CG          1.5920    1.1220   -2.2400 c3        1 1LU     -0.071700
      7 CD1         1.7420    2.5260   -2.7900 c3        1 1LU     -0.082600
      8 CD2         2.4670    0.1630   -3.0200 c3        1 1LU     -0.082600
      9 OXT         3.1060   -0.4880    1.5480 o         1 1LU     -0.837800
     10 HOS        -0.3610    0.2090    0.8690 ho        1 1LU      0.423000
     11 HA          1.5610   -1.0580   -0.5960 h1        1 1LU      0.036700
     12 HB1         3.0350    1.0600   -0.6060 hc        1 1LU      0.045200
     13 HB2         1.5340    2.0230   -0.2710 hc        1 1LU      0.045200
     14 HG          0.5170    0.8030   -2.3570 hc        1 1LU      0.057700
     15 HD11        1.5190    2.5440   -3.8840 hc        1 1LU      0.020867
     16 HD12        2.7830    2.8970   -2.6340 hc        1 1LU      0.020867
     17 HD13        1.0380    3.2220   -2.2730 hc        1 1LU      0.020867
     18 HD21        3.5410    0.4630   -2.9460 hc        1 1LU      0.020867
     19 HD22        2.1760    0.1560   -4.0980 hc        1 1LU      0.020867
     20 HD23        2.3630   -0.8720   -2.6140 hc        1 1LU      0.020867
@<TRIPOS>BOND
     1    1    2 1   
     2    1   10 1   
     3    2    3 1   
     4    2    5 1   
     5    2   11 1   
     6    3    4 1   
     7    3    9 1   
     8    5    6 1   
     9    5   12 1   
    10    5   13 1   
    11    6    7 1   
    12    6    8 1   
    13    6   14 1   
    14    7   15 1   
    15    7   16 1   
    16    7   17 1   
    17    8   18 1   
    18    8   19 1   
    19    8   20 1   
@<TRIPOS>SUBSTRUCTURE
     1 1LU         1 TEMP              0 ****  ****    0 ROOT
