@<TRIPOS>MOLECULE
1LU
   20    19     1     0     0
SMALL
bcc


@<TRIPOS>ATOM
      1 OS         -1.8320   -0.8610    1.2130 oh        1 1LU     -0.649800
      2 CA         -0.4240   -0.8610    1.2130 c3        1 1LU      0.014100
      3 C           0.0800   -0.8610    2.6390 c         1 1LU      0.892600
      4 O           1.0130   -1.6350    2.9760 o         1 1LU     -0.837800
      5 CB          0.0800    0.3740    0.5000 c3        1 1LU     -0.079400
      6 CG          0.0740    0.1320   -0.9930 c3        1 1LU     -0.071700
      7 CD1        -0.7170    1.2250   -1.6780 c3        1 1LU     -0.082600
      8 CD2         1.4950    0.1380   -1.5110 c3        1 1LU     -0.082600
      9 OXT        -0.4340   -0.0860    3.4880 o         1 1LU     -0.837800
     10 HOS        -2.1280   -1.6730    1.4150 ho        1 1LU      0.423000
     11 HA         -0.0990   -1.6580    0.7530 h1        1 1LU      0.036700
     12 HB1         0.9900    0.5710    0.7950 hc        1 1LU      0.045200
     13 HB2        -0.5010    1.1300    0.7100 hc        1 1LU      0.045200
     14 HG         -0.3370   -0.7340   -1.1810 hc        1 1LU      0.057700
     15 HD11       -1.6460    1.1890   -1.3800 hc        1 1LU      0.020867
     16 HD12       -0.6800    1.0960   -2.6450 hc        1 1LU      0.020867
     17 HD13       -0.3350    2.0940   -1.4500 hc        1 1LU      0.020867
     18 HD21        2.0110   -0.5530   -1.0530 hc        1 1LU      0.020867
     19 HD22        1.4930   -0.0400   -2.4700 hc        1 1LU      0.020867
     20 HD23        1.8990    1.0110   -1.3430 hc        1 1LU      0.020867
@<TRIPOS>BOND
     1    1    2 1   
     2    1   10 1   
     3    2    3 1   
     4    2    5 1   
     5    2   11 1   
     6    3    4 1   
     7    3    9 1   
     8    5    6 1   
     9    5   12 1   
    10    5   13 1   
    11    6    7 1   
    12    6    8 1   
    13    6   14 1   
    14    7   15 1   
    15    7   16 1   
    16    7   17 1   
    17    8   18 1   
    18    8   19 1   
    19    8   20 1   
@<TRIPOS>SUBSTRUCTURE
     1 1LU         1 TEMP              0 ****  ****    0 ROOT
