@<TRIPOS>MOLECULE
1LU
   20    19     1     0     0
SMALL
bcc


@<TRIPOS>ATOM
      1 OS          0.4480    1.8140   -0.0320 oh        1 1LU     -0.649800
      2 CA          0.4820    0.4340    0.3000 c3        1 1LU      0.014100
      3 C           1.8550   -0.2040   -0.0390 c         1 1LU      0.892600
      4 O           2.6550    0.5030   -0.7180 o         1 1LU     -0.837800
      5 CB         -0.6250   -0.3050   -0.4420 c3        1 1LU     -0.079400
      6 CG         -2.0180    0.1110    0.0080 c3        1 1LU     -0.071700
      7 CD1        -3.0430   -0.2210   -1.0570 c3        1 1LU     -0.082600
      8 CD2        -2.3950   -0.5520    1.3160 c3        1 1LU     -0.082600
      9 OXT         2.0940   -1.3690    0.3780 o         1 1LU     -0.837800
     10 HOS         1.2140    1.9820   -0.6060 ho        1 1LU      0.423000
     11 HA          0.3090    0.3800    1.4090 h1        1 1LU      0.036700
     12 HB1        -0.5150   -0.0980   -1.5390 hc        1 1LU      0.045200
     13 HB2        -0.4770   -1.4040   -0.2800 hc        1 1LU      0.045200
     14 HG         -2.0080    1.2280    0.1610 hc        1 1LU      0.057700
     15 HD11       -2.8160    0.3310   -2.0010 hc        1 1LU      0.020867
     16 HD12       -3.0360   -1.3150   -1.2780 hc        1 1LU      0.020867
     17 HD13       -4.0680    0.0650   -0.7180 hc        1 1LU      0.020867
     18 HD21       -1.6380   -0.3130    2.1010 hc        1 1LU      0.020867
     19 HD22       -3.3950   -0.1950    1.6620 hc        1 1LU      0.020867
     20 HD23       -2.4380   -1.6610    1.1950 hc        1 1LU      0.020867
@<TRIPOS>BOND
     1    1    2 1   
     2    1   10 1   
     3    2    3 1   
     4    2    5 1   
     5    2   11 1   
     6    3    4 1   
     7    3    9 1   
     8    5    6 1   
     9    5   12 1   
    10    5   13 1   
    11    6    7 1   
    12    6    8 1   
    13    6   14 1   
    14    7   15 1   
    15    7   16 1   
    16    7   17 1   
    17    8   18 1   
    18    8   19 1   
    19    8   20 1   
@<TRIPOS>SUBSTRUCTURE
     1 1LU         1 TEMP              0 ****  ****    0 ROOT
