@<TRIPOS>MOLECULE
1LW
   26    28     1     0     0
SMALL
bcc


@<TRIPOS>ATOM
      1 C01        -0.0250    0.0260   -0.0290 cc        1 1LW     -0.112200
      2 C02         1.3390    0.0170    0.0650 cd        1 1LW     -0.175400
      3 S03         1.8990   -0.0100    1.6520 ss        1 1LW     -0.039900
      4 C04         0.3280   -0.0130    2.3120 ca        1 1LW      0.445600
      5 C05        -0.6450    0.0060    1.2680 ca        1 1LW     -0.257100
      6 C06        -2.0210    0.0110    1.6250 ca        1 1LW      0.225600
      7 C07        -2.3380   -0.0330    3.0060 ca        1 1LW     -0.268600
      8 C08        -1.2780   -0.0330    3.9580 ca        1 1LW      0.470600
      9 N09         0.0300   -0.0250    3.6270 nb        1 1LW     -0.676000
     10 C10        -1.5900   -0.0640    5.4320 c3        1 1LW     -0.131700
     11 C11        -2.9810    0.4450    5.7360 c3        1 1LW     -0.078400
     12 C12        -3.9970   -0.2900    4.8940 c3        1 1LW     -0.075400
     13 C13        -3.7660   -0.0370    3.4190 c3        1 1LW     -0.017100
     14 N14        -2.9910    0.1310    0.6410 nh        1 1LW     -0.829200
     15 H011       -0.5890    0.0520   -0.9640 ha        1 1LW      0.147000
     16 H021        2.0310    0.0290   -0.7760 h4        1 1LW      0.170000
     17 H101       -1.4910   -1.1290    5.7820 hc        1 1LW      0.065200
     18 H102       -0.8380    0.5450    6.0030 hc        1 1LW      0.065200
     19 H112       -3.0400    1.5450    5.5300 hc        1 1LW      0.047200
     20 H111       -3.2010    0.2920    6.8240 hc        1 1LW      0.047200
     21 H121       -3.9300   -1.3900    5.1050 hc        1 1LW      0.042200
     22 H122       -5.0330    0.0410    5.1670 hc        1 1LW      0.042200
     23 H132       -4.3260   -0.8280    2.8450 hc        1 1LW      0.040700
     24 H131       -4.2180    0.9560    3.1430 hc        1 1LW      0.040700
     25 H142       -3.9090   -0.1590    0.8870 hn        1 1LW      0.405800
     26 H141       -2.7070   -0.1170   -0.2790 hn        1 1LW      0.405800
@<TRIPOS>BOND
     1    1    2 2   
     2    1    5 1   
     3    1   15 1   
     4    2    3 1   
     5    2   16 1   
     6    3    4 1   
     7    4    5 ar  
     8    4    9 ar  
     9    5    6 ar  
    10    6    7 ar  
    11    6   14 1   
    12    7    8 ar  
    13    7   13 1   
    14    8    9 ar  
    15    8   10 1   
    16   10   11 1   
    17   10   17 1   
    18   10   18 1   
    19   11   12 1   
    20   11   19 1   
    21   11   20 1   
    22   12   13 1   
    23   12   21 1   
    24   12   22 1   
    25   13   23 1   
    26   13   24 1   
    27   14   25 1   
    28   14   26 1   
@<TRIPOS>SUBSTRUCTURE
     1 1LW         1 TEMP              0 ****  ****    0 ROOT
