@<TRIPOS>MOLECULE
1LW
   26    28     1     0     0
SMALL
bcc


@<TRIPOS>ATOM
      1 C01        -0.0260    0.0230   -0.0290 cc        1 1LW     -0.112200
      2 C02         1.3370    0.0160    0.0640 cd        1 1LW     -0.175400
      3 S03         1.8980   -0.0080    1.6510 ss        1 1LW     -0.039900
      4 C04         0.3280   -0.0110    2.3110 ca        1 1LW      0.445600
      5 C05        -0.6460    0.0050    1.2680 ca        1 1LW     -0.257100
      6 C06        -2.0220    0.0090    1.6250 ca        1 1LW      0.225600
      7 C07        -2.3380   -0.0330    3.0070 ca        1 1LW     -0.268600
      8 C08        -1.2780   -0.0310    3.9590 ca        1 1LW      0.470600
      9 N09         0.0290   -0.0230    3.6270 nb        1 1LW     -0.676000
     10 C10        -1.5900   -0.0610    5.4330 c3        1 1LW     -0.131700
     11 C11        -2.9810    0.4470    5.7360 c3        1 1LW     -0.078400
     12 C12        -3.9960   -0.2900    4.8960 c3        1 1LW     -0.075400
     13 C13        -3.7670   -0.0390    3.4200 c3        1 1LW     -0.017100
     14 N14        -2.9930    0.1260    0.6420 nv        1 1LW     -0.829200
     15 H011       -0.5910    0.0480   -0.9640 ha        1 1LW      0.147000
     16 H021        2.0290    0.0280   -0.7770 h4        1 1LW      0.170000
     17 H101       -0.8390    0.5500    6.0020 hc        1 1LW      0.065200
     18 H102       -1.4890   -1.1240    5.7840 hc        1 1LW      0.065200
     19 H112       -3.2010    0.2940    6.8250 hc        1 1LW      0.047200
     20 H111       -3.0420    1.5470    5.5290 hc        1 1LW      0.047200
     21 H121       -5.0330    0.0400    5.1680 hc        1 1LW      0.042200
     22 H122       -3.9280   -1.3900    5.1080 hc        1 1LW      0.042200
     23 H132       -4.2190    0.9540    3.1430 hc        1 1LW      0.040700
     24 H131       -4.3260   -0.8310    2.8470 hc        1 1LW      0.040700
     25 H142       -3.9110   -0.1640    0.8880 hn        1 1LW      0.405800
     26 H141       -2.7080   -0.1220   -0.2780 hn        1 1LW      0.405800
@<TRIPOS>BOND
     1    1    2 2   
     2    1    5 1   
     3    1   15 1   
     4    2    3 1   
     5    2   16 1   
     6    3    4 1   
     7    4    5 ar  
     8    4    9 ar  
     9    5    6 ar  
    10    6    7 ar  
    11    6   14 1   
    12    7    8 ar  
    13    7   13 1   
    14    8    9 ar  
    15    8   10 1   
    16   10   11 1   
    17   10   17 1   
    18   10   18 1   
    19   11   12 1   
    20   11   19 1   
    21   11   20 1   
    22   12   13 1   
    23   12   21 1   
    24   12   22 1   
    25   13   23 1   
    26   13   24 1   
    27   14   25 1   
    28   14   26 1   
@<TRIPOS>SUBSTRUCTURE
     1 1LW         1 TEMP              0 ****  ****    0 ROOT
