@<TRIPOS>MOLECULE
1LW
   26    22     1     0     0
SMALL
bcc


@<TRIPOS>ATOM
      1 C01         1.5080   -0.0130   -3.3470 c1        1 1LW     -0.125000
      2 C02         2.9700   -0.0130   -3.3470 c1        1 1LW     -0.416000
      3 S03         3.4510   -0.0130   -1.8600 ss        1 1LW      0.528000
      4 C04         2.1790   -0.0130   -0.9540 c1        1 1LW     -0.210000
      5 C05         1.0050   -0.0130   -1.8270 c1        1 1LW     -0.180000
      6 C06        -0.2720   -0.0150   -1.2770 c1        1 1LW      0.143000
      7 C07        -0.4300   -0.0170    0.0840 c1        1 1LW     -0.194000
      8 C08         0.7660   -0.0170    0.9700 c1        1 1LW      0.047000
      9 N09         2.0200   -0.0150    0.4250 n2        1 1LW     -0.150000
     10 C10         0.5220    0.0670    2.5330 c2        1 1LW     -0.110500
     11 C11        -0.8200    0.2870    2.9570 c3        1 1LW     -0.155500
     12 C12        -1.8680   -0.3440    2.1760 c3        1 1LW     -0.155500
     13 C13        -1.8540   -0.1130    0.7710 c2        1 1LW     -0.110500
     14 N14        -1.2760    0.1070   -2.2720 n3        1 1LW     -0.338000
     15 H011        0.9370   -0.0130   -4.1380 DU        1 1LW      0.158500
     16 H021        3.5430    0.0550   -4.1350 DU        1 1LW      0.158500
     17 H101        0.8300   -0.7700    2.9310 ha        1 1LW      0.093000
     18 H102        1.0720    0.7920    2.8860 ha        1 1LW      0.093000
     19 H112       -0.9000   -0.0270    3.8770 hc        1 1LW      0.084000
     20 H111       -0.9810    1.2500    2.9510 hc        1 1LW      0.084000
     21 H121       -1.8100   -1.3080    2.3210 hc        1 1LW      0.084000
     22 H122       -2.7270   -0.0370    2.5230 hc        1 1LW      0.084000
     23 H132       -2.3290    0.7220    0.5980 ha        1 1LW      0.093000
     24 H131       -2.3470   -0.8380    0.3420 ha        1 1LW      0.093000
     25 H142       -1.8930    0.7760   -2.2160 hn        1 1LW      0.201000
     26 H141       -1.2960   -0.4780   -2.9720 hn        1 1LW      0.201000
@<TRIPOS>BOND
     1    1    2 1   
     2    1    5 1   
     3    2    3 1   
     4    3    4 1   
     5    4    9 1   
     6    5    6 1   
     7    6   14 1   
     8    7    8 1   
     9    8    9 1   
    10   10   11 1   
    11   10   17 1   
    12   10   18 1   
    13   11   12 1   
    14   11   19 1   
    15   11   20 1   
    16   12   13 1   
    17   12   21 1   
    18   12   22 1   
    19   13   23 1   
    20   13   24 1   
    21   14   25 1   
    22   14   26 1   
@<TRIPOS>SUBSTRUCTURE
     1 1LW         1 TEMP              0 ****  ****    0 ROOT
