@<TRIPOS>MOLECULE
1LW
   27    29     1     0     0
SMALL
bcc


@<TRIPOS>ATOM
      1 C01         0.0000    0.0340   -0.0270 cc        1 1LW     -0.176200
      2 C02         1.3710    0.0580    0.0950 cd        1 1LW     -0.143400
      3 S03         1.9130    0.0550    1.6660 ss        1 1LW      0.161100
      4 C04         0.3500    0.0230    2.3130 ca        1 1LW      0.378600
      5 C05        -0.6260    0.0140    1.2570 ca        1 1LW     -0.190100
      6 C06        -1.9820   -0.0080    1.6490 ca        1 1LW     -0.018400
      7 C07        -2.3320   -0.0350    3.0030 ca        1 1LW     -0.125600
      8 C08        -1.2630   -0.0190    3.9710 ca        1 1LW      0.450600
      9 N09         0.0330    0.0110    3.6280 nb        1 1LW     -0.576000
     10 C10        -1.5860   -0.0600    5.4410 c3        1 1LW     -0.139700
     11 C11        -2.9930    0.4020    5.7400 c3        1 1LW     -0.086400
     12 C12        -3.9870   -0.3400    4.8800 c3        1 1LW     -0.077400
     13 C13        -3.7620   -0.0400    3.4120 c3        1 1LW     -0.054100
     14 N14        -3.0100   -0.0000    0.6080 n4        1 1LW     -0.701000
     15 H011       -0.5300    0.0270   -0.9810 ha        1 1LW      0.152000
     16 H021        2.0630    0.0750   -0.7540 h4        1 1LW      0.202000
     17 H101       -1.4500   -1.1230    5.7900 hc        1 1LW      0.089700
     18 H102       -0.8550    0.5720    6.0160 hc        1 1LW      0.089700
     19 H112       -3.0830    1.5070    5.5660 hc        1 1LW      0.067700
     20 H111       -3.2150    0.2150    6.8240 hc        1 1LW      0.067700
     21 H121       -5.0330   -0.0440    5.1570 hc        1 1LW      0.066700
     22 H122       -3.8930   -1.4440    5.0600 hc        1 1LW      0.066700
     23 H132       -4.3330   -0.8010    2.8120 hc        1 1LW      0.051700
     24 H131       -4.1960    0.9750    3.1800 hc        1 1LW      0.051700
     25 H142       -3.4060   -0.9430    0.5110 hn        1 1LW      0.464467
     26 H141       -3.7580    0.6530    0.8660 hn        1 1LW      0.464467
     27 H143       -2.5940    0.2880   -0.2850 hn        1 1LW      0.464467
@<TRIPOS>BOND
     1    1    2 2   
     2    1    5 1   
     3    1   15 1   
     4    2    3 1   
     5    2   16 1   
     6    3    4 1   
     7    4    5 ar  
     8    4    9 ar  
     9    5    6 ar  
    10    6    7 ar  
    11    6   14 1   
    12    7    8 ar  
    13    7   13 1   
    14    8    9 ar  
    15    8   10 1   
    16   10   11 1   
    17   10   17 1   
    18   10   18 1   
    19   11   12 1   
    20   11   19 1   
    21   11   20 1   
    22   12   13 1   
    23   12   21 1   
    24   12   22 1   
    25   13   23 1   
    26   13   24 1   
    27   14   25 1   
    28   14   26 1   
    29   14   27 1   
@<TRIPOS>SUBSTRUCTURE
     1 1LW         1 TEMP              0 ****  ****    0 ROOT
