@<TRIPOS>MOLECULE
1LW
   26    28     1     0     0
SMALL
bcc


@<TRIPOS>ATOM
      1 C01        -2.5000    1.3330   -0.0750 cc        1 1LW     -0.112200
      2 C02        -3.4720    0.3720   -0.0610 cd        1 1LW     -0.175400
      3 S03        -2.8610   -1.1960   -0.0070 ss        1 1LW     -0.039900
      4 C04        -1.2410   -0.6700    0.0010 ca        1 1LW      0.445600
      5 C05        -1.1850    0.7560   -0.0370 ca        1 1LW     -0.257100
      6 C06         0.0910    1.3830   -0.0400 ca        1 1LW      0.225600
      7 C07         1.2320    0.5450    0.0250 ca        1 1LW     -0.268600
      8 C08         1.0510   -0.8690    0.0430 ca        1 1LW      0.470600
      9 N09        -0.1560   -1.4710    0.0350 nb        1 1LW     -0.676000
     10 C10         2.2490   -1.7800    0.0970 c3        1 1LW     -0.131700
     11 C11         3.5050   -1.1100   -0.4100 c3        1 1LW     -0.078400
     12 C12         3.7190    0.2010    0.3080 c3        1 1LW     -0.075400
     13 C13         2.5840    1.1650    0.0330 c3        1 1LW     -0.017100
     14 N14         0.1850    2.7600   -0.1770 nh        1 1LW     -0.829200
     15 H011       -2.6830    2.4090   -0.1180 ha        1 1LW      0.147000
     16 H021       -4.5460    0.5570   -0.0850 h4        1 1LW      0.170000
     17 H101        2.3930   -2.0950    1.1680 hc        1 1LW      0.065200
     18 H102        2.0570   -2.7120   -0.5010 hc        1 1LW      0.065200
     19 H112        4.3810   -1.7880   -0.2400 hc        1 1LW      0.047200
     20 H111        3.4250   -0.9300   -1.5140 hc        1 1LW      0.047200
     21 H121        3.7970    0.0130    1.4120 hc        1 1LW      0.042200
     22 H122        4.6850    0.6660   -0.0210 hc        1 1LW      0.042200
     23 H132        2.7540    1.6550   -0.9660 hc        1 1LW      0.040700
     24 H131        2.6270    1.9760    0.8120 hc        1 1LW      0.040700
     25 H142       -0.6330    3.2750    0.0560 hn        1 1LW      0.405800
     26 H141        1.0380    3.1780    0.1140 hn        1 1LW      0.405800
@<TRIPOS>BOND
     1    1    2 2   
     2    1    5 1   
     3    1   15 1   
     4    2    3 1   
     5    2   16 1   
     6    3    4 1   
     7    4    5 ar  
     8    4    9 ar  
     9    5    6 ar  
    10    6    7 ar  
    11    6   14 1   
    12    7    8 ar  
    13    7   13 1   
    14    8    9 ar  
    15    8   10 1   
    16   10   11 1   
    17   10   17 1   
    18   10   18 1   
    19   11   12 1   
    20   11   19 1   
    21   11   20 1   
    22   12   13 1   
    23   12   21 1   
    24   12   22 1   
    25   13   23 1   
    26   13   24 1   
    27   14   25 1   
    28   14   26 1   
@<TRIPOS>SUBSTRUCTURE
     1 1LW         1 TEMP              0 ****  ****    0 ROOT
