@<TRIPOS>MOLECULE
1LX
   18    19     1     0     0
SMALL
bcc


@<TRIPOS>ATOM
      1 C01        -0.0720    0.0020   -0.0070 cc        1 1LX     -0.153000
      2 C02         1.3430    0.0010   -0.0500 cc        1 1LX     -0.052000
      3 C03         2.0760    0.0000    1.1340 cd        1 1LX     -0.060700
      4 N04         1.4310    0.0000    2.3620 na        1 1LX      0.006700
      5 C05         1.8810   -0.0010    3.6750 cc        1 1LX     -0.247100
      6 C06         0.7110    0.0000    4.4830 cd        1 1LX      0.072600
      7 N07        -0.4290    0.0010    3.7140 nd        1 1LX     -0.217600
      8 C08        -0.0180    0.0010    2.4110 cd        1 1LX     -0.031300
      9 C09        -0.7510    0.0030    1.1880 cd        1 1LX      0.010000
     10 N10         3.5480   -0.0010    1.1070 n4        1 1LX     -0.700000
     11 H1         -0.6230    0.0030   -0.9640 ha        1 1LX      0.185000
     12 H2          1.8440    0.0010   -1.0330 ha        1 1LX      0.170000
     13 H3          2.9290   -0.0020    3.9660 h4        1 1LX      0.185000
     14 H4          0.6660   -0.0000    5.5780 h4        1 1LX      0.216000
     15 H5         -1.8540    0.0040    1.2450 ha        1 1LX      0.203000
     16 H6          3.9100   -0.8400    1.5800 hn        1 1LX      0.471467
     17 H7          3.9120    0.8360    1.5810 hn        1 1LX      0.471467
     18 H103        3.8610   -0.0010    0.1290 hn        1 1LX      0.471467
@<TRIPOS>BOND
     1    1    2 1   
     2    1    9 2   
     3    1   11 1   
     4    2    3 2   
     5    2   12 1   
     6    3    4 1   
     7    3   10 1   
     8    4    5 1   
     9    4    8 1   
    10    5    6 2   
    11    5   13 1   
    12    6    7 1   
    13    6   14 1   
    14    7    8 2   
    15    8    9 1   
    16    9   15 1   
    17   10   16 1   
    18   10   17 1   
    19   10   18 1   
@<TRIPOS>SUBSTRUCTURE
     1 1LX         1 TEMP              0 ****  ****    0 ROOT
