@<TRIPOS>MOLECULE
1LX
   17    12     1     0     0
SMALL
bcc


@<TRIPOS>ATOM
      1 C01        -1.2170   -0.0030   -1.8320 c1        1 1LX     -0.051500
      2 C02         0.1550   -0.0030   -1.8320 c1        1 1LX     -0.183500
      3 C03         0.8500   -0.0030   -0.6290 c1        1 1LX      0.186800
      4 N04         0.1600   -0.0030    0.5680 n1        1 1LX     -0.086000
      5 C05         0.5800   -0.0030    1.8560 c1        1 1LX     -0.217000
      6 C06        -0.5340   -0.0030    2.6660 cg        1 1LX     -0.068000
      7 N07        -1.6220   -0.0030    1.8760 ne        1 1LX     -0.425400
      8 C08        -1.1980   -0.0030    0.5690 c1        1 1LX      0.242400
      9 C09        -1.9010   -0.0030   -0.6460 c1        1 1LX     -0.051500
     10 N10         2.2620    0.0120   -0.7630 n3        1 1LX     -0.787400
     11 H1         -1.7060   -0.0030   -2.6770 ha        1 1LX      0.095000
     12 H2          0.6430   -0.0030   -2.6770 ha        1 1LX      0.089500
     13 H3          1.5080   -0.0030    2.1570 DU        1 1LX      0.179000
     14 H4         -0.5330   -0.0030    3.6420 DU        1 1LX      0.179000
     15 H5         -2.8770   -0.0030   -0.6450 ha        1 1LX      0.095000
     16 H6          2.7070    0.8070   -0.8150 hn        1 1LX      0.401300
     17 H7          2.7240   -0.7720   -0.8170 hn        1 1LX      0.401300
@<TRIPOS>BOND
     1    1    9 3   
     2    1   11 1   
     3    2    3 3   
     4    2   12 1   
     5    3   10 1   
     6    4    8 2   
     7    5    6 3   
     8    6    7 1   
     9    7    8 2   
    10    9   15 1   
    11   10   16 1   
    12   10   17 1   
@<TRIPOS>SUBSTRUCTURE
     1 1LX         1 TEMP              0 ****  ****    0 ROOT
