@<TRIPOS>MOLECULE
1LX
   17    18     1     0     0
SMALL
bcc


@<TRIPOS>ATOM
      1 C01        -0.0270   -0.1230    0.0110 cc        1 1LX     -0.087000
      2 C02         1.3920   -0.1130   -0.0190 cc        1 1LX     -0.241000
      3 C03         2.1390   -0.0130    1.1560 cd        1 1LX      0.188300
      4 N04         1.4510    0.0630    2.3690 na        1 1LX     -0.010300
      5 C05         1.8960    0.1720    3.6880 cc        1 1LX     -0.244100
      6 C06         0.7320    0.2100    4.4840 cd        1 1LX      0.020600
      7 N07        -0.4130    0.1330    3.7090 nd        1 1LX     -0.293600
      8 C08         0.0140    0.0470    2.4160 cd        1 1LX     -0.002300
      9 C09        -0.7180   -0.0500    1.1880 cd        1 1LX     -0.131000
     10 N10         3.5440    0.0890    1.1390 nv        1 1LX     -0.813200
     11 H1         -0.5630   -0.1950   -0.9480 ha        1 1LX      0.141000
     12 H2          1.9030   -0.1740   -0.9890 ha        1 1LX      0.147000
     13 H3          2.9460    0.2320    3.9590 h4        1 1LX      0.178000
     14 H4          0.6750    0.2890    5.5700 h4        1 1LX      0.180000
     15 H5         -1.8150   -0.0590    1.2420 ha        1 1LX      0.164000
     16 H6          4.0080   -0.2350    1.9600 hn        1 1LX      0.401300
     17 H7          3.9410   -0.2720    0.2980 hn        1 1LX      0.401300
@<TRIPOS>BOND
     1    1    2 1   
     2    1    9 2   
     3    1   11 1   
     4    2    3 2   
     5    2   12 1   
     6    3    4 1   
     7    3   10 1   
     8    4    5 1   
     9    4    8 1   
    10    5    6 2   
    11    5   13 1   
    12    6    7 1   
    13    6   14 1   
    14    7    8 2   
    15    8    9 1   
    16    9   15 1   
    17   10   16 1   
    18   10   17 1   
@<TRIPOS>SUBSTRUCTURE
     1 1LX         1 TEMP              0 ****  ****    0 ROOT
