@<TRIPOS>MOLECULE
1LX
   17    18     1     0     0
SMALL
bcc


@<TRIPOS>ATOM
      1 C01         1.5510    1.6560   -0.0030 cc        1 1LX     -0.087000
      2 C02         2.0280    0.3200   -0.0330 cc        1 1LX     -0.241000
      3 C03         1.1460   -0.7620   -0.0500 cd        1 1LX      0.188300
      4 N04        -0.2240   -0.4940   -0.0240 na        1 1LX     -0.010300
      5 C05        -1.3390   -1.3350   -0.0360 cc        1 1LX     -0.244100
      6 C06        -2.4630   -0.4830    0.0020 cd        1 1LX      0.020600
      7 N07        -2.0870    0.8490    0.0330 nd        1 1LX     -0.293600
      8 C08        -0.7220    0.8540    0.0140 cd        1 1LX     -0.002300
      9 C09         0.2140    1.9390    0.0240 cd        1 1LX     -0.131000
     10 N10         1.5990   -2.0900   -0.1710 nh        1 1LX     -0.813200
     11 H1          2.2940    2.4690    0.0010 ha        1 1LX      0.141000
     12 H2          3.1120    0.1430   -0.0530 ha        1 1LX      0.147000
     13 H3         -1.2680   -2.4180   -0.0880 h4        1 1LX      0.178000
     14 H4         -3.5140   -0.7750    0.0070 h4        1 1LX      0.180000
     15 H5         -0.1840    2.9620    0.0510 ha        1 1LX      0.164000
     16 H6          2.5480   -2.1960    0.1180 hn        1 1LX      0.401300
     17 H7          0.9950   -2.7860    0.2100 hn        1 1LX      0.401300
@<TRIPOS>BOND
     1    1    2 1   
     2    1    9 2   
     3    1   11 1   
     4    2    3 2   
     5    2   12 1   
     6    3    4 1   
     7    3   10 1   
     8    4    5 1   
     9    4    8 1   
    10    5    6 2   
    11    5   13 1   
    12    6    7 1   
    13    6   14 1   
    14    7    8 2   
    15    8    9 1   
    16    9   15 1   
    17   10   16 1   
    18   10   17 1   
@<TRIPOS>SUBSTRUCTURE
     1 1LX         1 TEMP              0 ****  ****    0 ROOT
