@<TRIPOS>MOLECULE
1LX
   17    18     1     0     0
SMALL
bcc


@<TRIPOS>ATOM
      1 C01        -0.0420    0.0020   -0.0280 cc        1 1LX     -0.130000
      2 C02         1.3800    0.0010   -0.0690 cc        1 1LX     -0.125000
      3 C03         2.1370   -0.0000    1.0950 cd        1 1LX      0.111300
      4 N04         1.4560   -0.0000    2.3220 na        1 1LX     -0.011300
      5 C05         1.9120   -0.0010    3.6370 cc        1 1LX     -0.252100
      6 C06         0.7530   -0.0000    4.4500 cd        1 1LX      0.018600
      7 N07        -0.3970    0.0010    3.6860 nd        1 1LX     -0.284600
      8 C08         0.0230    0.0010    2.3820 cd        1 1LX     -0.033300
      9 C09        -0.7210    0.0020    1.1580 cd        1 1LX     -0.085000
     10 N10         3.5590   -0.0010    1.0360 nh        1 1LX     -0.788200
     11 H1         -0.5860    0.0030   -0.9850 ha        1 1LX      0.145000
     12 H2          1.8890    0.0010   -1.0450 ha        1 1LX      0.163000
     13 H3          2.9650   -0.0020    3.9020 h4        1 1LX      0.175000
     14 H4          0.7110   -0.0000    5.5400 h4        1 1LX      0.180000
     15 H5         -1.8180    0.0020    1.2220 ha        1 1LX      0.165000
     16 H6          3.9430    0.8180    1.4680 hn        1 1LX      0.375800
     17 H7          3.9410   -0.8250    1.4600 hn        1 1LX      0.375800
@<TRIPOS>BOND
     1    1    2 1   
     2    1    9 2   
     3    1   11 1   
     4    2    3 2   
     5    2   12 1   
     6    3    4 1   
     7    3   10 1   
     8    4    5 1   
     9    4    8 1   
    10    5    6 2   
    11    5   13 1   
    12    6    7 1   
    13    6   14 1   
    14    7    8 2   
    15    8    9 1   
    16    9   15 1   
    17   10   16 1   
    18   10   17 1   
@<TRIPOS>SUBSTRUCTURE
     1 1LX         1 TEMP              0 ****  ****    0 ROOT
