@<TRIPOS>MOLECULE
1LY
   17    18     1     0     0
SMALL
bcc


@<TRIPOS>ATOM
      1 CAC        -0.0390   -0.1870    0.0080 cc        1 1LY     -0.162000
      2 CAD         1.3250   -0.2170   -0.0230 cd        1 1LY     -0.056000
      3 CAI         2.0660   -0.0970    1.1950 cd        1 1LY     -0.069300
      4 NAG         3.4160   -0.0960    1.4380 nc        1 1LY     -0.278600
      5 CAB         3.5470    0.0520    2.8020 cc        1 1LY      0.006600
      6 CAE         2.2820    0.1460    3.4380 cd        1 1LY     -0.236100
      7 NAJ         1.3410    0.0530    2.4220 na        1 1LY      0.051700
      8 CAF        -0.0340    0.0890    2.4420 cd        1 1LY     -0.169300
      9 CAH        -0.7550   -0.0370    1.2550 cc        1 1LY      0.106600
     10 NAA        -2.1530   -0.1040    1.2690 nv        1 1LY     -0.803200
     11 H1         -0.6150   -0.2870   -0.9250 ha        1 1LY      0.143000
     12 H2          1.8900   -0.3340   -0.9600 ha        1 1LY      0.164000
     13 H3          4.5270    0.0850    3.2800 h4        1 1LY      0.179000
     14 H4          2.0130    0.2650    4.4840 h4        1 1LY      0.181000
     15 H5         -0.5060    0.2040    3.4310 h4        1 1LY      0.163000
     16 H6         -2.5720    0.3150    2.0700 hn        1 1LY      0.389300
     17 H7         -2.5740    0.1900    0.4140 hn        1 1LY      0.389300
@<TRIPOS>BOND
     1    1    2 2   
     2    1    9 1   
     3    1   11 1   
     4    2    3 1   
     5    2   12 1   
     6    3    4 2   
     7    3    7 1   
     8    4    5 1   
     9    5    6 2   
    10    5   13 1   
    11    6    7 1   
    12    6   14 1   
    13    7    8 1   
    14    8    9 2   
    15    8   15 1   
    16    9   10 1   
    17   10   16 1   
    18   10   17 1   
@<TRIPOS>SUBSTRUCTURE
     1 1LY         1 TEMP              0 ****  ****    0 ROOT
