@<TRIPOS>MOLECULE
1LY
   18    19     1     0     0
SMALL
bcc


@<TRIPOS>ATOM
      1 CAC         0.0110    0.1350   -0.0070 cc        1 1LY     -0.144000
      2 CAD         1.3750    0.1490   -0.0330 cd        1 1LY     -0.026000
      3 CAI         2.1150    0.0590    1.1920 cd        1 1LY     -0.026300
      4 NAG         3.4440    0.0510    1.4440 nc        1 1LY     -0.219600
      5 CAB         3.5770   -0.0560    2.8260 cc        1 1LY      0.060600
      6 CAE         2.3220   -0.1170    3.4630 cd        1 1LY     -0.192100
      7 NAJ         1.3680   -0.0450    2.4400 na        1 1LY     -0.007300
      8 CAF         0.0100   -0.0590    2.4560 cd        1 1LY      0.018700
      9 CAH        -0.6820    0.0300    1.2500 cc        1 1LY     -0.143400
     10 NAA        -2.1380    0.0180    1.2350 n4        1 1LY     -0.682000
     11 H1         -0.5610    0.2030   -0.9460 ha        1 1LY      0.163000
     12 H2          1.9470    0.2280   -0.9750 ha        1 1LY      0.201000
     13 H3          4.5660   -0.0840    3.2950 h4        1 1LY      0.216000
     14 H4          2.0530   -0.2030    4.5160 h4        1 1LY      0.206000
     15 H5         -0.4790   -0.1410    3.4470 h4        1 1LY      0.182000
     16 H6         -2.4630   -0.7800    0.6750 hn        1 1LY      0.464467
     17 H7         -2.5130   -0.0600    2.1860 hn        1 1LY      0.464467
     18 HAA3       -2.4780    0.8880    0.8060 hn        1 1LY      0.464467
@<TRIPOS>BOND
     1    1    2 2   
     2    1    9 1   
     3    1   11 1   
     4    2    3 1   
     5    2   12 1   
     6    3    4 2   
     7    3    7 1   
     8    4    5 1   
     9    5    6 2   
    10    5   13 1   
    11    6    7 1   
    12    6   14 1   
    13    7    8 1   
    14    8    9 2   
    15    8   15 1   
    16    9   10 1   
    17   10   16 1   
    18   10   17 1   
    19   10   18 1   
@<TRIPOS>SUBSTRUCTURE
     1 1LY         1 TEMP              0 ****  ****    0 ROOT
