@<TRIPOS>MOLECULE
1LY
   17    12     1     0     0
SMALL
bcc


@<TRIPOS>ATOM
      1 CAC        -0.8000    0.0250   -1.6220 c1        1 1LY     -0.162000
      2 CAD         0.5690    0.0250   -1.6220 c1        1 1LY     -0.056000
      3 CAI         1.2700    0.0250   -0.4060 c1        1 1LY     -0.045000
      4 NAG         2.6140    0.0250   -0.1200 n1        1 1LY     -0.138000
      5 CAB         2.7550    0.0250    1.2170 c1        1 1LY     -0.134000
      6 CAE         1.4970    0.0250    1.7770 c1        1 1LY     -0.209000
      7 NAJ         0.5910    0.0250    0.7700 n2        1 1LY     -0.024000
      8 CAF        -0.7900    0.0250    0.7700 c1        1 1LY     -0.145000
      9 CAH        -1.4860    0.0250   -0.4330 c1        1 1LY      0.025000
     10 NAA        -2.8990   -0.0940   -0.4810 n3        1 1LY     -0.312000
     11 H1         -1.2890    0.0250   -2.4670 ha        1 1LY      0.143000
     12 H2          1.0570    0.0250   -2.4670 ha        1 1LY      0.164000
     13 H3          3.6000    0.0380    1.7040 DU        1 1LY      0.180000
     14 H4          1.2950    0.0250    2.7320 DU        1 1LY      0.180000
     15 H5         -1.2780    0.0250    1.6160 ha        1 1LY      0.163000
     16 H6         -3.2830   -0.9100   -0.6130 hn        1 1LY      0.184500
     17 H7         -3.4230    0.6410   -0.3520 hn        1 1LY      0.184500
@<TRIPOS>BOND
     1    1    9 1   
     2    1   11 1   
     3    2    3 1   
     4    2   12 1   
     5    4    5 1   
     6    5    6 1   
     7    6    7 1   
     8    7    8 1   
     9    8   15 1   
    10    9   10 1   
    11   10   16 1   
    12   10   17 1   
@<TRIPOS>SUBSTRUCTURE
     1 1LY         1 TEMP              0 ****  ****    0 ROOT
