@<TRIPOS>MOLECULE
1LY
   17    18     1     0     0
SMALL
bcc


@<TRIPOS>ATOM
      1 CAC        -0.0350   -0.1670    0.0040 cc        1 1LY     -0.162000
      2 CAD         1.3290   -0.2000   -0.0240 cd        1 1LY     -0.056000
      3 CAI         2.0670   -0.0930    1.1970 cd        1 1LY     -0.069300
      4 NAG         3.4160   -0.0970    1.4440 nc        1 1LY     -0.278600
      5 CAB         3.5440    0.0350    2.8100 cc        1 1LY      0.006600
      6 CAE         2.2780    0.1250    3.4430 cd        1 1LY     -0.236100
      7 NAJ         1.3390    0.0440    2.4240 na        1 1LY      0.051700
      8 CAF        -0.0360    0.0810    2.4410 cd        1 1LY     -0.169300
      9 CAH        -0.7540   -0.0310    1.2500 cc        1 1LY      0.106600
     10 NAA        -2.1520   -0.0960    1.2600 nh        1 1LY     -0.803200
     11 H1         -0.6090   -0.2570   -0.9310 ha        1 1LY      0.143000
     12 H2          1.8970   -0.3060   -0.9600 ha        1 1LY      0.164000
     13 H3          4.5220    0.0620    3.2910 h4        1 1LY      0.179000
     14 H4          2.0060    0.2320    4.4900 h4        1 1LY      0.181000
     15 H5         -0.5100    0.1860    3.4300 h4        1 1LY      0.163000
     16 H6         -2.5700    0.2080    0.4080 hn        1 1LY      0.389300
     17 H7         -2.5730    0.3150    2.0650 hn        1 1LY      0.389300
@<TRIPOS>BOND
     1    1    2 2   
     2    1    9 1   
     3    1   11 1   
     4    2    3 1   
     5    2   12 1   
     6    3    4 2   
     7    3    7 1   
     8    4    5 1   
     9    5    6 2   
    10    5   13 1   
    11    6    7 1   
    12    6   14 1   
    13    7    8 1   
    14    8    9 2   
    15    8   15 1   
    16    9   10 1   
    17   10   16 1   
    18   10   17 1   
@<TRIPOS>SUBSTRUCTURE
     1 1LY         1 TEMP              0 ****  ****    0 ROOT
