@<TRIPOS>MOLECULE
1LY
   17    18     1     0     0
SMALL
bcc


@<TRIPOS>ATOM
      1 CAC         1.5380    1.2180    0.0320 cc        1 1LY     -0.162000
      2 CAD         0.2510    1.6700    0.0050 cd        1 1LY     -0.056000
      3 CAI        -0.8310    0.7330   -0.0050 cd        1 1LY     -0.069300
      4 NAG        -2.1890    0.9180   -0.0320 nc        1 1LY     -0.278600
      5 CAB        -2.7370   -0.3460   -0.0270 cc        1 1LY      0.006600
      6 CAE        -1.7310   -1.3470    0.0010 cd        1 1LY     -0.236100
      7 NAJ        -0.5210   -0.6660    0.0150 na        1 1LY      0.051700
      8 CAF         0.7800   -1.1120    0.0360 cd        1 1LY     -0.169300
      9 CAH         1.8330   -0.1970    0.0540 cc        1 1LY      0.106600
     10 NAA         3.1580   -0.6320    0.1780 nh        1 1LY     -0.803200
     11 H1          2.3740    1.9330    0.0470 ha        1 1LY      0.143000
     12 H2          0.0030    2.7410   -0.0090 ha        1 1LY      0.164000
     13 H3         -3.8160   -0.5010   -0.0440 h4        1 1LY      0.179000
     14 H4         -1.7980   -2.4310    0.0140 h4        1 1LY      0.181000
     15 H5          0.9230   -2.2040    0.0540 h4        1 1LY      0.163000
     16 H6          3.8230    0.0100   -0.1960 hn        1 1LY      0.389300
     17 H7          3.3090   -1.5680   -0.1300 hn        1 1LY      0.389300
@<TRIPOS>BOND
     1    1    2 2   
     2    1    9 1   
     3    1   11 1   
     4    2    3 1   
     5    2   12 1   
     6    3    4 2   
     7    3    7 1   
     8    4    5 1   
     9    5    6 2   
    10    5   13 1   
    11    6    7 1   
    12    6   14 1   
    13    7    8 1   
    14    8    9 2   
    15    8   15 1   
    16    9   10 1   
    17   10   16 1   
    18   10   17 1   
@<TRIPOS>SUBSTRUCTURE
     1 1LY         1 TEMP              0 ****  ****    0 ROOT
