@<TRIPOS>MOLECULE
1LZ
   19    20     1     0     0
SMALL
bcc


@<TRIPOS>ATOM
      1 C01         2.7060    0.7640    0.0690 cc        1 1LZ     -0.292800
      2 C02         3.0900   -0.5360   -0.2430 cd        1 1LZ     -0.103100
      3 N03         1.9720   -1.3690   -0.3430 na        1 1LZ     -0.185400
      4 C04         0.8340   -0.6070   -0.0950 ca        1 1LZ     -0.165500
      5 C05         1.2580    0.7640    0.1740 ca        1 1LZ      0.399100
      6 N06         0.3810    1.7590    0.4540 nb        1 1LZ     -0.620000
      7 C07        -0.9080    1.4160    0.4730 ca        1 1LZ      0.375200
      8 C08        -1.4120    0.1040    0.2230 ca        1 1LZ     -0.196600
      9 C09        -0.5320   -0.9300   -0.0660 ca        1 1LZ     -0.075000
     10 C10        -2.8870   -0.0980    0.2860 c3        1 1LZ      0.183700
     11 O11        -3.1910   -1.4590    0.0120 oh        1 1LZ     -0.601800
     12 H1          3.3510    1.6260    0.2100 ha        1 1LZ      0.168000
     13 H2          4.0930   -0.9390   -0.4030 h4        1 1LZ      0.167000
     14 H3          1.9820   -2.3310   -0.5540 hn        1 1LZ      0.301700
     15 H4         -1.6150    2.2330    0.7030 h4        1 1LZ      0.017100
     16 H5         -0.8970   -1.9480   -0.2620 ha        1 1LZ      0.157000
     17 H6         -3.2640    0.1730    1.3120 h1        1 1LZ      0.033700
     18 H7         -3.3930    0.5620   -0.4720 h1        1 1LZ      0.033700
     19 H8         -4.1510   -1.5350    0.0650 ho        1 1LZ      0.404000
@<TRIPOS>BOND
     1    1    2 2   
     2    1    5 1   
     3    1   12 1   
     4    2    3 1   
     5    2   13 1   
     6    3    4 1   
     7    3   14 1   
     8    4    5 ar  
     9    4    9 ar  
    10    5    6 ar  
    11    6    7 ar  
    12    7    8 ar  
    13    7   15 1   
    14    8    9 ar  
    15    8   10 1   
    16    9   16 1   
    17   10   11 1   
    18   10   17 1   
    19   10   18 1   
    20   11   19 1   
@<TRIPOS>SUBSTRUCTURE
     1 1LZ         1 TEMP              0 ****  ****    0 ROOT
