@<TRIPOS>MOLECULE
1LZ
   19    14     1     0     0
SMALL
bcc


@<TRIPOS>ATOM
      1 C01         0.0570    0.0940   -2.9170 c1        1 1LZ     -0.183000
      2 C02         1.4370    0.1230   -2.9410 c1        1 1LZ     -0.076000
      3 N03         1.8830    0.1200   -1.6490 n2        1 1LZ     -0.208000
      4 C04         0.7800    0.0890   -0.8140 c1        1 1LZ     -0.055000
      5 C05        -0.3450    0.0730   -1.5980 c1        1 1LZ     -0.039000
      6 N06        -1.5970    0.0360   -1.0110 n1        1 1LZ     -0.094000
      7 C07        -1.7140    0.0160    0.3470 c1        1 1LZ     -0.090000
      8 C08        -0.5770    0.0320    1.1440 c1        1 1LZ     -0.124000
      9 C09         0.6610    0.0690    0.5660 c2        1 1LZ     -0.075000
     10 C10        -0.6830    0.1060    2.6520 c2        1 1LZ      0.026000
     11 O11        -0.7490   -1.1990    3.1830 oh        1 1LZ     -0.329000
     12 H1         -0.5310    0.0890   -3.6960 DU        1 1LZ      0.195667
     13 H2          1.9960    0.1380   -3.7410 DU        1 1LZ      0.195667
     14 H3          2.7550    0.1360   -1.3840 DU        1 1LZ      0.195667
     15 H4         -2.5990   -0.0100    0.7600 ha        1 1LZ      0.154000
     16 H5          1.4610    0.0800    1.1250 ha        1 1LZ      0.157000
     17 H6         -1.4930    0.6000    2.8980 h4        1 1LZ      0.073000
     18 H7          0.1020    0.5660    3.0120 h4        1 1LZ      0.073000
     19 H8         -0.8430   -1.1560    4.0660 ho        1 1LZ      0.203000
@<TRIPOS>BOND
     1    1    2 1   
     2    1    5 1   
     3    2    3 1   
     4    3    4 1   
     5    4    9 1   
     6    5    6 1   
     7    7    8 1   
     8    7   15 1   
     9    8    9 1   
    10    9   16 1   
    11   10   11 1   
    12   10   17 1   
    13   10   18 1   
    14   11   19 1   
@<TRIPOS>SUBSTRUCTURE
     1 1LZ         1 TEMP              0 ****  ****    0 ROOT
