@<TRIPOS>MOLECULE
1LZ
   19    20     1     0     0
SMALL
bcc


@<TRIPOS>ATOM
      1 C01         0.0150    0.2810    0.0070 cc        1 1LZ     -0.292800
      2 C02         1.3600   -0.0790    0.0120 cd        1 1LZ     -0.103100
      3 N03         1.7890   -0.3640    1.3110 na        1 1LZ     -0.185400
      4 C04         0.7120   -0.1910    2.1760 ca        1 1LZ     -0.165500
      5 C05        -0.4430    0.2220    1.3840 ca        1 1LZ      0.399100
      6 N06        -1.6560    0.4730    1.9350 nb        1 1LZ     -0.620000
      7 C07        -1.7420    0.3220    3.2570 ca        1 1LZ      0.375200
      8 C08        -0.6680   -0.0770    4.1090 ca        1 1LZ     -0.196600
      9 C09         0.5830   -0.3390    3.5660 ca        1 1LZ     -0.075000
     10 C10        -0.9450   -0.1950    5.5680 c3        1 1LZ      0.183700
     11 O11         0.2370   -0.6000    6.2440 oh        1 1LZ     -0.601800
     12 H1         -0.5910    0.5550   -0.8510 ha        1 1LZ      0.168000
     13 H2          2.0560   -0.1540   -0.8260 h4        1 1LZ      0.167000
     14 H3          2.6950   -0.6410    1.5760 hn        1 1LZ      0.301700
     15 H4         -2.7340    0.5280    3.6970 h4        1 1LZ      0.017100
     16 H5          1.4250   -0.6480    4.2030 ha        1 1LZ      0.157000
     17 H6         -1.7570   -0.9560    5.7400 h1        1 1LZ      0.033700
     18 H7         -1.2890    0.7980    5.9710 h1        1 1LZ      0.033700
     19 H8          0.0050   -0.6610    7.1780 ho        1 1LZ      0.404000
@<TRIPOS>BOND
     1    1    2 2   
     2    1    5 1   
     3    1   12 1   
     4    2    3 1   
     5    2   13 1   
     6    3    4 1   
     7    3   14 1   
     8    4    5 ar  
     9    4    9 ar  
    10    5    6 ar  
    11    6    7 ar  
    12    7    8 ar  
    13    7   15 1   
    14    8    9 ar  
    15    8   10 1   
    16    9   16 1   
    17   10   11 1   
    18   10   17 1   
    19   10   18 1   
    20   11   19 1   
@<TRIPOS>SUBSTRUCTURE
     1 1LZ         1 TEMP              0 ****  ****    0 ROOT
