@<TRIPOS>MOLECULE
1M0
   75    81     1     0     0
SMALL
bcc


@<TRIPOS>ATOM
      1 CBK        -0.3530    0.8180    1.0340 ca        1 1M0     -0.112500
      2 CBL         0.9900    0.9490    1.3850 ca        1 1M0     -0.130000
      3 CBM         1.4890    0.2850    2.5050 ca        1 1M0     -0.121000
      4 CBN         0.6420   -0.5100    3.2770 ca        1 1M0     -0.130000
      5 CBO        -0.7030   -0.6390    2.9310 ca        1 1M0     -0.112500
      6 CBI        -1.2060    0.0250    1.8080 ca        1 1M0     -0.121300
      7 CBH        -2.6630   -0.0680    1.4490 c3        1 1M0      0.092600
      8 NBC        -3.1910   -1.3910    1.2790 na        1 1M0     -0.160300
      9 CBB        -3.6000   -2.2440    2.3180 ca        1 1M0     -0.073200
     10 CBG        -3.8890   -2.0220    3.6700 ca        1 1M0     -0.139000
     11 CBF        -4.3270   -3.1060    4.4180 ca        1 1M0     -0.114000
     12 CBE        -4.4820   -4.3830    3.8510 ca        1 1M0     -0.154000
     13 CBD        -4.2060   -4.6260    2.5130 ca        1 1M0     -0.069000
     14 CBA        -3.7570   -3.5590    1.7230 ca        1 1M0      0.066400
     15 NAZ        -3.4150   -3.5010    0.3580 nc        1 1M0     -0.555100
     16 CAY        -3.0650   -2.2190    0.1240 cd        1 1M0      0.476400
     17 CAV        -2.6510   -1.6960   -1.1830 ca        1 1M0     -0.144900
     18 CAU        -1.5730   -2.2940   -1.8510 ca        1 1M0     -0.065500
     19 CAT        -1.1790   -1.8290   -3.0990 ca        1 1M0     -0.185500
     20 CAW        -3.3450   -0.6390   -1.7790 ca        1 1M0     -0.065500
     21 CAX        -2.9620   -0.1630   -3.0320 ca        1 1M0     -0.185500
     22 CAS        -1.8780   -0.7580   -3.6880 ca        1 1M0      0.138100
     23 OAR        -1.4030   -0.3760   -4.9270 os        1 1M0     -0.330900
     24 CAQ        -2.1080    0.6970   -5.5610 c3        1 1M0      0.108400
     25 CAJ        -1.3720    0.9100   -6.9100 c3        1 1M0      0.057000
     26 CBJ        -1.6920   -0.2820   -7.8310 c3        1 1M0     -0.062200
     27 CBP        -0.8600   -0.2880   -9.0570 c2        1 1M0     -0.175200
     28 CBQ        -0.0350   -1.2810   -9.3850 c2        1 1M0     -0.214000
     29 NAI        -1.6720    2.1950   -7.4840 na        1 1M0     -0.163300
     30 CAE        -2.9410    2.6900   -7.8240 ca        1 1M0     -0.071200
     31 CAF        -4.2170    2.1120   -7.8620 ca        1 1M0     -0.138000
     32 CAA        -5.2740    2.9100   -8.2750 ca        1 1M0     -0.113000
     33 CAB        -5.0880    4.2540   -8.6460 ca        1 1M0     -0.153000
     34 CAC        -3.8380    4.8510   -8.6150 ca        1 1M0     -0.068000
     35 CAD        -2.7430    4.0800   -8.2000 ca        1 1M0      0.064400
     36 NAG        -1.3820    4.4120   -8.0680 nc        1 1M0     -0.555100
     37 CAH        -0.7690    3.2890   -7.6360 cd        1 1M0      0.473400
     38 CAK         0.6700    3.1900   -7.3630 ca        1 1M0     -0.119900
     39 CAL         1.2730    4.1500   -6.5400 ca        1 1M0     -0.099500
     40 CAM         2.6440    4.0880   -6.2950 ca        1 1M0     -0.135000
     41 CAN         3.4160    3.0790   -6.8710 ca        1 1M0     -0.114000
     42 CAO         2.8160    2.1300   -7.6990 ca        1 1M0     -0.135000
     43 CAP         1.4460    2.1830   -7.9490 ca        1 1M0     -0.099500
     44 H1         -0.7390    1.3390    0.1450 ha        1 1M0      0.138000
     45 H2          1.6560    1.5750    0.7740 ha        1 1M0      0.134500
     46 H3          2.5490    0.3880    2.7790 ha        1 1M0      0.133000
     47 H4          1.0330   -1.0380    4.1590 ha        1 1M0      0.134500
     48 H5         -1.3710   -1.2700    3.5390 ha        1 1M0      0.138000
     49 H6         -3.2600    0.4300    2.2700 h1        1 1M0      0.068700
     50 H7         -2.8460    0.4940    0.4860 h1        1 1M0      0.068700
     51 H8         -3.7760   -1.0270    4.1200 ha        1 1M0      0.135000
     52 H9         -4.5610   -2.9640    5.4840 ha        1 1M0      0.131000
     53 H10        -4.8330   -5.2080    4.4890 ha        1 1M0      0.133000
     54 H11        -4.3350   -5.6260    2.0750 ha        1 1M0      0.148000
     55 H12        -1.0410   -3.1390   -1.3850 ha        1 1M0      0.148500
     56 H13        -0.3350   -2.2850   -3.6350 ha        1 1M0      0.148500
     57 H14        -4.2100   -0.1870   -1.2690 ha        1 1M0      0.148500
     58 H15        -3.5210    0.6660   -3.4880 ha        1 1M0      0.148500
     59 H16        -3.1770    0.4040   -5.7280 h1        1 1M0      0.054200
     60 H17        -2.0540    1.6120   -4.9160 h1        1 1M0      0.054200
     61 H18        -0.2590    0.8900   -6.6910 h1        1 1M0      0.097700
     62 H19        -2.7760   -0.2620   -8.1250 hc        1 1M0      0.066200
     63 H20        -1.5200   -1.2120   -7.2240 hc        1 1M0      0.066200
     64 H21        -0.9850    0.5890   -9.7150 ha        1 1M0      0.131000
     65 H23         0.1080   -2.1700   -8.7570 ha        1 1M0      0.114500
     66 H24         0.5520   -1.2700  -10.3130 ha        1 1M0      0.114500
     67 H26        -4.3780    1.0640   -7.5770 ha        1 1M0      0.134000
     68 H27        -6.2870    2.4810   -8.3160 ha        1 1M0      0.132000
     69 H28        -5.9610    4.8410   -8.9690 ha        1 1M0      0.134000
     70 H29        -3.6960    5.9010   -8.9080 ha        1 1M0      0.149000
     71 H30         0.6660    4.9540   -6.0960 ha        1 1M0      0.148000
     72 H31         3.1180    4.8410   -5.6480 ha        1 1M0      0.137000
     73 H32         4.4980    3.0340   -6.6770 ha        1 1M0      0.135000
     74 H33         3.4250    1.3380   -8.1610 ha        1 1M0      0.137000
     75 H34         0.9760    1.4380   -8.6130 ha        1 1M0      0.148000
@<TRIPOS>BOND
     1    1    2 ar  
     2    1    6 ar  
     3    1   44 1   
     4    2    3 ar  
     5    2   45 1   
     6    3    4 ar  
     7    3   46 1   
     8    4    5 ar  
     9    4   47 1   
    10    5    6 ar  
    11    5   48 1   
    12    6    7 1   
    13    7    8 1   
    14    7   49 1   
    15    7   50 1   
    16    8    9 1   
    17    8   16 1   
    18    9   10 ar  
    19    9   14 ar  
    20   10   11 ar  
    21   10   51 1   
    22   11   12 ar  
    23   11   52 1   
    24   12   13 ar  
    25   12   53 1   
    26   13   14 ar  
    27   13   54 1   
    28   14   15 1   
    29   15   16 2   
    30   16   17 1   
    31   17   18 ar  
    32   17   20 ar  
    33   18   19 ar  
    34   18   55 1   
    35   19   22 ar  
    36   19   56 1   
    37   20   21 ar  
    38   20   57 1   
    39   21   22 ar  
    40   21   58 1   
    41   22   23 1   
    42   23   24 1   
    43   24   25 1   
    44   24   59 1   
    45   24   60 1   
    46   25   26 1   
    47   25   29 1   
    48   25   61 1   
    49   26   27 1   
    50   26   62 1   
    51   26   63 1   
    52   27   28 2   
    53   27   64 1   
    54   28   65 1   
    55   28   66 1   
    56   29   30 1   
    57   29   37 1   
    58   30   31 ar  
    59   30   35 ar  
    60   31   32 ar  
    61   31   67 1   
    62   32   33 ar  
    63   32   68 1   
    64   33   34 ar  
    65   33   69 1   
    66   34   35 ar  
    67   34   70 1   
    68   35   36 1   
    69   36   37 2   
    70   37   38 1   
    71   38   39 ar  
    72   38   43 ar  
    73   39   40 ar  
    74   39   71 1   
    75   40   41 ar  
    76   40   72 1   
    77   41   42 ar  
    78   41   73 1   
    79   42   43 ar  
    80   42   74 1   
    81   43   75 1   
@<TRIPOS>SUBSTRUCTURE
     1 1M0         1 TEMP              0 ****  ****    0 ROOT
