@<TRIPOS>MOLECULE
1M0
   75    81     1     0     0
SMALL
bcc


@<TRIPOS>ATOM
      1 CBK        -0.3510    0.8000    1.0310 ca        1 1M0     -0.112500
      2 CBL         0.9930    0.9270    1.3820 ca        1 1M0     -0.130000
      3 CBM         1.4910    0.2600    2.5010 ca        1 1M0     -0.121000
      4 CBN         0.6410   -0.5350    3.2710 ca        1 1M0     -0.130000
      5 CBO        -0.7030   -0.6600    2.9260 ca        1 1M0     -0.112500
      6 CBI        -1.2060    0.0080    1.8050 ca        1 1M0     -0.121300
      7 CBH        -2.6630   -0.0800    1.4460 c3        1 1M0      0.092600
      8 NBC        -3.1950   -1.4010    1.2740 na        1 1M0     -0.160300
      9 CBB        -3.6050   -2.2560    2.3100 ca        1 1M0     -0.073200
     10 CBG        -3.8920   -2.0370    3.6630 ca        1 1M0     -0.139000
     11 CBF        -4.3330   -3.1220    4.4080 ca        1 1M0     -0.114000
     12 CBE        -4.4910   -4.3970    3.8380 ca        1 1M0     -0.154000
     13 CBD        -4.2160   -4.6370    2.5000 ca        1 1M0     -0.069000
     14 CBA        -3.7660   -3.5690    1.7120 ca        1 1M0      0.066400
     15 NAZ        -3.4240   -3.5080    0.3470 nc        1 1M0     -0.555100
     16 CAY        -3.0720   -2.2270    0.1160 cd        1 1M0      0.476400
     17 CAV        -2.6570   -1.7000   -1.1890 ca        1 1M0     -0.144900
     18 CAU        -1.5810   -2.3000   -1.8600 ca        1 1M0     -0.065500
     19 CAT        -1.1870   -1.8330   -3.1070 ca        1 1M0     -0.185500
     20 CAW        -3.3490   -0.6400   -1.7820 ca        1 1M0     -0.065500
     21 CAX        -2.9650   -0.1610   -3.0340 ca        1 1M0     -0.185500
     22 CAS        -1.8830   -0.7580   -3.6920 ca        1 1M0      0.138100
     23 OAR        -1.4070   -0.3730   -4.9310 os        1 1M0     -0.330900
     24 CAQ        -2.1100    0.7040   -5.5600 c3        1 1M0      0.108400
     25 CAJ        -1.3730    0.9200   -6.9090 c3        1 1M0      0.057000
     26 CBJ        -1.6980   -0.2660   -7.8350 c3        1 1M0     -0.062200
     27 CBP        -0.8670   -0.2710   -9.0620 c2        1 1M0     -0.175200
     28 CBQ        -0.0470   -1.2650   -9.3940 c2        1 1M0     -0.214000
     29 NAI        -1.6680    2.2090   -7.4770 na        1 1M0     -0.163300
     30 CAE        -2.9350    2.7110   -7.8140 ca        1 1M0     -0.071200
     31 CAF        -4.2130    2.1390   -7.8540 ca        1 1M0     -0.138000
     32 CAA        -5.2670    2.9430   -8.2630 ca        1 1M0     -0.113000
     33 CAB        -5.0760    4.2870   -8.6270 ca        1 1M0     -0.153000
     34 CAC        -3.8230    4.8790   -8.5950 ca        1 1M0     -0.068000
     35 CAD        -2.7310    4.1010   -8.1840 ca        1 1M0      0.064400
     36 NAG        -1.3690    4.4270   -8.0510 nc        1 1M0     -0.555100
     37 CAH        -0.7600    3.3000   -7.6250 cd        1 1M0      0.473400
     38 CAK         0.6780    3.1940   -7.3530 ca        1 1M0     -0.119900
     39 CAL         1.2860    4.1470   -6.5260 ca        1 1M0     -0.099500
     40 CAM         2.6570    4.0780   -6.2820 ca        1 1M0     -0.135000
     41 CAN         3.4240    3.0680   -6.8630 ca        1 1M0     -0.114000
     42 CAO         2.8200    2.1250   -7.6950 ca        1 1M0     -0.135000
     43 CAP         1.4500    2.1850   -7.9440 ca        1 1M0     -0.099500
     44 H1         -0.7360    1.3240    0.1430 ha        1 1M0      0.138000
     45 H2          1.6600    1.5520    0.7710 ha        1 1M0      0.134500
     46 H3          2.5510    0.3580    2.7740 ha        1 1M0      0.133000
     47 H4          1.0320   -1.0650    4.1520 ha        1 1M0      0.134500
     48 H5         -1.3730   -1.2900    3.5330 ha        1 1M0      0.138000
     49 H6         -3.2580    0.4170    2.2690 h1        1 1M0      0.068700
     50 H7         -2.8450    0.4850    0.4850 h1        1 1M0      0.068700
     51 H8         -3.7770   -1.0440    4.1160 ha        1 1M0      0.135000
     52 H9         -4.5660   -2.9820    5.4750 ha        1 1M0      0.131000
     53 H10        -4.8430   -5.2230    4.4740 ha        1 1M0      0.133000
     54 H11        -4.3480   -5.6360    2.0580 ha        1 1M0      0.148000
     55 H12        -1.0520   -3.1480   -1.3970 ha        1 1M0      0.149000
     56 H13        -0.3440   -2.2900   -3.6450 ha        1 1M0      0.148500
     57 H14        -4.2110   -0.1870   -1.2700 ha        1 1M0      0.149000
     58 H15        -3.5220    0.6710   -3.4880 ha        1 1M0      0.148500
     59 H16        -3.1790    0.4160   -5.7280 h1        1 1M0      0.054200
     60 H17        -2.0520    1.6170   -4.9120 h1        1 1M0      0.054200
     61 H18        -0.2600    0.8940   -6.6910 h1        1 1M0      0.097700
     62 H19        -2.7820   -0.2400   -8.1280 hc        1 1M0      0.066200
     63 H20        -1.5300   -1.2000   -7.2310 hc        1 1M0      0.066200
     64 H21        -0.9890    0.6100   -9.7150 ha        1 1M0      0.131000
     65 H23         0.0930   -2.1580   -8.7700 ha        1 1M0      0.114500
     66 H24         0.5400   -1.2530  -10.3220 ha        1 1M0      0.114500
     67 H26        -4.3790    1.0900   -7.5740 ha        1 1M0      0.134000
     68 H27        -6.2820    2.5190   -8.3050 ha        1 1M0      0.132000
     69 H28        -5.9470    4.8800   -8.9470 ha        1 1M0      0.134000
     70 H29        -3.6770    5.9300   -8.8830 ha        1 1M0      0.149000
     71 H30         0.6830    4.9520   -6.0790 ha        1 1M0      0.148000
     72 H31         3.1340    4.8270   -5.6320 ha        1 1M0      0.137000
     73 H32         4.5060    3.0170   -6.6690 ha        1 1M0      0.135000
     74 H33         3.4240    1.3330   -8.1600 ha        1 1M0      0.137000
     75 H34         0.9760    1.4450   -8.6100 ha        1 1M0      0.148000
@<TRIPOS>BOND
     1    1    2 ar  
     2    1    6 ar  
     3    1   44 1   
     4    2    3 ar  
     5    2   45 1   
     6    3    4 ar  
     7    3   46 1   
     8    4    5 ar  
     9    4   47 1   
    10    5    6 ar  
    11    5   48 1   
    12    6    7 1   
    13    7    8 1   
    14    7   49 1   
    15    7   50 1   
    16    8    9 1   
    17    8   16 1   
    18    9   10 ar  
    19    9   14 ar  
    20   10   11 ar  
    21   10   51 1   
    22   11   12 ar  
    23   11   52 1   
    24   12   13 ar  
    25   12   53 1   
    26   13   14 ar  
    27   13   54 1   
    28   14   15 1   
    29   15   16 2   
    30   16   17 1   
    31   17   18 ar  
    32   17   20 ar  
    33   18   19 ar  
    34   18   55 1   
    35   19   22 ar  
    36   19   56 1   
    37   20   21 ar  
    38   20   57 1   
    39   21   22 ar  
    40   21   58 1   
    41   22   23 1   
    42   23   24 1   
    43   24   25 1   
    44   24   59 1   
    45   24   60 1   
    46   25   26 1   
    47   25   29 1   
    48   25   61 1   
    49   26   27 1   
    50   26   62 1   
    51   26   63 1   
    52   27   28 2   
    53   27   64 1   
    54   28   65 1   
    55   28   66 1   
    56   29   30 1   
    57   29   37 1   
    58   30   31 ar  
    59   30   35 ar  
    60   31   32 ar  
    61   31   67 1   
    62   32   33 ar  
    63   32   68 1   
    64   33   34 ar  
    65   33   69 1   
    66   34   35 ar  
    67   34   70 1   
    68   35   36 1   
    69   36   37 2   
    70   37   38 1   
    71   38   39 ar  
    72   38   43 ar  
    73   39   40 ar  
    74   39   71 1   
    75   40   41 ar  
    76   40   72 1   
    77   41   42 ar  
    78   41   73 1   
    79   42   43 ar  
    80   42   74 1   
    81   43   75 1   
@<TRIPOS>SUBSTRUCTURE
     1 1M0         1 TEMP              0 ****  ****    0 ROOT
