@<TRIPOS>MOLECULE
1M0
   75    60     1     0     0
SMALL
bcc


@<TRIPOS>ATOM
      1 CBK        -1.3380    2.2480    5.9660 c1        1 1M0     -0.102500
      2 CBL        -1.2260    2.9300    7.1620 c1        1 1M0     -0.123857
      3 CBM        -0.5700    2.3430    8.2400 c1        1 1M0     -0.123857
      4 CBN        -0.0240    1.0650    8.1130 c1        1 1M0     -0.123857
      5 CBO        -0.1350    0.3770    6.9100 c1        1 1M0     -0.123857
      6 CBI        -0.7890    0.9610    5.8360 c1        1 1M0     -0.041500
      7 CBH        -1.0780    0.1360    4.5820 c2        1 1M0      0.024000
      8 NBC        -0.4960   -1.2100    4.7320 n3        1 1M0     -0.185000
      9 CBB        -0.5520   -2.1280    5.7400 c1        1 1M0     -0.021000
     10 CBG        -1.1640   -2.0970    7.0150 c1        1 1M0     -0.129000
     11 CBF        -1.0410   -3.1870    7.8740 c1        1 1M0     -0.123857
     12 CBE        -0.3200   -4.3020    7.4810 c1        1 1M0     -0.123857
     13 CBD         0.2860   -4.3350    6.2200 c1        1 1M0     -0.102500
     14 CBA         0.1630   -3.2300    5.3490 c1        1 1M0     -0.041500
     15 NAZ         0.6580   -2.9900    4.0970 n1        1 1M0     -0.122000
     16 CAY         0.2520   -1.7430    3.7150 c1        1 1M0      0.051000
     17 CAV         0.5700   -1.6470    2.2090 c1        1 1M0     -0.041500
     18 CAU        -0.4380   -1.3290    1.3070 c1        1 1M0     -0.123857
     19 CAT        -0.1280   -1.1040   -0.0380 c1        1 1M0     -0.123857
     20 CAW         1.8900   -1.7400    1.7720 c1        1 1M0     -0.102500
     21 CAX         2.1990   -1.5140    0.4270 c1        1 1M0     -0.102500
     22 CAS         1.1910   -1.1970   -0.4740 c1        1 1M0     -0.041500
     23 OAR         1.5010   -1.0410   -1.8900 o         1 1M0     -0.229000
     24 CAQ         1.4090    0.3240   -2.3660 c3        1 1M0     -0.035000
     25 CAJ         1.3120    0.3260   -3.8870 c3        1 1M0      0.044000
     26 CBJ         1.8110   -0.9960   -4.4270 c3        1 1M0     -0.142000
     27 CBP         2.3830   -0.7890   -5.8390 c2        1 1M0     -0.171000
     28 CBQ         3.3890   -1.5830   -6.2880 c1        1 1M0     -0.219000
     29 NAI        -0.0370    0.5180   -4.2730 n3        1 1M0     -0.191000
     30 CAE        -1.1990   -0.1580   -4.0460 c1        1 1M0     -0.018000
     31 CAF        -1.4710   -1.3840   -3.3950 c1        1 1M0     -0.123857
     32 CAA        -2.7750   -1.8360   -3.2850 c1        1 1M0     -0.123857
     33 CAB        -3.8200   -1.0820   -3.8150 c1        1 1M0     -0.123857
     34 CAC        -3.5530    0.1230   -4.4540 c1        1 1M0     -0.123857
     35 CAD        -2.2270    0.5820   -4.5660 c1        1 1M0     -0.081000
     36 NAG        -1.6940    1.7150   -5.1150 n1        1 1M0     -0.125000
     37 CAH        -0.3430    1.6760   -4.9350 c1        1 1M0      0.049000
     38 CAK         0.1200    2.9490   -5.6810 c1        1 1M0     -0.033000
     39 CAL        -0.3700    4.1950   -5.3020 c2        1 1M0     -0.090000
     40 CAM         0.1050    5.3440   -5.9200 c1        1 1M0     -0.136000
     41 CAN         1.0720    5.2500   -6.9210 c1        1 1M0     -0.123857
     42 CAO         1.5600    4.0090   -7.2990 c1        1 1M0     -0.123857
     43 CAP         1.0850    2.8560   -6.6800 c1        1 1M0     -0.115000
     44 H1         -1.8010    2.6630    5.2060 ha        1 1M0      0.146250
     45 H2         -1.6100    3.8280    7.2520 ha        1 1M0      0.138357
     46 H3         -0.4900    2.8320    9.0950 ha        1 1M0      0.138357
     47 H4          0.4360    0.6540    8.8690 ha        1 1M0      0.138357
     48 H5          0.2470   -0.5190    6.8220 ha        1 1M0      0.138357
     49 H6         -0.6810    0.5790    3.8010 h4        1 1M0      0.108500
     50 H7         -2.0470    0.0610    4.4570 h4        1 1M0      0.108500
     51 H8         -1.6750   -1.3070    7.2940 ha        1 1M0      0.134000
     52 H9         -1.4670   -3.1640    8.7580 ha        1 1M0      0.138357
     53 H10        -0.2350   -5.0640    8.0830 ha        1 1M0      0.138357
     54 H11         0.7970   -5.1260    5.9420 ha        1 1M0      0.146250
     55 H12        -1.3670   -1.2640    1.6140 ha        1 1M0      0.138357
     56 H13        -0.8430   -0.8790   -0.6760 ha        1 1M0      0.138357
     57 H14         2.6050   -1.9650    2.4100 ha        1 1M0      0.146250
     58 H15         3.1300   -1.5800    0.1190 ha        1 1M0      0.146250
     59 H16         2.2060    0.8200   -2.0880 h1        1 1M0      0.090000
     60 H17         0.6030    0.7530   -1.9830 h1        1 1M0      0.090000
     61 H18         1.8550    1.0470   -4.2440 h1        1 1M0      0.121000
     62 H19         1.0660   -1.6360   -4.4650 hc        1 1M0      0.108000
     63 H20         2.5160   -1.3470   -3.8340 hc        1 1M0      0.108000
     64 H21         2.0240   -0.0910   -6.4090 ha        1 1M0      0.133000
     65 H23         3.7520   -2.2880   -5.7130 DU        1 1M0      0.111000
     66 H24         3.7480   -1.4520   -7.1760 ha        1 1M0      0.116000
     67 H26        -0.7350   -1.9140   -3.0210 ha        1 1M0      0.138357
     68 H27        -2.9630   -2.6850   -2.8370 ha        1 1M0      0.138357
     69 H28        -4.7370   -1.3980   -3.7360 ha        1 1M0      0.138357
     70 H29        -4.2920    0.6550   -4.8280 ha        1 1M0      0.138357
     71 H30        -1.0510    4.2610   -4.5980 ha        1 1M0      0.150000
     72 H31        -0.2430    6.2290   -5.6510 ha        1 1M0      0.137000
     73 H32         1.4110    6.0710   -7.3620 ha        1 1M0      0.138357
     74 H33         2.2390    3.9430   -8.0010 ha        1 1M0      0.138357
     75 H34         1.4300    1.9810   -6.9470 ha        1 1M0      0.145000
@<TRIPOS>BOND
     1    1    6 1   
     2    1   44 1   
     3    2    3 1   
     4    2   45 1   
     5    3   46 1   
     6    4    5 1   
     7    4   47 1   
     8    5   48 1   
     9    7    8 1   
    10    7   49 1   
    11    7   50 1   
    12    8    9 1   
    13    8   16 1   
    14    9   10 1   
    15   10   51 1   
    16   11   12 1   
    17   11   52 1   
    18   12   53 1   
    19   13   14 1   
    20   13   54 1   
    21   15   16 1   
    22   17   20 1   
    23   18   19 1   
    24   18   55 1   
    25   19   56 1   
    26   20   57 1   
    27   21   22 1   
    28   21   58 1   
    29   23   24 1   
    30   24   25 1   
    31   24   59 1   
    32   24   60 1   
    33   25   26 1   
    34   25   29 1   
    35   25   61 1   
    36   26   27 1   
    37   26   62 1   
    38   26   63 1   
    39   27   28 1   
    40   27   64 1   
    41   28   66 1   
    42   29   30 1   
    43   29   37 1   
    44   30   35 1   
    45   31   32 1   
    46   31   67 1   
    47   32   68 1   
    48   33   34 1   
    49   33   69 1   
    50   34   70 1   
    51   36   37 1   
    52   38   39 1   
    53   38   43 1   
    54   39   40 1   
    55   39   71 1   
    56   40   72 1   
    57   41   42 1   
    58   41   73 1   
    59   42   74 1   
    60   43   75 1   
@<TRIPOS>SUBSTRUCTURE
     1 1M0         1 TEMP              0 ****  ****    0 ROOT
