@<TRIPOS>MOLECULE
1M0
   75    81     1     0     0
SMALL
bcc


@<TRIPOS>ATOM
      1 CBK         3.6820   -2.4950   -0.6380 ca        1 1M0     -0.112500
      2 CBL         3.9260   -3.6560    0.0940 ca        1 1M0     -0.130000
      3 CBM         5.2100   -3.9330    0.5600 ca        1 1M0     -0.121000
      4 CBN         6.2540   -3.0470    0.2920 ca        1 1M0     -0.130000
      5 CBO         6.0140   -1.8870   -0.4440 ca        1 1M0     -0.112500
      6 CBI         4.7270   -1.6070   -0.9130 ca        1 1M0     -0.121300
      7 CBH         4.4620   -0.3840   -1.7460 c3        1 1M0      0.092600
      8 NBC         4.8550    0.8710   -1.1750 na        1 1M0     -0.160300
      9 CBB         6.1590    1.3960   -1.1800 ca        1 1M0     -0.073200
     10 CBG         7.3080    1.0750   -1.9130 ca        1 1M0     -0.139000
     11 CBF         8.4400    1.8500   -1.7020 ca        1 1M0     -0.114000
     12 CBE         8.4450    2.9200   -0.7910 ca        1 1M0     -0.154000
     13 CBD         7.3180    3.2600   -0.0560 ca        1 1M0     -0.069000
     14 CBA         6.1540    2.5010   -0.2370 ca        1 1M0      0.066400
     15 NAZ         4.8780    2.6120    0.3490 nc        1 1M0     -0.555100
     16 CAY         4.1360    1.6300   -0.2030 cd        1 1M0      0.476400
     17 CAV         2.7230    1.3840    0.1040 ca        1 1M0     -0.144900
     18 CAU         2.3380    1.1650    1.4350 ca        1 1M0     -0.065500
     19 CAT         1.0020    0.9520    1.7500 ca        1 1M0     -0.185500
     20 CAW         1.7600    1.4070   -0.9090 ca        1 1M0     -0.065500
     21 CAX         0.4140    1.1970   -0.6070 ca        1 1M0     -0.185500
     22 CAS         0.0400    0.9680    0.7220 ca        1 1M0      0.138100
     23 OAR        -1.2560    0.7440    1.1460 os        1 1M0     -0.330900
     24 CAQ        -2.2600    0.7780    0.1260 c3        1 1M0      0.108400
     25 CAJ        -3.5910    0.5020    0.8730 c3        1 1M0      0.057000
     26 CBJ        -3.9400    1.7430    1.7160 c3        1 1M0     -0.062200
     27 CBP        -5.0710    1.4980    2.6410 c2        1 1M0     -0.175200
     28 CBQ        -4.9800    1.6090    3.9650 c2        1 1M0     -0.214000
     29 NAI        -4.6340    0.0900   -0.0290 na        1 1M0     -0.163300
     30 CAE        -5.1240    0.8070   -1.1330 ca        1 1M0     -0.071200
     31 CAF        -4.9010    2.1050   -1.6090 ca        1 1M0     -0.138000
     32 CAA        -5.5850    2.5000   -2.7490 ca        1 1M0     -0.113000
     33 CAB        -6.4740    1.6400   -3.4160 ca        1 1M0     -0.153000
     34 CAC        -6.7120    0.3500   -2.9680 ca        1 1M0     -0.068000
     35 CAD        -6.0380   -0.0900   -1.8200 ca        1 1M0      0.064400
     36 NAG        -6.0770   -1.3260   -1.1480 nc        1 1M0     -0.555100
     37 CAH        -5.2350   -1.2020   -0.1000 cd        1 1M0      0.473400
     38 CAK        -4.9700   -2.2670    0.8750 ca        1 1M0     -0.119900
     39 CAL        -4.6210   -3.5420    0.4090 ca        1 1M0     -0.099500
     40 CAM        -4.3960   -4.5730    1.3200 ca        1 1M0     -0.135000
     41 CAN        -4.5240   -4.3410    2.6900 ca        1 1M0     -0.114000
     42 CAO        -4.8830   -3.0740    3.1510 ca        1 1M0     -0.135000
     43 CAP        -5.1080   -2.0370    2.2490 ca        1 1M0     -0.099500
     44 H1          2.6640   -2.2790   -0.9970 ha        1 1M0      0.138000
     45 H2          3.1010   -4.3520    0.3060 ha        1 1M0      0.134500
     46 H3          5.4010   -4.8480    1.1400 ha        1 1M0      0.133000
     47 H4          7.2670   -3.2610    0.6620 ha        1 1M0      0.134500
     48 H5          6.8380   -1.1860   -0.6530 ha        1 1M0      0.138000
     49 H6          5.0190   -0.4980   -2.7240 h1        1 1M0      0.068700
     50 H7          3.3570   -0.3200   -1.9730 h1        1 1M0      0.068700
     51 H8          7.3110    0.2440   -2.6310 ha        1 1M0      0.135000
     52 H9          9.3590    1.6220   -2.2620 ha        1 1M0      0.131000
     53 H10         9.3700    3.5020   -0.6620 ha        1 1M0      0.133000
     54 H11         7.3280    4.1020    0.6500 ha        1 1M0      0.148000
     55 H12         3.0980    1.1670    2.2320 ha        1 1M0      0.148500
     56 H13         0.6840    0.7760    2.7880 ha        1 1M0      0.148500
     57 H14         2.0560    1.6070   -1.9500 ha        1 1M0      0.148500
     58 H15        -0.3300    1.2210   -1.4150 ha        1 1M0      0.148500
     59 H16        -2.2740    1.7860   -0.3620 h1        1 1M0      0.054200
     60 H17        -2.0450   -0.0170   -0.6350 h1        1 1M0      0.054200
     61 H18        -3.4020   -0.3590    1.5870 h1        1 1M0      0.097700
     62 H19        -3.0090    2.0180    2.2840 hc        1 1M0      0.066200
     63 H20        -4.1970    2.6050    1.0440 hc        1 1M0      0.066200
     64 H21        -6.0270    1.2360    2.1560 ha        1 1M0      0.131000
     65 H23        -4.0460    1.8740    4.4790 ha        1 1M0      0.114500
     66 H24        -5.8420    1.4440    4.6250 ha        1 1M0      0.114500
     67 H26        -4.2100    2.7900   -1.0990 ha        1 1M0      0.134000
     68 H27        -5.4290    3.5160   -3.1440 ha        1 1M0      0.132000
     69 H28        -6.9930    2.0050   -4.3150 ha        1 1M0      0.134000
     70 H29        -7.4100   -0.3200   -3.4910 ha        1 1M0      0.149000
     71 H30        -4.5340   -3.7280   -0.6720 ha        1 1M0      0.148000
     72 H31        -4.1210   -5.5740    0.9550 ha        1 1M0      0.137000
     73 H32        -4.3480   -5.1580    3.4050 ha        1 1M0      0.135000
     74 H33        -4.9920   -2.8920    4.2310 ha        1 1M0      0.137000
     75 H34        -5.4020   -1.0390    2.6160 ha        1 1M0      0.148000
@<TRIPOS>BOND
     1    1    2 ar  
     2    1    6 ar  
     3    1   44 1   
     4    2    3 ar  
     5    2   45 1   
     6    3    4 ar  
     7    3   46 1   
     8    4    5 ar  
     9    4   47 1   
    10    5    6 ar  
    11    5   48 1   
    12    6    7 1   
    13    7    8 1   
    14    7   49 1   
    15    7   50 1   
    16    8    9 1   
    17    8   16 1   
    18    9   10 ar  
    19    9   14 ar  
    20   10   11 ar  
    21   10   51 1   
    22   11   12 ar  
    23   11   52 1   
    24   12   13 ar  
    25   12   53 1   
    26   13   14 ar  
    27   13   54 1   
    28   14   15 1   
    29   15   16 2   
    30   16   17 1   
    31   17   18 ar  
    32   17   20 ar  
    33   18   19 ar  
    34   18   55 1   
    35   19   22 ar  
    36   19   56 1   
    37   20   21 ar  
    38   20   57 1   
    39   21   22 ar  
    40   21   58 1   
    41   22   23 1   
    42   23   24 1   
    43   24   25 1   
    44   24   59 1   
    45   24   60 1   
    46   25   26 1   
    47   25   29 1   
    48   25   61 1   
    49   26   27 1   
    50   26   62 1   
    51   26   63 1   
    52   27   28 2   
    53   27   64 1   
    54   28   65 1   
    55   28   66 1   
    56   29   30 1   
    57   29   37 1   
    58   30   31 ar  
    59   30   35 ar  
    60   31   32 ar  
    61   31   67 1   
    62   32   33 ar  
    63   32   68 1   
    64   33   34 ar  
    65   33   69 1   
    66   34   35 ar  
    67   34   70 1   
    68   35   36 1   
    69   36   37 2   
    70   37   38 1   
    71   38   39 ar  
    72   38   43 ar  
    73   39   40 ar  
    74   39   71 1   
    75   40   41 ar  
    76   40   72 1   
    77   41   42 ar  
    78   41   73 1   
    79   42   43 ar  
    80   42   74 1   
    81   43   75 1   
@<TRIPOS>SUBSTRUCTURE
     1 1M0         1 TEMP              0 ****  ****    0 ROOT
