@<TRIPOS>MOLECULE
1M1
   37    30     1     0     0
SMALL
bcc


@<TRIPOS>ATOM
      1 CAS         2.0580    0.9150   -2.2840 c1        1 1M1     -0.165000
      2 CAT         3.4010    1.0110   -2.2630 c1        1 1M1     -0.129500
      3 CAU         4.0930    0.6500   -1.1490 c1        1 1M1     -0.129500
      4 CAV         3.4110    0.1780   -0.0240 c1        1 1M1     -0.066000
      5 NAW         2.0540    0.0790   -0.0400 n1        1 1M1     -0.107000
      6 CAR         1.3650    0.4370   -1.1450 c1        1 1M1     -0.037000
      7 CAQ        -0.1870    0.5200   -1.0860 c3        1 1M1      0.187000
      8 NAE        -0.6320   -0.5370   -0.2210 n3        1 1M1     -0.224000
      9 CAD        -0.7180   -1.8890   -0.4030 c1        1 1M1     -0.005000
     10 CAI        -0.2490   -2.7370   -1.4240 c1        1 1M1     -0.137000
     11 CAH        -0.3850   -4.1350   -1.2890 c1        1 1M1     -0.129500
     12 CAG        -0.9820   -4.6670   -0.1490 c1        1 1M1     -0.129500
     13 CAF        -1.4400   -3.8260    0.8480 c1        1 1M1     -0.071000
     14 CAC        -1.3050   -2.4270    0.7150 c1        1 1M1     -0.067000
     15 NAB        -1.5750   -1.4240    1.5700 n1        1 1M1     -0.131000
     16 CAA        -1.1600   -0.2470    0.9950 c1        1 1M1      0.080000
     17 CAJ        -1.4080    1.1590    1.3830 c1        1 1M1     -0.049000
     18 CAK        -1.9100    1.4530    2.6770 c2        1 1M1     -0.068000
     19 CAL        -2.0940    2.7470    3.0600 c1        1 1M1     -0.150000
     20 CAM        -1.7800    3.8080    2.1600 c1        1 1M1     -0.129500
     21 CAN        -1.2920    3.5230    0.9020 c1        1 1M1     -0.129500
     22 CAO        -1.1030    2.1840    0.5080 c1        1 1M1      0.037000
     23 NAP        -0.5370    1.8830   -0.7610 n2        1 1M1     -0.256000
     24 H1          1.5480    1.1830   -3.1120 ha        1 1M1      0.141000
     25 H2          3.8500    1.3200   -2.9990 ha        1 1M1      0.137500
     26 H3          5.0360    0.7190   -1.1380 ha        1 1M1      0.137500
     27 H4          3.8890   -0.0700    0.7420 ha        1 1M1      0.164000
     28 H5         -0.5090    0.3450   -1.9280 h2        1 1M1      0.113000
     29 H6          0.1930   -2.3360   -2.2710 ha        1 1M1      0.132000
     30 H7         -0.0490   -4.7480   -2.0110 ha        1 1M1      0.137500
     31 H8         -1.0870   -5.6840   -0.0500 ha        1 1M1      0.137500
     32 H9         -1.8770   -4.2180    1.6860 ha        1 1M1      0.147000
     33 H10        -2.1230    0.7410    3.2810 ha        1 1M1      0.159000
     34 H11        -2.4420    2.9490    3.9590 ha        1 1M1      0.137000
     35 H12        -1.9040    4.6630    2.4120 ha        1 1M1      0.137500
     36 H13        -1.0760    4.2550    0.2790 ha        1 1M1      0.137500
     37 H14        -1.0740    2.2250   -1.4270 hn        1 1M1      0.188000
@<TRIPOS>BOND
     1    1    6 1   
     2    1   24 1   
     3    2    3 1   
     4    2   25 1   
     5    3   26 1   
     6    4    5 1   
     7    4   27 1   
     8    6    7 1   
     9    7    8 1   
    10    7   23 1   
    11    7   28 1   
    12    8    9 1   
    13    8   16 1   
    14    9   10 1   
    15   10   29 1   
    16   11   12 1   
    17   11   30 1   
    18   12   31 1   
    19   13   14 1   
    20   13   32 1   
    21   15   16 1   
    22   17   18 1   
    23   17   22 1   
    24   18   19 1   
    25   18   33 1   
    26   19   34 1   
    27   20   21 1   
    28   20   35 1   
    29   21   36 1   
    30   23   37 1   
@<TRIPOS>SUBSTRUCTURE
     1 1M1         1 TEMP              0 ****  ****    0 ROOT
