@<TRIPOS>MOLECULE
1M1
   37    41     1     0     0
SMALL
bcc


@<TRIPOS>ATOM
      1 CAS        -0.0190    0.0400   -0.0280 ca        1 1M1     -0.230300
      2 CAT         1.3750   -0.0350   -0.0850 ca        1 1M1     -0.093000
      3 CAU         2.0930   -0.1860    1.1010 ca        1 1M1     -0.238300
      4 CAV         1.3760   -0.2550    2.3110 ca        1 1M1      0.399200
      5 NAW         0.0350   -0.1830    2.3900 nb        1 1M1     -0.633000
      6 CAR        -0.6460   -0.0410    1.2310 ca        1 1M1      0.385600
      7 CAQ        -2.1840    0.0590    1.2800 c3        1 1M1      0.270900
      8 NAE        -2.7840   -1.0450    2.0100 na        1 1M1     -0.198300
      9 CAD        -2.8960   -2.3980    1.6760 ca        1 1M1     -0.050200
     10 CAI        -2.7500   -3.1030    0.4780 ca        1 1M1     -0.137000
     11 CAH        -2.9940   -4.4710    0.5060 ca        1 1M1     -0.114000
     12 CAG        -3.3770   -5.1290    1.6850 ca        1 1M1     -0.154000
     13 CAF        -3.5320   -4.4500    2.8860 ca        1 1M1     -0.071000
     14 CAC        -3.2920   -3.0710    2.9070 ca        1 1M1      0.072400
     15 NAB        -3.3720   -2.1360    3.9620 nc        1 1M1     -0.558100
     16 CAA        -3.0390   -0.9520    3.4130 cd        1 1M1      0.490400
     17 CAJ        -2.9510    0.3660    4.0400 ca        1 1M1     -0.132900
     18 CAK        -3.0680    0.5200    5.4230 ca        1 1M1     -0.068000
     19 CAL        -3.0000    1.7920    5.9900 ca        1 1M1     -0.150000
     20 CAM        -2.8110    2.9080    5.1770 ca        1 1M1     -0.104000
     21 CAN        -2.6800    2.7720    3.7980 ca        1 1M1     -0.139000
     22 CAO        -2.7380    1.4960    3.2040 ca        1 1M1      0.118600
     23 NAP        -2.5620    1.3810    1.7960 nh        1 1M1     -0.700600
     24 H1         -0.6110    0.1630   -0.9440 ha        1 1M1      0.141000
     25 H2          1.8950    0.0250   -1.0520 ha        1 1M1      0.140000
     26 H3          3.1880   -0.2510    1.1000 ha        1 1M1      0.146000
     27 H4          1.9020   -0.3740    3.2760 h4        1 1M1      0.027100
     28 H5         -2.5530   -0.0180    0.2060 h2        1 1M1      0.073700
     29 H6         -2.4520   -2.5970   -0.4490 ha        1 1M1      0.132000
     30 H7         -2.8830   -5.0550   -0.4200 ha        1 1M1      0.130000
     31 H8         -3.5590   -6.2140    1.6530 ha        1 1M1      0.132000
     32 H9         -3.8370   -4.9740    3.8030 ha        1 1M1      0.147000
     33 H10        -3.2190   -0.3650    6.0610 ha        1 1M1      0.159000
     34 H11        -3.0950    1.9110    7.0790 ha        1 1M1      0.137000
     35 H12        -2.7590    3.9110    5.6270 ha        1 1M1      0.134000
     36 H13        -2.5220    3.6640    3.1730 ha        1 1M1      0.143000
     37 H14        -3.3660    1.7410    1.3140 hn        1 1M1      0.392800
@<TRIPOS>BOND
     1    1    2 ar  
     2    1    6 ar  
     3    1   24 1   
     4    2    3 ar  
     5    2   25 1   
     6    3    4 ar  
     7    3   26 1   
     8    4    5 ar  
     9    4   27 1   
    10    5    6 ar  
    11    6    7 1   
    12    7    8 1   
    13    7   23 1   
    14    7   28 1   
    15    8    9 1   
    16    8   16 1   
    17    9   10 ar  
    18    9   14 ar  
    19   10   11 ar  
    20   10   29 1   
    21   11   12 ar  
    22   11   30 1   
    23   12   13 ar  
    24   12   31 1   
    25   13   14 ar  
    26   13   32 1   
    27   14   15 1   
    28   15   16 2   
    29   16   17 1   
    30   17   18 ar  
    31   17   22 ar  
    32   18   19 ar  
    33   18   33 1   
    34   19   20 ar  
    35   19   34 1   
    36   20   21 ar  
    37   20   35 1   
    38   21   22 ar  
    39   21   36 1   
    40   22   23 1   
    41   23   37 1   
@<TRIPOS>SUBSTRUCTURE
     1 1M1         1 TEMP              0 ****  ****    0 ROOT
