@<TRIPOS>MOLECULE
1M1
   37    41     1     0     0
SMALL
bcc


@<TRIPOS>ATOM
      1 CAS         0.3370    3.0730   -0.7670 ca        1 1M1     -0.225300
      2 CAT         0.2960    4.2520   -0.0170 ca        1 1M1     -0.093000
      3 CAU        -0.4670    4.2840    1.1500 ca        1 1M1     -0.232300
      4 CAV        -1.1710    3.1220    1.5210 ca        1 1M1      0.398200
      5 NAW        -1.1460    1.9780    0.8140 nb        1 1M1     -0.643000
      6 CAR        -0.3960    1.9610   -0.3120 ca        1 1M1      0.329600
      7 CAQ        -0.3380    0.6530   -1.1360 c3        1 1M1      0.293900
      8 NAE         0.5140   -0.3270   -0.4970 na        1 1M1     -0.181300
      9 CAD         1.8960   -0.3040   -0.2880 ca        1 1M1     -0.051200
     10 CAI         2.9050    0.6000   -0.6340 ca        1 1M1     -0.137000
     11 CAH         4.2050    0.2820   -0.2650 ca        1 1M1     -0.115000
     12 CAG         4.5080   -0.9010    0.4300 ca        1 1M1     -0.153000
     13 CAF         3.5240   -1.8140    0.7830 ca        1 1M1     -0.071000
     14 CAC         2.1970   -1.5350    0.4300 ca        1 1M1      0.075400
     15 NAB         1.0130   -2.2700    0.6430 nc        1 1M1     -0.564100
     16 CAA         0.0290   -1.5320    0.0890 cd        1 1M1      0.502400
     17 CAJ        -1.3980   -1.8200    0.0040 ca        1 1M1     -0.154900
     18 CAK        -1.9520   -2.9390    0.6300 ca        1 1M1     -0.053000
     19 CAL        -3.3210   -3.1810    0.5480 ca        1 1M1     -0.170000
     20 CAM        -4.1410   -2.3000   -0.1580 ca        1 1M1     -0.083000
     21 CAN        -3.6090   -1.1800   -0.7870 ca        1 1M1     -0.181000
     22 CAO        -2.2200   -0.9220   -0.7310 ca        1 1M1      0.157600
     23 NAP        -1.6750    0.1450   -1.4720 nh        1 1M1     -0.709600
     24 H1          0.9310    3.0150   -1.6890 ha        1 1M1      0.146000
     25 H2          0.8590    5.1380   -0.3440 ha        1 1M1      0.143000
     26 H3         -0.5220    5.1880    1.7700 ha        1 1M1      0.148000
     27 H4         -1.7890    3.1010    2.4370 h4        1 1M1      0.029100
     28 H5          0.1410    0.9180   -2.1370 h2        1 1M1      0.080700
     29 H6          2.6740    1.5290   -1.1720 ha        1 1M1      0.130000
     30 H7          5.0210    0.9740   -0.5230 ha        1 1M1      0.130000
     31 H8          5.5550   -1.1050    0.6990 ha        1 1M1      0.132000
     32 H9          3.7710   -2.7370    1.3260 ha        1 1M1      0.148000
     33 H10        -1.3000   -3.6270    1.1920 ha        1 1M1      0.158000
     34 H11        -3.7530   -4.0630    1.0410 ha        1 1M1      0.137000
     35 H12        -5.2230   -2.4890   -0.2170 ha        1 1M1      0.133000
     36 H13        -4.2760   -0.4990   -1.3360 ha        1 1M1      0.135000
     37 H14        -2.3210    0.9030   -1.5890 hn        1 1M1      0.411800
@<TRIPOS>BOND
     1    1    2 ar  
     2    1    6 ar  
     3    1   24 1   
     4    2    3 ar  
     5    2   25 1   
     6    3    4 ar  
     7    3   26 1   
     8    4    5 ar  
     9    4   27 1   
    10    5    6 ar  
    11    6    7 1   
    12    7    8 1   
    13    7   23 1   
    14    7   28 1   
    15    8    9 1   
    16    8   16 1   
    17    9   10 ar  
    18    9   14 ar  
    19   10   11 ar  
    20   10   29 1   
    21   11   12 ar  
    22   11   30 1   
    23   12   13 ar  
    24   12   31 1   
    25   13   14 ar  
    26   13   32 1   
    27   14   15 1   
    28   15   16 2   
    29   16   17 1   
    30   17   18 ar  
    31   17   22 ar  
    32   18   19 ar  
    33   18   33 1   
    34   19   20 ar  
    35   19   34 1   
    36   20   21 ar  
    37   20   35 1   
    38   21   22 ar  
    39   21   36 1   
    40   22   23 1   
    41   23   37 1   
@<TRIPOS>SUBSTRUCTURE
     1 1M1         1 TEMP              0 ****  ****    0 ROOT
