@<TRIPOS>MOLECULE
1M1
   37    41     1     0     0
SMALL
bcc


@<TRIPOS>ATOM
      1 CAS        -0.0180    0.0420   -0.0270 ca        1 1M1     -0.230300
      2 CAT         1.3750   -0.0350   -0.0840 ca        1 1M1     -0.093000
      3 CAU         2.0930   -0.1900    1.1010 ca        1 1M1     -0.238300
      4 CAV         1.3770   -0.2610    2.3110 ca        1 1M1      0.399200
      5 NAW         0.0360   -0.1870    2.3910 nb        1 1M1     -0.633000
      6 CAR        -0.6450   -0.0410    1.2320 ca        1 1M1      0.385600
      7 CAQ        -2.1830    0.0620    1.2810 c3        1 1M1      0.270900
      8 NAE        -2.7850   -1.0430    2.0090 na        1 1M1     -0.198300
      9 CAD        -2.8980   -2.3960    1.6730 ca        1 1M1     -0.050200
     10 CAI        -2.7540   -3.0990    0.4730 ca        1 1M1     -0.137000
     11 CAH        -3.0000   -4.4650    0.4990 ca        1 1M1     -0.114000
     12 CAG        -3.3840   -5.1260    1.6770 ca        1 1M1     -0.154000
     13 CAF        -3.5380   -4.4480    2.8790 ca        1 1M1     -0.071000
     14 CAC        -3.2950   -3.0700    2.9020 ca        1 1M1      0.072400
     15 NAB        -3.3730   -2.1370    3.9590 nc        1 1M1     -0.558100
     16 CAA        -3.0390   -0.9520    3.4120 cd        1 1M1      0.490400
     17 CAJ        -2.9490    0.3640    4.0430 ca        1 1M1     -0.132900
     18 CAK        -3.0660    0.5160    5.4260 ca        1 1M1     -0.068000
     19 CAL        -2.9950    1.7860    5.9950 ca        1 1M1     -0.150000
     20 CAM        -2.8050    2.9040    5.1840 ca        1 1M1     -0.104000
     21 CAN        -2.6750    2.7710    3.8050 ca        1 1M1     -0.139000
     22 CAO        -2.7340    1.4950    3.2090 ca        1 1M1      0.118600
     23 NAP        -2.5590    1.3830    1.8000 nh        1 1M1     -0.700600
     24 H1         -0.6100    0.1680   -0.9430 ha        1 1M1      0.141000
     25 H2          1.8950    0.0260   -1.0510 ha        1 1M1      0.140000
     26 H3          3.1890   -0.2560    1.1000 ha        1 1M1      0.146000
     27 H4          1.9030   -0.3830    3.2760 h4        1 1M1      0.027100
     28 H5         -2.5530   -0.0130    0.2070 h2        1 1M1      0.073700
     29 H6         -2.4550   -2.5910   -0.4530 ha        1 1M1      0.132000
     30 H7         -2.8890   -5.0480   -0.4280 ha        1 1M1      0.130000
     31 H8         -3.5670   -6.2100    1.6420 ha        1 1M1      0.132000
     32 H9         -3.8430   -4.9740    3.7950 ha        1 1M1      0.147000
     33 H10        -3.2180   -0.3700    6.0620 ha        1 1M1      0.159000
     34 H11        -3.0910    1.9040    7.0840 ha        1 1M1      0.137000
     35 H12        -2.7520    3.9060    5.6360 ha        1 1M1      0.134000
     36 H13        -2.5150    3.6640    3.1820 ha        1 1M1      0.143000
     37 H14        -3.3620    1.7460    1.3190 hn        1 1M1      0.392800
@<TRIPOS>BOND
     1    1    2 ar  
     2    1    6 ar  
     3    1   24 1   
     4    2    3 ar  
     5    2   25 1   
     6    3    4 ar  
     7    3   26 1   
     8    4    5 ar  
     9    4   27 1   
    10    5    6 ar  
    11    6    7 1   
    12    7    8 1   
    13    7   23 1   
    14    7   28 1   
    15    8    9 1   
    16    8   16 1   
    17    9   10 ar  
    18    9   14 ar  
    19   10   11 ar  
    20   10   29 1   
    21   11   12 ar  
    22   11   30 1   
    23   12   13 ar  
    24   12   31 1   
    25   13   14 ar  
    26   13   32 1   
    27   14   15 1   
    28   15   16 2   
    29   16   17 1   
    30   17   18 ar  
    31   17   22 ar  
    32   18   19 ar  
    33   18   33 1   
    34   19   20 ar  
    35   19   34 1   
    36   20   21 ar  
    37   20   35 1   
    38   21   22 ar  
    39   21   36 1   
    40   22   23 1   
    41   23   37 1   
@<TRIPOS>SUBSTRUCTURE
     1 1M1         1 TEMP              0 ****  ****    0 ROOT
