@<TRIPOS>MOLECULE
1M2
   21    22     1     0     0
SMALL
bcc


@<TRIPOS>ATOM
      1 C01         0.3310   -0.6550   -0.1590 c3        1 1M2      0.083100
      2 N02         1.2580    0.4890    0.0350 n4        1 1M2     -0.669000
      3 C03         2.0470    0.3480    1.2630 cc        1 1M2      0.362700
      4 N04         1.5190    0.6040    2.5570 na        1 1M2     -0.249300
      5 C05         2.5710    0.3400    3.4370 ca        1 1M2     -0.030200
      6 C06         2.6690    0.4290    4.8350 ca        1 1M2     -0.139000
      7 C07         3.8760    0.0630    5.4050 ca        1 1M2     -0.057000
      8 C08         4.9700   -0.3810    4.6290 ca        1 1M2     -0.130000
      9 C09         4.9020   -0.4760    3.2530 ca        1 1M2     -0.042000
     10 C10         3.6910   -0.1140    2.6260 ca        1 1M2      0.053400
     11 N11         3.3330   -0.1060    1.2750 nd        1 1M2     -0.467100
     12 H1          0.9240   -1.6100   -0.1980 hx        1 1M2      0.115033
     13 H2         -0.2230   -0.5070   -1.1250 hx        1 1M2      0.115033
     14 H3         -0.3940   -0.7040    0.6970 hx        1 1M2      0.115033
     15 H4          1.9210    0.5340   -0.7580 hn        1 1M2      0.475300
     16 H5          0.6630    1.0430    2.7800 hn        1 1M2      0.325700
     17 H6          1.8230    0.7720    5.4470 ha        1 1M2      0.161000
     18 H7          3.9930    0.1190    6.5020 ha        1 1M2      0.164000
     19 H8          5.9040   -0.6570    5.1470 ha        1 1M2      0.165000
     20 H9          5.7570   -0.8230    2.6520 ha        1 1M2      0.172000
     21 H022        0.7350    1.3730    0.0710 hn        1 1M2      0.475300
@<TRIPOS>BOND
     1    1    2 1   
     2    1   12 1   
     3    1   13 1   
     4    1   14 1   
     5    2    3 1   
     6    2   15 1   
     7    2   21 1   
     8    3    4 1   
     9    3   11 2   
    10    4    5 1   
    11    4   16 1   
    12    5    6 ar  
    13    5   10 ar  
    14    6    7 ar  
    15    6   17 1   
    16    7    8 ar  
    17    7   18 1   
    18    8    9 ar  
    19    8   19 1   
    20    9   10 ar  
    21    9   20 1   
    22   10   11 1   
@<TRIPOS>SUBSTRUCTURE
     1 1M2         1 TEMP              0 ****  ****    0 ROOT
