@<TRIPOS>MOLECULE
1M2
   20    16     1     0     0
SMALL
bcc


@<TRIPOS>ATOM
      1 C01        -2.7680   -0.6430   -2.3990 c3        1 1M2     -0.118000
      2 N02        -1.8090    0.2960   -2.0130 n3        1 1M2     -0.247000
      3 C03        -0.9720    0.0400   -0.9030 c2        1 1M2      0.101000
      4 N04        -1.0730   -0.1010    0.4430 n2        1 1M2     -0.242000
      5 C05         0.1750    0.0240    0.9690 c1        1 1M2     -0.036000
      6 C06         0.6510   -0.0460    2.2900 c1        1 1M2     -0.130000
      7 C07         2.0490    0.1120    2.5560 c1        1 1M2     -0.134500
      8 C08         2.9370    0.3340    1.5140 c1        1 1M2     -0.134500
      9 C09         2.4690    0.4050    0.2040 c1        1 1M2     -0.081000
     10 C10         1.0610    0.2460   -0.0700 c1        1 1M2     -0.052000
     11 N11         0.3630    0.2560   -1.2140 n1        1 1M2     -0.178000
     12 H1         -3.4720   -0.6820   -1.7320 h1        1 1M2      0.082333
     13 H2         -2.3230   -1.5770   -2.4900 h1        1 1M2      0.082333
     14 H3         -3.1490   -0.3800   -3.2580 h1        1 1M2      0.082333
     15 H4         -1.6410    1.0180   -2.5500 hn        1 1M2      0.210000
     16 H5         -1.9070   -0.1680    0.9530 DU        1 1M2      0.252000
     17 H6         -0.0070   -0.2100    3.0680 ha        1 1M2      0.134000
     18 H7          2.3860    0.0630    3.4920 ha        1 1M2      0.131500
     19 H8          3.9060    0.4430    1.7030 ha        1 1M2      0.131500
     20 H9          3.1240    0.5680   -0.5620 ha        1 1M2      0.147000
@<TRIPOS>BOND
     1    1    2 1   
     2    1   12 1   
     3    1   13 1   
     4    1   14 1   
     5    2    3 1   
     6    2   15 1   
     7    3    4 1   
     8    3   11 1   
     9    4    5 1   
    10    5    6 1   
    11    6   17 1   
    12    7    8 1   
    13    7   18 1   
    14    8   19 1   
    15    9   10 1   
    16    9   20 1   
@<TRIPOS>SUBSTRUCTURE
     1 1M2         1 TEMP              0 ****  ****    0 ROOT
