@<TRIPOS>MOLECULE
1M2
   20    21     1     0     0
SMALL
bcc


@<TRIPOS>ATOM
      1 C01         0.1030    0.3110   -0.0650 c3        1 1M2      0.158100
      2 N02         1.3280   -0.4400    0.0370 nh        1 1M2     -0.762200
      3 C03         2.0990   -0.2300    1.2080 cc        1 1M2      0.579700
      4 N04         1.5050   -0.2600    2.5110 na        1 1M2     -0.285300
      5 C05         2.5710   -0.1800    3.4180 ca        1 1M2     -0.081200
      6 C06         2.6150   -0.1860    4.8140 ca        1 1M2     -0.130000
      7 C07         3.8590   -0.0350    5.4150 ca        1 1M2     -0.122000
      8 C08         5.0300    0.1250    4.6570 ca        1 1M2     -0.147000
      9 C09         5.0080    0.1370    3.2680 ca        1 1M2     -0.081000
     10 C10         3.7750   -0.0180    2.6220 ca        1 1M2      0.087400
     11 N11         3.4500   -0.0400    1.2530 nd        1 1M2     -0.606100
     12 H1          0.2480    1.4230    0.0180 h1        1 1M2      0.043033
     13 H2         -0.3580    0.0820   -1.0620 h1        1 1M2      0.043033
     14 H3         -0.6080   -0.0150    0.7390 h1        1 1M2      0.043033
     15 H4          1.9010   -0.3480   -0.7830 hn        1 1M2      0.414800
     16 H5          0.6170   -0.6350    2.7160 hn        1 1M2      0.301700
     17 H6          1.7040   -0.3060    5.4140 ha        1 1M2      0.134000
     18 H7          3.9300   -0.0400    6.5130 ha        1 1M2      0.131000
     19 H8          5.9900    0.2430    5.1810 ha        1 1M2      0.132000
     20 H9          5.9300    0.2660    2.6830 ha        1 1M2      0.147000
@<TRIPOS>BOND
     1    1    2 1   
     2    1   12 1   
     3    1   13 1   
     4    1   14 1   
     5    2    3 1   
     6    2   15 1   
     7    3    4 1   
     8    3   11 2   
     9    4    5 1   
    10    4   16 1   
    11    5    6 ar  
    12    5   10 ar  
    13    6    7 ar  
    14    6   17 1   
    15    7    8 ar  
    16    7   18 1   
    17    8    9 ar  
    18    8   19 1   
    19    9   10 ar  
    20    9   20 1   
    21   10   11 1   
@<TRIPOS>SUBSTRUCTURE
     1 1M2         1 TEMP              0 ****  ****    0 ROOT
