@<TRIPOS>MOLECULE
1M2
   20    21     1     0     0
SMALL
bcc


@<TRIPOS>ATOM
      1 C01        -3.7360    0.5360   -0.2780 c3        1 1M2      0.158100
      2 N02        -2.9010   -0.3800    0.4560 nh        1 1M2     -0.762200
      3 C03        -1.5040   -0.2750    0.2310 cc        1 1M2      0.579700
      4 N04        -0.8320    0.9890    0.2750 na        1 1M2     -0.285300
      5 C05         0.5350    0.6970    0.1740 ca        1 1M2     -0.081200
      6 C06         1.6700    1.5130    0.1810 ca        1 1M2     -0.130000
      7 C07         2.9020    0.8950    0.0050 ca        1 1M2     -0.122000
      8 C08         3.0110   -0.4930   -0.1790 ca        1 1M2     -0.147000
      9 C09         1.8970   -1.3210   -0.1930 ca        1 1M2     -0.081000
     10 C10         0.6360   -0.7400   -0.0130 ca        1 1M2      0.087400
     11 N11        -0.6480   -1.3150    0.0140 nd        1 1M2     -0.605100
     12 H1         -3.5950    0.4820   -1.3910 h1        1 1M2      0.043033
     13 H2         -4.8050    0.2940   -0.0370 h1        1 1M2      0.043033
     14 H3         -3.5260    1.5870    0.0540 h1        1 1M2      0.043033
     15 H4         -3.2020   -1.3340    0.3560 hn        1 1M2      0.414800
     16 H5         -1.2070    1.8120    0.6660 hn        1 1M2      0.301700
     17 H6          1.5920    2.5990    0.3190 ha        1 1M2      0.134000
     18 H7          3.8160    1.5080    0.0100 ha        1 1M2      0.131000
     19 H8          4.0110   -0.9330   -0.3160 ha        1 1M2      0.132000
     20 H9          1.9930   -2.4060   -0.3410 ha        1 1M2      0.147000
@<TRIPOS>BOND
     1    1    2 1   
     2    1   12 1   
     3    1   13 1   
     4    1   14 1   
     5    2    3 1   
     6    2   15 1   
     7    3    4 1   
     8    3   11 2   
     9    4    5 1   
    10    4   16 1   
    11    5    6 ar  
    12    5   10 ar  
    13    6    7 ar  
    14    6   17 1   
    15    7    8 ar  
    16    7   18 1   
    17    8    9 ar  
    18    8   19 1   
    19    9   10 ar  
    20    9   20 1   
    21   10   11 1   
@<TRIPOS>SUBSTRUCTURE
     1 1M2         1 TEMP              0 ****  ****    0 ROOT
