@<TRIPOS>MOLECULE
1M2
   20    21     1     0     0
SMALL
bcc


@<TRIPOS>ATOM
      1 C01         0.1040    0.3290   -0.0640 c3        1 1M2      0.158100
      2 N02         1.3280   -0.4240    0.0340 nu        1 1M2     -0.762200
      3 C03         2.0990   -0.2220    1.2070 cc        1 1M2      0.579700
      4 N04         1.5050   -0.2620    2.5090 na        1 1M2     -0.285300
      5 C05         2.5710   -0.1870    3.4170 ca        1 1M2     -0.081200
      6 C06         2.6150   -0.2040    4.8130 ca        1 1M2     -0.130000
      7 C07         3.8590   -0.0550    5.4150 ca        1 1M2     -0.122000
      8 C08         5.0290    0.1120    4.6580 ca        1 1M2     -0.147000
      9 C09         5.0080    0.1350    3.2700 ca        1 1M2     -0.081000
     10 C10         3.7750   -0.0170    2.6230 ca        1 1M2      0.087400
     11 N11         3.4500   -0.0290    1.2530 nd        1 1M2     -0.605100
     12 H1         -0.6070   -0.0010    0.7380 h1        1 1M2      0.043033
     13 H2         -0.3580    0.1050   -1.0620 h1        1 1M2      0.043033
     14 H3          0.2500    1.4400    0.0250 h1        1 1M2      0.043033
     15 H4          1.9020   -0.3270   -0.7860 hn        1 1M2      0.414800
     16 H5          0.6170   -0.6390    2.7110 hn        1 1M2      0.301700
     17 H6          1.7040   -0.3300    5.4120 ha        1 1M2      0.134000
     18 H7          3.9290   -0.0690    6.5130 ha        1 1M2      0.131000
     19 H8          5.9890    0.2270    5.1830 ha        1 1M2      0.132000
     20 H9          5.9290    0.2700    2.6860 ha        1 1M2      0.147000
@<TRIPOS>BOND
     1    1    2 1   
     2    1   12 1   
     3    1   13 1   
     4    1   14 1   
     5    2    3 1   
     6    2   15 1   
     7    3    4 1   
     8    3   11 2   
     9    4    5 1   
    10    4   16 1   
    11    5    6 ar  
    12    5   10 ar  
    13    6    7 ar  
    14    6   17 1   
    15    7    8 ar  
    16    7   18 1   
    17    8    9 ar  
    18    8   19 1   
    19    9   10 ar  
    20    9   20 1   
    21   10   11 1   
@<TRIPOS>SUBSTRUCTURE
     1 1M2         1 TEMP              0 ****  ****    0 ROOT
