@<TRIPOS>MOLECULE
1M3
   71    74     1     0     0
SMALL
bcc


@<TRIPOS>ATOM
      1 O2         -7.3450   -1.1280   -1.8300 o         1 1M3     -0.658300
      2 S1         -6.6230   -0.6840   -0.6990 sy        1 1M3      1.515200
      3 O1         -7.2030    0.3590    0.0570 o         1 1M3     -0.658300
      4 N7         -6.2760   -1.9610    0.2230 n3        1 1M3     -0.919100
      5 C23        -6.3280   -2.0410    1.6780 c3        1 1M3      0.263200
      6 C26        -5.5240   -0.9110    2.3470 c3        1 1M3     -0.116433
      7 C25        -7.7770   -1.9510    2.1930 c3        1 1M3     -0.116433
      8 C24        -5.7410   -3.3770    2.1690 c3        1 1M3     -0.116433
      9 C21        -5.0950   -0.1750   -1.2360 ca        1 1M3     -0.353500
     10 C20        -4.5560   -0.6790   -2.4230 ca        1 1M3     -0.035000
     11 C19        -3.3150   -0.2420   -2.8760 ca        1 1M3     -0.146000
     12 C18        -2.5930    0.7090   -2.1600 ca        1 1M3     -0.052000
     13 C22        -4.3730    0.7740   -0.5110 ca        1 1M3     -0.061000
     14 C17        -3.1190    1.2360   -0.9600 ca        1 1M3      0.112600
     15 N1         -2.4510    2.2660   -0.2600 nh        1 1M3     -0.724300
     16 C1         -1.1410    2.1270    0.2290 ca        1 1M3      0.702200
     17 N3         -0.3790    1.0610   -0.1550 nb        1 1M3     -0.803000
     18 C4          0.9220    1.0120    0.3190 ca        1 1M3      0.888900
     19 N2          1.5090    1.9750    1.1270 nb        1 1M3     -0.747000
     20 C3          0.7240    3.0030    1.4780 ca        1 1M3      0.480200
     21 C2         -0.6160    3.1560    1.0830 ca        1 1M3     -0.402900
     22 C5         -1.4100    4.3170    1.5180 c3        1 1M3     -0.031800
     23 N4          1.6460   -0.1590   -0.0040 nh        1 1M3     -0.695300
     24 C6          3.0640   -0.1590   -0.0140 ca        1 1M3      0.089600
     25 C11         3.8060    0.0400    1.1670 ca        1 1M3     -0.106500
     26 C10         5.1910   -0.0400    1.1550 ca        1 1M3     -0.162000
     27 C9          5.9020   -0.3360   -0.0320 ca        1 1M3      0.134600
     28 C8          5.1500   -0.5460   -1.2080 ca        1 1M3     -0.162000
     29 C7          3.7650   -0.4480   -1.2020 ca        1 1M3     -0.106500
     30 N5          7.3190   -0.3300   -0.0210 nh        1 1M3     -0.632000
     31 C15         7.9390   -1.1650    0.9980 c3        1 1M3      0.152800
     32 C14         9.4720   -0.9810    1.0590 c3        1 1M3      0.159300
     33 N6         10.1610   -1.0710   -0.2190 n3        1 1M3     -0.719600
     34 C16        10.3920   -2.4290   -0.6590 c3        1 1M3      0.147100
     35 C13         9.5050   -0.2380   -1.2130 c3        1 1M3      0.159300
     36 C12         7.9730   -0.4150   -1.3160 c3        1 1M3      0.152800
     37 H1         -6.0400   -2.8290   -0.1960 hn        1 1M3      0.446800
     38 H2         -5.9810    0.0840    2.1220 hc        1 1M3      0.048367
     39 H3         -5.5410   -1.0640    3.4530 hc        1 1M3      0.048367
     40 H4         -4.4630   -0.9170    2.0030 hc        1 1M3      0.048367
     41 H5         -8.3960   -2.7820    1.7810 hc        1 1M3      0.048367
     42 H6         -7.7710   -2.0280    3.3070 hc        1 1M3      0.048367
     43 H7         -8.2360   -0.9740    1.9050 hc        1 1M3      0.048367
     44 H8         -4.6710   -3.4740    1.8680 hc        1 1M3      0.048367
     45 H9         -5.8030   -3.4130    3.2820 hc        1 1M3      0.048367
     46 H10        -6.3160   -4.2400    1.7550 hc        1 1M3      0.048367
     47 H11        -5.1330   -1.4130   -3.0130 ha        1 1M3      0.155000
     48 H12        -2.9010   -0.6430   -3.8140 ha        1 1M3      0.142000
     49 H13        -1.6160    1.0490   -2.5380 ha        1 1M3      0.155000
     50 H14        -4.8170    1.1750    0.4190 ha        1 1M3      0.149000
     51 H15        -3.0430    2.8110    0.3340 hn        1 1M3      0.432800
     52 H16         1.2060    3.7620    2.1230 h4        1 1M3      0.028100
     53 H17        -2.2960    3.9930    2.1220 hc        1 1M3      0.043033
     54 H18        -0.7950    5.0040    2.1520 hc        1 1M3      0.043033
     55 H19        -1.7800    4.9010    0.6360 hc        1 1M3      0.043033
     56 H20         1.2430   -0.6940   -0.7490 hn        1 1M3      0.430800
     57 H21         3.2930    0.2700    2.1150 ha        1 1M3      0.142000
     58 H22         5.7320    0.1480    2.0960 ha        1 1M3      0.136500
     59 H23         5.6470   -0.7870   -2.1600 ha        1 1M3      0.136500
     60 H24         3.2200   -0.6110   -2.1450 ha        1 1M3      0.142000
     61 H25         7.5180   -0.8830    2.0020 h1        1 1M3      0.040950
     62 H26         7.7110   -2.2560    0.8210 h1        1 1M3      0.040950
     63 H27         9.7000    0.0400    1.4790 h1        1 1M3      0.060700
     64 H28         9.8830   -1.7530    1.7640 h1        1 1M3      0.060700
     65 H30         9.4470   -3.0040   -0.8590 h1        1 1M3      0.032700
     66 H31        11.0000   -2.4040   -1.6010 h1        1 1M3      0.032700
     67 H32        10.9770   -2.9700    0.1300 h1        1 1M3      0.032700
     68 H33         9.7310    0.8320   -0.9420 h1        1 1M3      0.060700
     69 H34         9.9430   -0.4460   -2.2280 h1        1 1M3      0.060700
     70 H35         7.7590   -1.4010   -1.8250 h1        1 1M3      0.040950
     71 H36         7.5690    0.4100   -1.9660 h1        1 1M3      0.040950
@<TRIPOS>BOND
     1    1    2 2   
     2    2    3 2   
     3    2    4 1   
     4    2    9 1   
     5    4    5 1   
     6    4   37 1   
     7    5    6 1   
     8    5    7 1   
     9    5    8 1   
    10    6   38 1   
    11    6   39 1   
    12    6   40 1   
    13    7   41 1   
    14    7   42 1   
    15    7   43 1   
    16    8   44 1   
    17    8   45 1   
    18    8   46 1   
    19    9   10 ar  
    20    9   13 ar  
    21   10   11 ar  
    22   10   47 1   
    23   11   12 ar  
    24   11   48 1   
    25   12   14 ar  
    26   12   49 1   
    27   13   14 ar  
    28   13   50 1   
    29   14   15 1   
    30   15   16 1   
    31   15   51 1   
    32   16   17 ar  
    33   16   21 ar  
    34   17   18 ar  
    35   18   19 ar  
    36   18   23 1   
    37   19   20 ar  
    38   20   21 ar  
    39   20   52 1   
    40   21   22 1   
    41   22   53 1   
    42   22   54 1   
    43   22   55 1   
    44   23   24 1   
    45   23   56 1   
    46   24   25 ar  
    47   24   29 ar  
    48   25   26 ar  
    49   25   57 1   
    50   26   27 ar  
    51   26   58 1   
    52   27   28 ar  
    53   27   30 1   
    54   28   29 ar  
    55   28   59 1   
    56   29   60 1   
    57   30   31 1   
    58   30   36 1   
    59   31   32 1   
    60   31   61 1   
    61   31   62 1   
    62   32   33 1   
    63   32   63 1   
    64   32   64 1   
    65   33   34 1   
    66   33   35 1   
    67   34   65 1   
    68   34   66 1   
    69   34   67 1   
    70   35   36 1   
    71   35   68 1   
    72   35   69 1   
    73   36   70 1   
    74   36   71 1   
@<TRIPOS>SUBSTRUCTURE
     1 1M3         1 TEMP              0 ****  ****    0 ROOT
