@<TRIPOS>MOLECULE
1M3
   72    75     1     0     0
SMALL
bcc


@<TRIPOS>ATOM
      1 O2          0.2900   -0.1340   -0.0100 o         1 1M3     -0.576800
      2 S1          1.5940    0.3070    0.1180 sy        1 1M3      1.486200
      3 O1          2.2150    0.3600    1.3500 o         1 1M3     -0.576800
      4 N7          2.5310   -1.0660   -0.8100 n4        1 1M3     -0.705900
      5 C23         2.9220   -2.3040   -0.0240 c3        1 1M3      0.158200
      6 C26         4.1310   -2.0060    0.8690 c3        1 1M3     -0.131767
      7 C25         1.7480   -2.7690    0.8420 c3        1 1M3     -0.131767
      8 C24         3.2960   -3.4290   -0.9970 c3        1 1M3     -0.131767
      9 C21         2.0020    1.4930   -0.8890 ca        1 1M3     -0.512500
     10 C20         1.1890    1.8240   -1.9890 ca        1 1M3     -0.015000
     11 C19         1.5240    2.8850   -2.8210 ca        1 1M3     -0.135000
     12 C18         2.6660    3.6430   -2.5850 ca        1 1M3      0.002000
     13 C22         3.1610    2.2600   -0.6540 ca        1 1M3     -0.080000
     14 C17         3.5130    3.3380   -1.4850 ca        1 1M3      0.164600
     15 N1          4.6210    4.1390   -1.1810 nh        1 1M3     -0.735300
     16 C1          5.6090    4.4770   -2.1380 ca        1 1M3      0.682200
     17 N3          5.4770    4.0390   -3.4230 nb        1 1M3     -0.829000
     18 C4          6.4700    4.4110   -4.3180 ca        1 1M3      0.897900
     19 N2          7.5630    5.2110   -3.9920 nb        1 1M3     -0.720000
     20 C3          7.6410    5.6170   -2.7230 ca        1 1M3      0.489200
     21 C2          6.7050    5.2890   -1.7180 ca        1 1M3     -0.386900
     22 C5          6.8660    5.7800   -0.3380 c3        1 1M3     -0.036800
     23 N4          6.3810    3.8560   -5.6080 nh        1 1M3     -0.686300
     24 C6          7.0750    4.4390   -6.7020 ca        1 1M3      0.047600
     25 C11         8.4800    4.4290   -6.7640 ca        1 1M3     -0.086000
     26 C10         9.1450    4.9420   -7.8680 ca        1 1M3     -0.184000
     27 C9          8.4430    5.5000   -8.9660 ca        1 1M3      0.176600
     28 C8          7.0260    5.4780   -8.9010 ca        1 1M3     -0.184000
     29 C7          6.3620    4.9740   -7.7940 ca        1 1M3     -0.086000
     30 N5          9.1190    6.1190  -10.0320 nh        1 1M3     -0.637000
     31 C15        10.5240    5.7860  -10.1870 c3        1 1M3      0.159300
     32 C14        11.2230    6.4820  -11.3740 c3        1 1M3      0.158800
     33 N6         10.4820    6.4940  -12.6200 n3        1 1M3     -0.717600
     34 C16        10.5320    5.2460  -13.3490 c3        1 1M3      0.147100
     35 C13         9.1390    6.9950  -12.3960 c3        1 1M3      0.158800
     36 C12         8.3550    6.3220  -11.2500 c3        1 1M3      0.159300
     37 H1          1.9350   -1.3840   -1.5740 hn        1 1M3      0.442800
     38 H2          4.3970   -2.9420    1.4210 hc        1 1M3      0.075144
     39 H3          3.8990   -1.2130    1.6230 hc        1 1M3      0.075144
     40 H4          5.0150   -1.6960    0.2610 hc        1 1M3      0.075144
     41 H5          1.5300   -2.0340    1.6560 hc        1 1M3      0.075144
     42 H6          0.8250   -2.9320    0.2340 hc        1 1M3      0.075144
     43 H7          2.0270   -3.7400    1.3210 hc        1 1M3      0.075144
     44 H8          2.4230   -3.7240   -1.6280 hc        1 1M3      0.075144
     45 H9          3.6150   -4.3220   -0.4040 hc        1 1M3      0.075144
     46 H10         4.1460   -3.1280   -1.6560 hc        1 1M3      0.075144
     47 H11         0.2630    1.2500   -2.1760 ha        1 1M3      0.165000
     48 H12         0.8700    3.1390   -3.6730 ha        1 1M3      0.172000
     49 H13         2.9040    4.4920   -3.2510 ha        1 1M3      0.186000
     50 H14         3.7830    2.0140    0.2280 ha        1 1M3      0.158000
     51 H15         4.9760    4.0570   -0.2490 hn        1 1M3      0.443800
     52 H16         8.5140    6.2560   -2.4830 h4        1 1M3      0.042100
     53 H17         6.9960    4.9280    0.3770 hc        1 1M3      0.048367
     54 H18         5.9740    6.3760   -0.0190 hc        1 1M3      0.048367
     55 H19         7.7670    6.4380   -0.2540 hc        1 1M3      0.048367
     56 H20         5.4780    3.5010   -5.8490 hn        1 1M3      0.428800
     57 H21         9.0720    4.0140   -5.9320 ha        1 1M3      0.137000
     58 H22        10.2450    4.9040   -7.8600 ha        1 1M3      0.140000
     59 H23         6.4150    5.8700   -9.7280 ha        1 1M3      0.140000
     60 H24         5.2610    4.9920   -7.7870 ha        1 1M3      0.137000
     61 H25        11.0620    6.1200   -9.2540 h1        1 1M3      0.042950
     62 H26        10.6560    4.6700  -10.2890 h1        1 1M3      0.042950
     63 H27        12.2140    5.9740  -11.5290 h1        1 1M3      0.065200
     64 H28        11.4170    7.5580  -11.1000 h1        1 1M3      0.065200
     65 H30        11.6050    4.9870  -13.5470 h1        1 1M3      0.035700
     66 H31        10.0080    5.3810  -14.3320 h1        1 1M3      0.035700
     67 H32        10.0520    4.3880  -12.8030 h1        1 1M3      0.035700
     68 H33         8.5320    6.8800  -13.3360 h1        1 1M3      0.065200
     69 H34         9.2360    8.0950  -12.1720 h1        1 1M3      0.065200
     70 H35         7.9370    5.3410  -11.6230 h1        1 1M3      0.042950
     71 H36         7.4900    7.0030  -11.0070 h1        1 1M3      0.042950
     72 H72         3.3810   -0.6920   -1.2250 hn        1 1M3      0.442800
@<TRIPOS>BOND
     1    1    2 2   
     2    2    3 2   
     3    2    4 1   
     4    2    9 1   
     5    4    5 1   
     6    4   37 1   
     7    4   72 1   
     8    5    6 1   
     9    5    7 1   
    10    5    8 1   
    11    6   38 1   
    12    6   39 1   
    13    6   40 1   
    14    7   41 1   
    15    7   42 1   
    16    7   43 1   
    17    8   44 1   
    18    8   45 1   
    19    8   46 1   
    20    9   10 ar  
    21    9   13 ar  
    22   10   11 ar  
    23   10   47 1   
    24   11   12 ar  
    25   11   48 1   
    26   12   14 ar  
    27   12   49 1   
    28   13   14 ar  
    29   13   50 1   
    30   14   15 1   
    31   15   16 1   
    32   15   51 1   
    33   16   17 ar  
    34   16   21 ar  
    35   17   18 ar  
    36   18   19 ar  
    37   18   23 1   
    38   19   20 ar  
    39   20   21 ar  
    40   20   52 1   
    41   21   22 1   
    42   22   53 1   
    43   22   54 1   
    44   22   55 1   
    45   23   24 1   
    46   23   56 1   
    47   24   25 ar  
    48   24   29 ar  
    49   25   26 ar  
    50   25   57 1   
    51   26   27 ar  
    52   26   58 1   
    53   27   28 ar  
    54   27   30 1   
    55   28   29 ar  
    56   28   59 1   
    57   29   60 1   
    58   30   31 1   
    59   30   36 1   
    60   31   32 1   
    61   31   61 1   
    62   31   62 1   
    63   32   33 1   
    64   32   63 1   
    65   32   64 1   
    66   33   34 1   
    67   33   35 1   
    68   34   65 1   
    69   34   66 1   
    70   34   67 1   
    71   35   36 1   
    72   35   68 1   
    73   35   69 1   
    74   36   70 1   
    75   36   71 1   
@<TRIPOS>SUBSTRUCTURE
     1 1M3         1 TEMP              0 ****  ****    0 ROOT
