@<TRIPOS>MOLECULE
1M3
   72    75     1     0     0
SMALL
bcc


@<TRIPOS>ATOM
      1 O2          0.2480   -0.0950   -0.0330 o         1 1M3     -0.576800
      2 S1          1.5550    0.3360    0.1010 sy        1 1M3      1.486200
      3 O1          2.1710    0.3850    1.3360 o         1 1M3     -0.576800
      4 N7          2.4850   -1.0450   -0.8220 ny        1 1M3     -0.705900
      5 C23         2.8610   -2.2860   -0.0330 c3        1 1M3      0.158200
      6 C26         4.0680   -1.9980    0.8660 c3        1 1M3     -0.131767
      7 C25         1.6790   -2.7400    0.8270 c3        1 1M3     -0.131767
      8 C24         3.2300   -3.4150   -1.0030 c3        1 1M3     -0.131767
      9 C21         1.9770    1.5170   -0.9060 ca        1 1M3     -0.512500
     10 C20         1.1710    1.8540   -2.0090 ca        1 1M3     -0.015000
     11 C19         1.5180    2.9120   -2.8410 ca        1 1M3     -0.135000
     12 C18         2.6650    3.6620   -2.6000 ca        1 1M3      0.002000
     13 C22         3.1410    2.2760   -0.6660 ca        1 1M3     -0.080000
     14 C17         3.5060    3.3500   -1.4960 ca        1 1M3      0.164600
     15 N1          4.6190    4.1420   -1.1880 nu        1 1M3     -0.735300
     16 C1          5.6130    4.4740   -2.1400 ca        1 1M3      0.682200
     17 N3          5.4810    4.0380   -3.4260 nb        1 1M3     -0.829000
     18 C4          6.4810    4.4040   -4.3170 ca        1 1M3      0.897900
     19 N2          7.5780    5.1950   -3.9870 nb        1 1M3     -0.720000
     20 C3          7.6550    5.5990   -2.7170 ca        1 1M3      0.489200
     21 C2          6.7130    5.2780   -1.7150 ca        1 1M3     -0.386900
     22 C5          6.8720    5.7660   -0.3350 c3        1 1M3     -0.036800
     23 N4          6.3930    3.8510   -5.6080 nu        1 1M3     -0.686300
     24 C6          7.0940    4.4310   -6.6990 ca        1 1M3      0.047600
     25 C11         8.4990    4.4110   -6.7560 ca        1 1M3     -0.086000
     26 C10         9.1720    4.9210   -7.8570 ca        1 1M3     -0.184000
     27 C9          8.4770    5.4860   -8.9560 ca        1 1M3      0.176600
     28 C8          7.0600    5.4730   -8.8970 ca        1 1M3     -0.184000
     29 C7          6.3890    4.9720   -7.7930 ca        1 1M3     -0.086000
     30 N5          9.1610    6.1030  -10.0200 nh        1 1M3     -0.637000
     31 C15        10.5640    5.7610  -10.1700 c3        1 1M3      0.159300
     32 C14        11.2710    6.4540  -11.3530 c3        1 1M3      0.158800
     33 N6         10.5350    6.4740  -12.6020 n3        1 1M3     -0.717600
     34 C16        10.5790    5.2280  -13.3330 c3        1 1M3      0.147100
     35 C13         9.1950    6.9840  -12.3820 c3        1 1M3      0.158800
     36 C12         8.4030    6.3130  -11.2400 c3        1 1M3      0.159300
     37 H1          3.3410   -0.6790   -1.2330 hn        1 1M3      0.442800
     38 H2          4.3230   -2.9360    1.4190 hc        1 1M3      0.075144
     39 H3          3.8400   -1.2030    1.6180 hc        1 1M3      0.075144
     40 H4          4.9580   -1.6970    0.2620 hc        1 1M3      0.075144
     41 H5          1.9470   -3.7140    1.3080 hc        1 1M3      0.075144
     42 H6          0.7580   -2.8950    0.2140 hc        1 1M3      0.075144
     43 H7          1.4630   -2.0030    1.6400 hc        1 1M3      0.075144
     44 H8          3.5380   -4.3110   -0.4090 hc        1 1M3      0.075144
     45 H9          4.0850   -3.1220   -1.6590 hc        1 1M3      0.075144
     46 H10         2.3580   -3.7030   -1.6390 hc        1 1M3      0.075144
     47 H11         0.2410    1.2880   -2.2000 ha        1 1M3      0.165000
     48 H12         0.8700    3.1710   -3.6960 ha        1 1M3      0.172000
     49 H13         2.9120    4.5090   -3.2650 ha        1 1M3      0.186000
     50 H14         3.7570    2.0250    0.2180 ha        1 1M3      0.158000
     51 H15         4.9690    4.0580   -0.2550 hn        1 1M3      0.443800
     52 H16         8.5320    6.2320   -2.4730 h4        1 1M3      0.042100
     53 H17         7.7780    6.4170   -0.2470 hc        1 1M3      0.048367
     54 H18         6.9930    4.9130    0.3800 hc        1 1M3      0.048367
     55 H19         5.9830    6.3690   -0.0180 hc        1 1M3      0.048367
     56 H20         5.4880    3.5020   -5.8530 hn        1 1M3      0.428800
     57 H21         9.0850    3.9900   -5.9230 ha        1 1M3      0.137000
     58 H22        10.2710    4.8760   -7.8460 ha        1 1M3      0.140000
     59 H23         6.4550    5.8710   -9.7250 ha        1 1M3      0.140000
     60 H24         5.2880    4.9970   -7.7890 ha        1 1M3      0.137000
     61 H25        11.1010    6.0880   -9.2340 h1        1 1M3      0.042950
     62 H26        10.6890    4.6430  -10.2740 h1        1 1M3      0.042950
     63 H27        11.4720    7.5280  -11.0750 h1        1 1M3      0.065200
     64 H28        12.2600    5.9400  -11.5060 h1        1 1M3      0.065200
     65 H30        10.0600    5.3680  -14.3170 h1        1 1M3      0.035700
     66 H31        10.0920    4.3710  -12.7910 h1        1 1M3      0.035700
     67 H32        11.6520    4.9620  -13.5280 h1        1 1M3      0.035700
     68 H33         8.5910    6.8750  -13.3240 h1        1 1M3      0.065200
     69 H34         9.2980    8.0830  -12.1540 h1        1 1M3      0.065200
     70 H35         7.9790    5.3360  -11.6150 h1        1 1M3      0.042950
     71 H36         7.5410    6.9990  -10.9980 h1        1 1M3      0.042950
     72 H72         1.8900   -1.3580   -1.5890 hn        1 1M3      0.442800
@<TRIPOS>BOND
     1    1    2 2   
     2    2    3 2   
     3    2    4 1   
     4    2    9 1   
     5    4    5 1   
     6    4   37 1   
     7    4   72 1   
     8    5    6 1   
     9    5    7 1   
    10    5    8 1   
    11    6   38 1   
    12    6   39 1   
    13    6   40 1   
    14    7   41 1   
    15    7   42 1   
    16    7   43 1   
    17    8   44 1   
    18    8   45 1   
    19    8   46 1   
    20    9   10 ar  
    21    9   13 ar  
    22   10   11 ar  
    23   10   47 1   
    24   11   12 ar  
    25   11   48 1   
    26   12   14 ar  
    27   12   49 1   
    28   13   14 ar  
    29   13   50 1   
    30   14   15 1   
    31   15   16 1   
    32   15   51 1   
    33   16   17 ar  
    34   16   21 ar  
    35   17   18 ar  
    36   18   19 ar  
    37   18   23 1   
    38   19   20 ar  
    39   20   21 ar  
    40   20   52 1   
    41   21   22 1   
    42   22   53 1   
    43   22   54 1   
    44   22   55 1   
    45   23   24 1   
    46   23   56 1   
    47   24   25 ar  
    48   24   29 ar  
    49   25   26 ar  
    50   25   57 1   
    51   26   27 ar  
    52   26   58 1   
    53   27   28 ar  
    54   27   30 1   
    55   28   29 ar  
    56   28   59 1   
    57   29   60 1   
    58   30   31 1   
    59   30   36 1   
    60   31   32 1   
    61   31   61 1   
    62   31   62 1   
    63   32   33 1   
    64   32   63 1   
    65   32   64 1   
    66   33   34 1   
    67   33   35 1   
    68   34   65 1   
    69   34   66 1   
    70   34   67 1   
    71   35   36 1   
    72   35   68 1   
    73   35   69 1   
    74   36   70 1   
    75   36   71 1   
@<TRIPOS>SUBSTRUCTURE
     1 1M3         1 TEMP              0 ****  ****    0 ROOT
