@<TRIPOS>MOLECULE
1M3
   71    64     1     0     0
SMALL
bcc


@<TRIPOS>ATOM
      1 O2         -5.6140   -0.6920    5.0840 o         1 1M3     -0.944500
      2 S1         -5.4650   -0.2030    3.7330 ss        1 1M3      2.871000
      3 O1         -6.7970   -0.2960    3.2580 o         1 1M3     -0.944500
      4 N7         -4.9200    1.3850    3.7130 n2        1 1M3     -0.899000
      5 C23        -5.5660    2.3850    4.5390 c3        1 1M3      0.099000
      6 C26        -6.6790    3.0180    3.7740 c3        1 1M3     -0.236333
      7 C25        -6.1340    1.7120    5.8220 c3        1 1M3     -0.236333
      8 C24        -4.5450    3.4590    4.9310 c3        1 1M3     -0.236333
      9 C21        -4.3600   -1.2490    2.7780 c1        1 1M3     -0.804000
     10 C20        -4.7870   -1.7890    1.5650 c1        1 1M3     -0.032000
     11 C19        -3.9700   -2.6880    0.8750 c1        1 1M3     -0.098500
     12 C18        -2.7410   -3.0420    1.3940 c1        1 1M3     -0.098500
     13 C22        -3.1290   -1.6040    3.2960 c2        1 1M3     -0.063000
     14 C17        -2.3140   -2.5030    2.6040 c1        1 1M3      0.031000
     15 N1         -0.9960   -2.7680    3.0720 n2        1 1M3     -0.245000
     16 C1          0.1780   -2.3360    2.2690 c2        1 1M3      0.182000
     17 N3          0.2320   -2.6160    0.9610 n2        1 1M3     -0.278000
     18 C4          1.3270   -2.2200    0.2130 c1        1 1M3      0.173000
     19 N2          2.3560   -1.5430    0.8090 n1        1 1M3     -0.222000
     20 C3          2.3060   -1.2590    2.1270 c1        1 1M3      0.016000
     21 C2          1.2200   -1.6500    2.8740 c1        1 1M3     -0.262000
     22 C5          1.0740   -1.1590    4.3050 c2        1 1M3     -0.158000
     23 N4          1.4370   -2.6210   -1.1780 n3        1 1M3     -0.223000
     24 C6          2.3650   -1.9320   -2.0610 c2        1 1M3      0.042000
     25 C11         3.6830   -2.3680   -2.1630 c2        1 1M3     -0.105000
     26 C10         4.5810   -1.6810   -2.9720 c1        1 1M3     -0.098000
     27 C9          4.1580   -0.5510   -3.6830 c1        1 1M3     -0.003000
     28 C8          2.8510   -0.1190   -3.5810 c1        1 1M3     -0.142000
     29 C7          1.9480   -0.8100   -2.7680 c1        1 1M3     -0.161000
     30 N5          5.0690    0.1130   -4.5850 n3        1 1M3     -0.219000
     31 C15         4.6900   -0.1560   -5.9280 c3        1 1M3     -0.099000
     32 C14         5.5290    0.6240   -6.9340 c3        1 1M3     -0.075000
     33 N6          5.5680    2.0280   -6.6390 n3        1 1M3     -0.246000
     34 C16         4.2720    2.6140   -6.9040 c3        1 1M3     -0.127000
     35 C13         5.9440    2.2940   -5.2990 c3        1 1M3     -0.075000
     36 C12         5.1060    1.5140   -4.2920 c3        1 1M3     -0.099000
     37 H1         -4.2040    1.6320    3.1470 hn        1 1M3      0.241000
     38 H2         -6.4340    3.0760    2.8350 hc        1 1M3      0.088444
     39 H3         -7.4800    2.4820    3.8650 hc        1 1M3      0.088444
     40 H4         -6.8460    3.9260    4.1280 hc        1 1M3      0.088444
     41 H5         -5.4300    1.1530    6.2420 hc        1 1M3      0.088444
     42 H6         -6.9200    1.1330    5.5780 hc        1 1M3      0.088444
     43 H7         -6.4210    2.4000    6.4500 hc        1 1M3      0.088444
     44 H8         -4.9850    4.1420    5.4930 hc        1 1M3      0.088444
     45 H9         -4.1900    3.8840    4.1190 hc        1 1M3      0.088444
     46 H10        -3.8190    3.0500    5.4260 hc        1 1M3      0.088444
     47 H11        -5.6670   -1.5360    1.1930 ha        1 1M3      0.156000
     48 H12        -4.2780   -3.0790   -0.0010 ha        1 1M3      0.151500
     49 H13        -2.1740   -3.6670    0.9140 ha        1 1M3      0.151500
     50 H14        -2.8230   -1.2190    4.1580 ha        1 1M3      0.155000
     51 H15        -0.8700   -3.2490    3.8570 hn        1 1M3      0.231000
     52 H16         3.0430   -0.7740    2.5510 ha        1 1M3      0.166000
     53 H17         0.3490   -0.5110    4.3530 ha        1 1M3      0.083333
     54 H18         0.8740   -1.9130    4.8880 ha        1 1M3      0.083333
     55 H19         1.9090   -0.7370    4.5920 ha        1 1M3      0.083333
     56 H20         0.9220   -3.3040   -1.4990 hn        1 1M3      0.230000
     57 H21         3.9810   -3.1690   -1.6600 ha        1 1M3      0.157000
     58 H22         5.5230   -1.9920   -3.0470 ha        1 1M3      0.150000
     59 H23         2.5560    0.6730   -4.0800 ha        1 1M3      0.133000
     60 H24         1.0280   -0.5050   -2.6960 ha        1 1M3      0.131000
     61 H25         4.7930   -1.1010   -6.1000 h1        1 1M3      0.077750
     62 H26         3.7410    0.0900   -6.0480 h1        1 1M3      0.077750
     63 H27         5.1470    0.4970   -7.8340 h1        1 1M3      0.099000
     64 H28         6.4660    0.2640   -6.9250 h1        1 1M3      0.099000
     65 H30         4.3100    3.5930   -6.7300 h1        1 1M3      0.070333
     66 H31         3.6090    2.2080   -6.3260 h1        1 1M3      0.070333
     67 H32         4.0290    2.4600   -7.8360 h1        1 1M3      0.070333
     68 H33         6.8840    2.0520   -5.1800 h1        1 1M3      0.099000
     69 H34         5.8400    3.2430   -5.1260 h1        1 1M3      0.099000
     70 H35         5.4810    1.6400   -3.4060 h1        1 1M3      0.077750
     71 H36         4.1770    1.8690   -4.3020 h1        1 1M3      0.077750
@<TRIPOS>BOND
     1    1    2 1   
     2    2    3 1   
     3    4    5 1   
     4    4   37 1   
     5    5    6 1   
     6    5    7 1   
     7    5    8 1   
     8    6   38 1   
     9    6   39 1   
    10    6   40 1   
    11    7   41 1   
    12    7   42 1   
    13    7   43 1   
    14    8   44 1   
    15    8   45 1   
    16    8   46 1   
    17    9   10 1   
    18    9   13 1   
    19   10   47 1   
    20   11   12 1   
    21   11   48 1   
    22   12   49 1   
    23   13   14 1   
    24   13   50 1   
    25   15   16 1   
    26   15   51 1   
    27   16   17 1   
    28   16   21 1   
    29   17   18 1   
    30   18   23 1   
    31   19   20 1   
    32   20   52 1   
    33   22   53 1   
    34   22   54 1   
    35   22   55 1   
    36   23   24 1   
    37   23   56 1   
    38   24   25 1   
    39   24   29 1   
    40   25   26 1   
    41   25   57 1   
    42   26   58 1   
    43   27   28 1   
    44   27   30 1   
    45   28   59 1   
    46   29   60 1   
    47   30   31 1   
    48   30   36 1   
    49   31   32 1   
    50   31   61 1   
    51   31   62 1   
    52   32   33 1   
    53   32   63 1   
    54   32   64 1   
    55   33   34 1   
    56   33   35 1   
    57   34   65 1   
    58   34   66 1   
    59   34   67 1   
    60   35   36 1   
    61   35   68 1   
    62   35   69 1   
    63   36   70 1   
    64   36   71 1   
@<TRIPOS>SUBSTRUCTURE
     1 1M3         1 TEMP              0 ****  ****    0 ROOT
