@<TRIPOS>MOLECULE
1M3
   74    77     1     0     0
SMALL
bcc


@<TRIPOS>ATOM
      1 O2          0.6340    1.3470    0.7980 o         1 1M3     -0.540300
      2 S1          1.9650    1.0910    0.5550 sy        1 1M3      1.446200
      3 O1          3.0200    1.5530    1.3190 o         1 1M3     -0.540300
      4 N7          2.0590   -0.7340    0.5960 n4        1 1M3     -0.749900
      5 C23         2.1640   -1.3550    2.0100 c3        1 1M3      0.169200
      6 C26         3.6100   -1.2760    2.4970 c3        1 1M3     -0.146767
      7 C25         1.2420   -0.6040    2.9680 c3        1 1M3     -0.146767
      8 C24         1.7330   -2.8220    1.9320 c3        1 1M3     -0.146767
      9 C21         2.3190    1.3530   -1.0660 ca        1 1M3     -0.433500
     10 C20         1.3950    1.0300   -2.0710 ca        1 1M3      0.043000
     11 C19         1.6120    1.4100   -3.3970 ca        1 1M3     -0.108000
     12 C18         2.7330    2.1580   -3.7420 ca        1 1M3     -0.007000
     13 C22         3.4720    2.0770   -1.4170 ca        1 1M3      0.018000
     14 C17         3.6630    2.5060   -2.7380 ca        1 1M3     -0.065400
     15 N1          4.7820    3.4060   -3.0600 n4        1 1M3     -0.619100
     16 C1          5.8300    2.8160   -3.9360 ca        1 1M3      0.494200
     17 N3          5.5870    2.8450   -5.2850 nb        1 1M3     -0.685000
     18 C4          6.5890    2.3710   -6.0770 ca        1 1M3      0.756900
     19 N2          7.7880    1.8350   -5.6340 nb        1 1M3     -0.604000
     20 C3          7.9780    1.8170   -4.3160 ca        1 1M3      0.494200
     21 C2          7.0210    2.3150   -3.3720 ca        1 1M3     -0.206900
     22 C5          7.3300    2.3100   -1.9320 c3        1 1M3     -0.101800
     23 N4          6.4170    2.4680   -7.5710 n4        1 1M3     -0.559100
     24 C6          7.1690    3.5750   -8.1330 ca        1 1M3     -0.242400
     25 C11         8.5350    3.4100   -8.4680 ca        1 1M3     -0.023000
     26 C10         9.2250    4.4240   -9.0810 ca        1 1M3     -0.210000
     27 C9          8.6090    5.6910   -9.3810 ca        1 1M3      0.274600
     28 C8          7.2190    5.8230   -9.0210 ca        1 1M3     -0.210000
     29 C7          6.5310    4.8080   -8.4060 ca        1 1M3     -0.023000
     30 N5          9.3020    6.7090   -9.9570 nh        1 1M3     -0.584000
     31 C15        10.6710    6.4870  -10.4010 c3        1 1M3      0.148300
     32 C14        11.4590    7.7600  -10.7900 c3        1 1M3      0.164800
     33 N6         10.7080    8.7820  -11.4780 n3        1 1M3     -0.716600
     34 C16        10.5230    8.5650  -12.8940 c3        1 1M3      0.147100
     35 C13         9.5110    9.1150  -10.7440 c3        1 1M3      0.164800
     36 C12         8.6050    7.9250  -10.3500 c3        1 1M3      0.148300
     37 H1          2.8490   -1.1050    0.0700 hn        1 1M3      0.457800
     38 H2          4.2960   -1.8590    1.8370 hc        1 1M3      0.088589
     39 H3          3.6530   -1.7300    3.5220 hc        1 1M3      0.088589
     40 H4          3.9660   -0.2200    2.5790 hc        1 1M3      0.088589
     41 H5          1.6180    0.4280    3.1800 hc        1 1M3      0.088589
     42 H6          0.1890   -0.5540    2.5940 hc        1 1M3      0.088589
     43 H7          1.2260   -1.1600    3.9430 hc        1 1M3      0.088589
     44 H8          0.6580   -2.9180    1.6420 hc        1 1M3      0.088589
     45 H9          2.3690   -3.4000    1.2180 hc        1 1M3      0.088589
     46 H10         1.8550   -3.2800    2.9480 hc        1 1M3      0.088589
     47 H11         0.4560    0.4980   -1.8150 ha        1 1M3      0.190000
     48 H12         0.8700    1.1410   -4.1760 ha        1 1M3      0.210000
     49 H13         2.8660    2.4860   -4.7900 ha        1 1M3      0.189000
     50 H14         4.2000    2.3310   -0.6180 ha        1 1M3      0.187000
     51 H15         5.2460    3.7050   -2.1860 hn        1 1M3      0.489300
     52 H16         8.9470    1.3890   -3.9660 h4        1 1M3      0.107100
     53 H17         6.4860    1.8900   -1.3290 hc        1 1M3      0.093367
     54 H18         8.2400    1.6860   -1.7180 hc        1 1M3      0.093367
     55 H19         7.5560    3.3500   -1.5720 hc        1 1M3      0.093367
     56 H20         6.7630    1.5860   -7.9840 hn        1 1M3      0.483300
     57 H21         9.0540    2.4580   -8.2580 ha        1 1M3      0.146000
     58 H22        10.2760    4.2380   -9.3610 ha        1 1M3      0.173000
     59 H23         6.6720    6.7510   -9.2580 ha        1 1M3      0.173000
     60 H24         5.4670    4.9590   -8.1570 ha        1 1M3      0.146000
     61 H25        11.2490    5.9930   -9.5690 h1        1 1M3      0.065700
     62 H26        10.6400    5.7870  -11.2870 h1        1 1M3      0.065700
     63 H27        11.8720    8.2260   -9.8490 h1        1 1M3      0.082450
     64 H28        12.3270    7.4290  -11.4270 h1        1 1M3      0.082450
     65 H30        11.5300    8.4330  -13.3720 h1        1 1M3      0.048367
     66 H31        10.0360    9.4730  -13.3370 h1        1 1M3      0.048367
     67 H32         9.8910    7.6650  -13.1270 h1        1 1M3      0.048367
     68 H33         8.8800    9.8270  -11.3450 h1        1 1M3      0.082450
     69 H34         9.8350    9.6430   -9.8010 h1        1 1M3      0.082450
     70 H35         7.9290    7.6740  -11.2190 h1        1 1M3      0.065700
     71 H36         7.9700    8.2770   -9.4880 h1        1 1M3      0.065700
     72 H72         1.2100   -1.1360    0.1890 hn        1 1M3      0.457800
     73 H121        4.3850    4.2440   -3.5250 hn        1 1M3      0.489300
     74 H42         5.4180    2.5870   -7.7920 hn        1 1M3      0.483300
@<TRIPOS>BOND
     1    1    2 2   
     2    2    3 2   
     3    2    4 1   
     4    2    9 1   
     5    4    5 1   
     6    4   37 1   
     7    4   72 1   
     8    5    6 1   
     9    5    7 1   
    10    5    8 1   
    11    6   38 1   
    12    6   39 1   
    13    6   40 1   
    14    7   41 1   
    15    7   42 1   
    16    7   43 1   
    17    8   44 1   
    18    8   45 1   
    19    8   46 1   
    20    9   10 ar  
    21    9   13 ar  
    22   10   11 ar  
    23   10   47 1   
    24   11   12 ar  
    25   11   48 1   
    26   12   14 ar  
    27   12   49 1   
    28   13   14 ar  
    29   13   50 1   
    30   14   15 1   
    31   15   16 1   
    32   15   51 1   
    33   15   73 1   
    34   16   17 ar  
    35   16   21 ar  
    36   17   18 ar  
    37   18   19 ar  
    38   18   23 1   
    39   19   20 ar  
    40   20   21 ar  
    41   20   52 1   
    42   21   22 1   
    43   22   53 1   
    44   22   54 1   
    45   22   55 1   
    46   23   24 1   
    47   23   56 1   
    48   23   74 1   
    49   24   25 ar  
    50   24   29 ar  
    51   25   26 ar  
    52   25   57 1   
    53   26   27 ar  
    54   26   58 1   
    55   27   28 ar  
    56   27   30 1   
    57   28   29 ar  
    58   28   59 1   
    59   29   60 1   
    60   30   31 1   
    61   30   36 1   
    62   31   32 1   
    63   31   61 1   
    64   31   62 1   
    65   32   33 1   
    66   32   63 1   
    67   32   64 1   
    68   33   34 1   
    69   33   35 1   
    70   34   65 1   
    71   34   66 1   
    72   34   67 1   
    73   35   36 1   
    74   35   68 1   
    75   35   69 1   
    76   36   70 1   
    77   36   71 1   
@<TRIPOS>SUBSTRUCTURE
     1 1M3         1 TEMP              0 ****  ****    0 ROOT
