@<TRIPOS>MOLECULE
1M4
   36    38     1     0     0
SMALL
bcc


@<TRIPOS>ATOM
      1 C1          0.2630    0.5430   -0.0250 ca        1 1M4     -0.137300
      2 C2          0.3220    1.9460   -0.0700 ca        1 1M4      0.172100
      3 C3         -0.8600    2.7130   -0.0350 ca        1 1M4     -0.163000
      4 C4         -2.0890    2.0760    0.0570 ca        1 1M4     -0.066000
      5 C5         -2.1560    0.6790    0.1200 ca        1 1M4     -0.064900
      6 C6         -0.9860   -0.0780    0.0800 ca        1 1M4     -0.052000
      7 C7          1.5210   -0.2780   -0.0760 c3        1 1M4      0.132500
      8 C8          2.7010    0.5840   -0.5440 c3        1 1M4     -0.089400
      9 C9          2.7140    1.9680    0.0940 c3        1 1M4      0.161800
     10 O10         1.4810    2.6740   -0.1900 os        1 1M4     -0.323900
     11 C11         1.3500   -1.4390   -1.1250 c         1 1M4      0.675500
     12 N12         1.4200   -2.6450   -0.3870 n         1 1M4     -0.444300
     13 C13         1.7440   -2.2920    0.9770 c2        1 1M4      0.612800
     14 N14         1.7790   -0.9760    1.2090 n2        1 1M4     -0.660900
     15 O15         1.1890   -1.3650   -2.3430 o         1 1M4     -0.567500
     16 N16         2.0530   -3.2910    1.9160 nh        1 1M4     -0.869800
     17 C17         1.5870   -3.9450   -0.9440 c3        1 1M4      0.085300
     18 BR1        -3.8180   -0.1720    0.2590 br        1 1M4     -0.092100
     19 C18         2.9240    1.9230    1.6000 c3        1 1M4     -0.102100
     20 C19         3.7920    2.8260   -0.5670 c3        1 1M4     -0.102100
     21 H1         -0.7890    3.8090   -0.0830 ha        1 1M4      0.155000
     22 H2         -3.0100    2.6800    0.0820 ha        1 1M4      0.148000
     23 H3         -1.0350   -1.1780    0.1240 ha        1 1M4      0.146000
     24 H4          3.6750    0.0750   -0.3240 hc        1 1M4      0.074700
     25 H5          2.6100    0.7020   -1.6590 hc        1 1M4      0.074700
     26 H6          1.5420   -4.1380    1.7940 hn        1 1M4      0.413300
     27 H7          2.0620   -2.9610    2.8590 hn        1 1M4      0.413300
     28 H8          2.6270   -4.3350   -0.7700 h1        1 1M4      0.052700
     29 H9          0.8520   -4.6540   -0.4770 h1        1 1M4      0.052700
     30 H10         1.3930   -3.8910   -2.0500 h1        1 1M4      0.052700
     31 H11         3.7740    1.2440    1.8440 hc        1 1M4      0.051700
     32 H12         3.1490    2.9470    1.9830 hc        1 1M4      0.051700
     33 H13         2.0030    1.5500    2.1100 hc        1 1M4      0.051700
     34 H14         3.6520    2.8430   -1.6730 hc        1 1M4      0.051700
     35 H15         3.7300    3.8730   -0.1850 hc        1 1M4      0.051700
     36 H16         4.7940    2.4020   -0.3240 hc        1 1M4      0.051700
@<TRIPOS>BOND
     1    1    2 ar  
     2    1    6 ar  
     3    1    7 1   
     4    2    3 ar  
     5    2   10 1   
     6    3    4 ar  
     7    3   21 1   
     8    4    5 ar  
     9    4   22 1   
    10    5    6 ar  
    11    5   18 1   
    12    6   23 1   
    13    7    8 1   
    14    7   11 1   
    15    7   14 1   
    16    8    9 1   
    17    8   24 1   
    18    8   25 1   
    19    9   10 1   
    20    9   19 1   
    21    9   20 1   
    22   11   12 1   
    23   11   15 2   
    24   12   13 1   
    25   12   17 1   
    26   13   14 2   
    27   13   16 1   
    28   16   26 1   
    29   16   27 1   
    30   17   28 1   
    31   17   29 1   
    32   17   30 1   
    33   19   31 1   
    34   19   32 1   
    35   19   33 1   
    36   20   34 1   
    37   20   35 1   
    38   20   36 1   
@<TRIPOS>SUBSTRUCTURE
     1 1M4         1 TEMP              0 ****  ****    0 ROOT
