@<TRIPOS>MOLECULE
1M4
   37    39     1     0     0
SMALL
bcc


@<TRIPOS>ATOM
      1 C1         -0.0450   -0.0880   -0.0350 ca        1 1M4     -0.191300
      2 C2          1.3570   -0.0590   -0.0230 ca        1 1M4      0.193100
      3 C3          2.0570    0.0160    1.2020 ca        1 1M4     -0.148000
      4 C4          1.3530    0.0480    2.3930 ca        1 1M4     -0.039000
      5 C5         -0.0530    0.0020    2.3910 ca        1 1M4     -0.059900
      6 C6         -0.7390   -0.0630    1.1840 ca        1 1M4     -0.062000
      7 C7         -0.7920   -0.1400   -1.3320 c3        1 1M4      0.147500
      8 C8          0.1300    0.1970   -2.5120 c3        1 1M4     -0.093400
      9 C9          1.5120   -0.4400   -2.3870 c3        1 1M4      0.158800
     10 O10         2.1460   -0.0510   -1.1440 os        1 1M4     -0.303900
     11 C11        -1.9600    0.9170   -1.3290 c         1 1M4      0.678500
     12 N12        -3.1820    0.1690   -1.5170 n         1 1M4     -0.430300
     13 C13        -2.7870   -1.1990   -1.5470 c2        1 1M4      0.462800
     14 N14        -1.4920   -1.4540   -1.4950 n2        1 1M4     -0.518900
     15 O15        -1.9200    2.1340   -1.2500 o         1 1M4     -0.473500
     16 N16        -3.8000   -2.2680   -1.6930 nz        1 1M4     -0.780600
     17 C17        -4.4900    0.6340   -1.1940 c3        1 1M4      0.053300
     18 Br1        -0.9960    0.0330    4.0030 br        1 1M4     -0.053100
     19 C18         1.4750   -1.9580   -2.4680 c3        1 1M4     -0.107100
     20 C19         2.4300    0.1300   -3.4660 c3        1 1M4     -0.107100
     21 H1          3.1580    0.0520    1.1870 ha        1 1M4      0.175000
     22 H2          1.9030    0.1070    3.3490 ha        1 1M4      0.169000
     23 H3         -1.8400   -0.0790    1.1760 ha        1 1M4      0.124000
     24 H4          0.2500    1.3160   -2.5230 hc        1 1M4      0.089200
     25 H5         -0.3270   -0.1160   -3.4850 hc        1 1M4      0.089200
     26 H6         -4.5130   -2.1620   -0.9610 hn        1 1M4      0.484133
     27 H7         -3.3480   -3.1910   -1.6050 hn        1 1M4      0.484133
     28 H8         -4.4580    1.7610   -1.1520 h1        1 1M4      0.072367
     29 H9         -5.2160    0.3250   -1.9940 h1        1 1M4      0.072367
     30 H10        -4.8410    0.2480   -0.1980 h1        1 1M4      0.072367
     31 H11         0.8630   -2.2780   -3.3430 hc        1 1M4      0.059533
     32 H12         1.0460   -2.3930   -1.5340 hc        1 1M4      0.059533
     33 H13         2.5130   -2.3530   -2.5890 hc        1 1M4      0.059533
     34 H14         2.0730   -0.2070   -4.4670 hc        1 1M4      0.059533
     35 H15         3.4730   -0.2360   -3.3040 hc        1 1M4      0.059533
     36 H16         2.4380    1.2450   -3.4270 hc        1 1M4      0.059533
     37 H163       -4.2400   -2.1880   -2.6190 hn        1 1M4      0.484133
@<TRIPOS>BOND
     1    1    2 ar  
     2    1    6 ar  
     3    1    7 1   
     4    2    3 ar  
     5    2   10 1   
     6    3    4 ar  
     7    3   21 1   
     8    4    5 ar  
     9    4   22 1   
    10    5    6 ar  
    11    5   18 1   
    12    6   23 1   
    13    7    8 1   
    14    7   11 1   
    15    7   14 1   
    16    8    9 1   
    17    8   24 1   
    18    8   25 1   
    19    9   10 1   
    20    9   19 1   
    21    9   20 1   
    22   11   12 1   
    23   11   15 2   
    24   12   13 1   
    25   12   17 1   
    26   13   14 2   
    27   13   16 1   
    28   16   26 1   
    29   16   27 1   
    30   16   37 1   
    31   17   28 1   
    32   17   29 1   
    33   17   30 1   
    34   19   31 1   
    35   19   32 1   
    36   19   33 1   
    37   20   34 1   
    38   20   35 1   
    39   20   36 1   
@<TRIPOS>SUBSTRUCTURE
     1 1M4         1 TEMP              0 ****  ****    0 ROOT
