@<TRIPOS>MOLECULE
1M4
   37    39     1     0     0
SMALL
bcc


@<TRIPOS>ATOM
      1 C1         -0.0470   -0.0870   -0.0350 ca        1 1M4     -0.191300
      2 C2          1.3560   -0.0590   -0.0200 ca        1 1M4      0.193100
      3 C3          2.0540    0.0170    1.2050 ca        1 1M4     -0.148000
      4 C4          1.3480    0.0500    2.3960 ca        1 1M4     -0.039000
      5 C5         -0.0570    0.0040    2.3910 ca        1 1M4     -0.059900
      6 C6         -0.7420   -0.0610    1.1830 ca        1 1M4     -0.062000
      7 C7         -0.7920   -0.1400   -1.3320 c3        1 1M4      0.147500
      8 C8          0.1320    0.1960   -2.5110 c3        1 1M4     -0.093400
      9 C9          1.5140   -0.4400   -2.3840 c3        1 1M4      0.158800
     10 O10         2.1460   -0.0510   -1.1410 os        1 1M4     -0.303900
     11 C11        -1.9600    0.9170   -1.3310 c         1 1M4      0.678500
     12 N12        -3.1810    0.1680   -1.5210 n         1 1M4     -0.430300
     13 C13        -2.7860   -1.1990   -1.5490 c2        1 1M4      0.462800
     14 N14        -1.4920   -1.4540   -1.4960 n2        1 1M4     -0.518900
     15 O15        -1.9200    2.1340   -1.2540 o         1 1M4     -0.473500
     16 N16        -3.7990   -2.2680   -1.6960 n4        1 1M4     -0.780600
     17 C17        -4.4900    0.6340   -1.1980 c3        1 1M4      0.053300
     18 BR1        -1.0020    0.0360    4.0020 br        1 1M4     -0.053100
     19 C18         1.4770   -1.9580   -2.4650 c3        1 1M4     -0.107100
     20 C19         2.4330    0.1290   -3.4630 c3        1 1M4     -0.107100
     21 H1          3.1550    0.0530    1.1910 ha        1 1M4      0.175000
     22 H2          1.8970    0.1090    3.3510 ha        1 1M4      0.169000
     23 H3         -1.8430   -0.0770    1.1740 ha        1 1M4      0.124000
     24 H4         -0.3240   -0.1160   -3.4850 hc        1 1M4      0.089200
     25 H5          0.2520    1.3160   -2.5230 hc        1 1M4      0.089200
     26 H6         -4.2360   -2.1900   -2.6240 hn        1 1M4      0.484133
     27 H7         -3.3470   -3.1910   -1.6050 hn        1 1M4      0.484133
     28 H8         -5.2150    0.3240   -1.9980 h1        1 1M4      0.072367
     29 H9         -4.8410    0.2490   -0.2020 h1        1 1M4      0.072367
     30 H10        -4.4580    1.7600   -1.1580 h1        1 1M4      0.072367
     31 H11         2.5150   -2.3530   -2.5840 hc        1 1M4      0.059533
     32 H12         1.0460   -2.3930   -1.5320 hc        1 1M4      0.059533
     33 H13         0.8660   -2.2790   -3.3420 hc        1 1M4      0.059533
     34 H14         3.4760   -0.2370   -3.2990 hc        1 1M4      0.059533
     35 H15         2.4410    1.2440   -3.4230 hc        1 1M4      0.059533
     36 H16         2.0760   -0.2080   -4.4640 hc        1 1M4      0.059533
     37 H163       -4.5150   -2.1610   -0.9660 hn        1 1M4      0.484133
@<TRIPOS>BOND
     1    1    2 ar  
     2    1    6 ar  
     3    1    7 1   
     4    2    3 ar  
     5    2   10 1   
     6    3    4 ar  
     7    3   21 1   
     8    4    5 ar  
     9    4   22 1   
    10    5    6 ar  
    11    5   18 1   
    12    6   23 1   
    13    7    8 1   
    14    7   11 1   
    15    7   14 1   
    16    8    9 1   
    17    8   24 1   
    18    8   25 1   
    19    9   10 1   
    20    9   19 1   
    21    9   20 1   
    22   11   12 1   
    23   11   15 2   
    24   12   13 1   
    25   12   17 1   
    26   13   14 2   
    27   13   16 1   
    28   16   26 1   
    29   16   27 1   
    30   16   37 1   
    31   17   28 1   
    32   17   29 1   
    33   17   30 1   
    34   19   31 1   
    35   19   32 1   
    36   19   33 1   
    37   20   34 1   
    38   20   35 1   
    39   20   36 1   
@<TRIPOS>SUBSTRUCTURE
     1 1M4         1 TEMP              0 ****  ****    0 ROOT
