@<TRIPOS>MOLECULE
1M4
   36    33     1     0     0
SMALL
bcc


@<TRIPOS>ATOM
      1 C1          0.4850    0.8760    0.8120 c1        1 1M4     -0.001500
      2 C2          1.9630    0.8760    0.8120 c1        1 1M4     -0.001500
      3 C3          2.6510    0.8760    2.0070 c1        1 1M4     -0.107500
      4 C4          1.9420    0.8760    3.2310 c1        1 1M4     -0.066000
      5 C5          0.5070    0.8760    3.2330 c1        1 1M4     -0.205000
      6 C6         -0.2030    0.8760    2.0100 c1        1 1M4     -0.107500
      7 C7         -0.2420    0.2980   -0.4700 c2        1 1M4      0.050000
      8 C8          0.6000   -0.0780   -1.5680 c3        1 1M4     -0.168000
      9 C9          1.9160   -0.6250   -1.2300 c3        1 1M4      0.090000
     10 O10         2.6970    0.1300   -0.3730 o         1 1M4     -0.207000
     11 C11        -1.3160    1.3470   -0.9760 c1        1 1M4      0.283000
     12 N12        -2.6680    0.6160   -0.8040 n2        1 1M4     -0.333000
     13 C13        -2.3070   -0.6550   -0.2620 c2        1 1M4      0.166000
     14 N14        -1.0210   -0.8190   -0.0890 n2        1 1M4     -0.248000
     15 O15        -1.1020    2.2910   -1.7090 o         1 1M4     -0.292000
     16 N16        -3.2360   -1.3710    0.5620 n3        1 1M4     -0.308000
     17 C17        -3.9740    1.2430   -0.7200 c3        1 1M4     -0.070000
     18 BR1        -0.4410    0.6840    4.8790 br        1 1M4      0.048000
     19 C18         2.7030   -0.7510   -2.5570 c3        1 1M4     -0.220000
     20 C19         1.6740   -1.9750   -0.5370 c3        1 1M4     -0.220000
     21 H1          3.6270    0.8760    2.0080 ha        1 1M4      0.150500
     22 H2          2.4300    0.8760    4.0770 ha        1 1M4      0.148000
     23 H3         -1.1790    0.8760    2.0120 ha        1 1M4      0.150500
     24 H4          0.7370    0.7100   -2.1270 hc        1 1M4      0.114000
     25 H5          0.1240   -0.7460   -2.0970 hc        1 1M4      0.114000
     26 H6         -3.6430   -2.1220    0.2430 hn        1 1M4      0.208500
     27 H7         -3.3940   -1.0950    1.4160 hn        1 1M4      0.208500
     28 H8         -4.6580    0.6100   -1.0100 h1        1 1M4      0.092000
     29 H9         -3.9940    2.0310   -1.2950 h1        1 1M4      0.092000
     30 H10        -4.1480    1.5090    0.2030 h1        1 1M4      0.092000
     31 H11         2.1900   -1.2890   -3.1900 hc        1 1M4      0.091000
     32 H12         2.8530    0.1380   -2.9320 hc        1 1M4      0.091000
     33 H13         3.5620   -1.1820   -2.3860 hc        1 1M4      0.091000
     34 H14         2.5220   -2.4480   -0.4410 hc        1 1M4      0.091000
     35 H15         1.2840   -1.8220    0.3450 hc        1 1M4      0.091000
     36 H16         1.0610   -2.5110   -1.0760 hc        1 1M4      0.091000
@<TRIPOS>BOND
     1    1    2 1   
     2    1    6 1   
     3    2    3 1   
     4    3   21 1   
     5    4    5 1   
     6    4   22 1   
     7    5   18 1   
     8    6   23 1   
     9    7    8 1   
    10    7   11 1   
    11    7   14 1   
    12    8    9 1   
    13    8   24 1   
    14    8   25 1   
    15    9   10 1   
    16    9   19 1   
    17    9   20 1   
    18   11   15 1   
    19   12   13 1   
    20   12   17 1   
    21   13   14 1   
    22   13   16 1   
    23   16   26 1   
    24   16   27 1   
    25   17   28 1   
    26   17   29 1   
    27   17   30 1   
    28   19   31 1   
    29   19   32 1   
    30   19   33 1   
    31   20   34 1   
    32   20   35 1   
    33   20   36 1   
@<TRIPOS>SUBSTRUCTURE
     1 1M4         1 TEMP              0 ****  ****    0 ROOT
