@<TRIPOS>MOLECULE
1M5
   46    42     1     0     0
SMALL
bcc


@<TRIPOS>ATOM
      1 C1          0.7900    0.5090   -2.1800 c1        1 1M5     -0.080000
      2 C2          2.2430    0.4680   -2.1870 c1        1 1M5     -0.121750
      3 C3          2.9560    0.2020   -0.9780 c1        1 1M5     -0.121750
      4 C4          2.2660   -0.0170    0.1970 c1        1 1M5      0.119000
      5 C5          0.7680    0.0240    0.2040 c1        1 1M5     -0.129000
      6 C6          0.0770    0.2820   -0.9640 c2        1 1M5     -0.063000
      7 O7          2.9720   -0.4600    1.4880 o         1 1M5     -0.208000
      8 C8          2.1780   -0.5940    2.6500 c3        1 1M5      0.089000
      9 C9          0.8530   -1.1550    2.4740 c3        1 1M5     -0.165000
     10 C10         0.0300   -0.5450    1.4900 c2        1 1M5      0.051000
     11 C11         0.0090    0.6590   -3.5160 c2        1 1M5     -0.016000
     12 C12         2.0250    0.8050    3.2820 c3        1 1M5     -0.219500
     13 C13         2.9350   -1.4550    3.6170 c3        1 1M5     -0.219500
     14 C14        -1.0730   -1.5620    1.0460 c1        1 1M5      0.283000
     15 N15        -2.4120   -0.8870    1.5040 n2        1 1M5     -0.335000
     16 C16        -1.9900    0.3420    2.1100 c2        1 1M5      0.167000
     17 N17        -0.7180    0.5240    2.1070 n2        1 1M5     -0.249000
     18 N18        -2.8160    0.9770    3.1340 n3        1 1M5     -0.309000
     19 O19        -0.9070   -2.7330    0.8580 o         1 1M5     -0.294000
     20 C20        -3.7090   -1.1620    0.9910 c3        1 1M5     -0.069000
     21 C21        -0.8700   -0.2610   -4.0740 c2        1 1M5     -0.119000
     22 C22        -1.6840    0.1110   -5.1460 c1        1 1M5     -0.060000
     23 C23        -1.6180    1.4020   -5.6570 c1        1 1M5     -0.121750
     24 C24        -0.7310    2.3380   -5.0970 c1        1 1M5     -0.121750
     25 C25         0.0770    1.9730   -4.0360 c1        1 1M5     -0.122000
     26 CL1        -2.7550   -1.0990   -5.9120 cl        1 1M5     -0.021000
     27 H1          2.7070    0.6140   -2.9760 ha        1 1M5      0.143250
     28 H2          3.9900    0.1710   -0.9820 ha        1 1M5      0.143250
     29 H3         -0.9460    0.3110   -0.9590 ha        1 1M5      0.137000
     30 H4          0.9500   -2.0620    2.2490 hc        1 1M5      0.112000
     31 H5          0.3980   -1.1030    3.3080 hc        1 1M5      0.112000
     32 H6          1.6940    1.4160    2.6240 hc        1 1M5      0.090167
     33 H7          1.3870    0.7610    4.0450 hc        1 1M5      0.090167
     34 H8          2.9070    1.1160    3.6090 hc        1 1M5      0.090167
     35 H9          2.4500   -1.5450    4.4020 hc        1 1M5      0.090167
     36 H10         3.7910   -1.0380    3.8130 hc        1 1M5      0.090167
     37 H11         3.0850   -2.3530    3.2130 hc        1 1M5      0.090167
     38 H12        -2.5060    1.7130    3.5780 hn        1 1M5      0.208500
     39 H13        -3.7010    0.6560    3.3000 hn        1 1M5      0.208500
     40 H14        -3.9690   -0.4590    0.3830 h1        1 1M5      0.091333
     41 H15        -4.3380   -1.2060    1.7190 h1        1 1M5      0.091333
     42 H16        -3.6990   -2.0430    0.5010 h1        1 1M5      0.091333
     43 H17        -0.9180   -1.1550   -3.7220 ha        1 1M5      0.151000
     44 H18        -2.1900    1.6600   -6.4100 ha        1 1M5      0.143250
     45 H19        -0.6860    3.2340   -5.4530 ha        1 1M5      0.143250
     46 H20         0.6950    2.6250   -3.6440 ha        1 1M5      0.139000
@<TRIPOS>BOND
     1    1    6 1   
     2    1   11 1   
     3    2    3 1   
     4    2   27 1   
     5    3   28 1   
     6    4    5 1   
     7    5    6 1   
     8    6   29 1   
     9    7    8 1   
    10    8    9 1   
    11    8   12 1   
    12    8   13 1   
    13    9   10 1   
    14    9   30 1   
    15    9   31 1   
    16   10   14 1   
    17   10   17 1   
    18   11   21 1   
    19   11   25 1   
    20   12   32 1   
    21   12   33 1   
    22   12   34 1   
    23   13   35 1   
    24   13   36 1   
    25   13   37 1   
    26   14   19 1   
    27   15   16 1   
    28   15   20 1   
    29   16   17 1   
    30   16   18 1   
    31   18   38 1   
    32   18   39 1   
    33   20   40 1   
    34   20   41 1   
    35   20   42 1   
    36   21   22 1   
    37   21   43 1   
    38   22   26 1   
    39   23   24 1   
    40   23   44 1   
    41   24   45 1   
    42   25   46 1   
@<TRIPOS>SUBSTRUCTURE
     1 1M5         1 TEMP              0 ****  ****    0 ROOT
