@<TRIPOS>MOLECULE
1M5
   47    50     1     0     0
SMALL
bcc


@<TRIPOS>ATOM
      1 C1         -0.0450   -0.0810    0.0110 cp        1 1M5     -0.054000
      2 C2          1.3620   -0.1650    0.0260 ca        1 1M5     -0.055000
      3 C3          2.0580   -0.1490    1.2220 ca        1 1M5     -0.147000
      4 C4          1.3520   -0.0390    2.4400 ca        1 1M5      0.182100
      5 C5         -0.0490    0.0460    2.4400 ca        1 1M5     -0.190300
      6 C6         -0.7340    0.0230    1.2170 ca        1 1M5     -0.080000
      7 O7          2.1310   -0.0770    3.5680 os        1 1M5     -0.305900
      8 C8          1.5080    0.3400    4.8060 c3        1 1M5      0.158800
      9 C9          0.0930   -0.2200    4.9190 c3        1 1M5     -0.092400
     10 C10        -0.7980    0.1650    3.7310 c3        1 1M5      0.148500
     11 C11        -0.7700   -0.1040   -1.2580 cp        1 1M5     -0.045000
     12 C12         2.3840   -0.2810    5.8930 c3        1 1M5     -0.106600
     13 C13         1.5540    1.8580    4.8930 c3        1 1M5     -0.106600
     14 C14        -2.0400   -0.8030    3.7330 c         1 1M5      0.680500
     15 N15        -3.2040    0.0350    3.9090 n         1 1M5     -0.432300
     16 C16        -2.7100    1.3710    3.9230 c2        1 1M5      0.460800
     17 N17        -1.4010    1.5290    3.8730 n2        1 1M5     -0.515900
     18 N18        -3.6430    2.5130    4.0480 n4        1 1M5     -0.779600
     19 O19        -2.0920   -2.0200    3.6660 o         1 1M5     -0.478500
     20 C20        -4.5440   -0.3370    3.5930 c3        1 1M5      0.054300
     21 C21        -0.3370    0.6930   -2.3260 ca        1 1M5     -0.115000
     22 C22        -1.0340    0.6660   -3.5370 ca        1 1M5      0.019400
     23 C23        -2.1550   -0.1550   -3.6970 ca        1 1M5     -0.112000
     24 C24        -2.5770   -0.9500   -2.6330 ca        1 1M5     -0.119000
     25 C25        -1.8940   -0.9260   -1.4190 ca        1 1M5     -0.127000
     26 CL1        -0.5110    1.6400   -4.8250 cl        1 1M5     -0.071400
     27 H1          1.9090   -0.2520   -0.9270 ha        1 1M5      0.160000
     28 H2          3.1570   -0.2250    1.2480 ha        1 1M5      0.171000
     29 H3         -1.8330    0.0760    1.2070 ha        1 1M5      0.117000
     30 H4          0.1510   -1.3450    4.9310 hc        1 1M5      0.088200
     31 H5         -0.3560    0.1170    5.8880 hc        1 1M5      0.088200
     32 H6          3.4470    0.0260    5.7400 hc        1 1M5      0.058700
     33 H7          2.3300   -1.3940    5.8510 hc        1 1M5      0.058700
     34 H8          2.0370    0.0740    6.8910 hc        1 1M5      0.058700
     35 H9          0.9360    2.2100    5.7520 hc        1 1M5      0.058700
     36 H10         1.1760    2.3190    3.9490 hc        1 1M5      0.058700
     37 H11         2.6090    2.1940    5.0440 hc        1 1M5      0.058700
     38 H12        -3.1230    3.3990    3.9530 hn        1 1M5      0.483467
     39 H13        -4.3560    2.4510    3.3100 hn        1 1M5      0.483467
     40 H14        -4.5950   -1.4630    3.5690 h1        1 1M5      0.071033
     41 H15        -4.8670    0.0590    2.5920 h1        1 1M5      0.071033
     42 H16        -5.2440    0.0360    4.3890 h1        1 1M5      0.071033
     43 H17         0.5490    1.3370   -2.2090 ha        1 1M5      0.152000
     44 H18        -2.6950   -0.1790   -4.6570 ha        1 1M5      0.158000
     45 H19        -3.4510   -1.6080   -2.7580 ha        1 1M5      0.144000
     46 H20        -2.2230   -1.5700   -0.5900 ha        1 1M5      0.134000
     47 H183       -4.0950    2.4770    4.9710 hn        1 1M5      0.483467
@<TRIPOS>BOND
     1    1    2 ar  
     2    1    6 ar  
     3    1   11 1   
     4    2    3 ar  
     5    2   27 1   
     6    3    4 ar  
     7    3   28 1   
     8    4    5 ar  
     9    4    7 1   
    10    5    6 ar  
    11    5   10 1   
    12    6   29 1   
    13    7    8 1   
    14    8    9 1   
    15    8   12 1   
    16    8   13 1   
    17    9   10 1   
    18    9   30 1   
    19    9   31 1   
    20   10   14 1   
    21   10   17 1   
    22   11   21 ar  
    23   11   25 ar  
    24   12   32 1   
    25   12   33 1   
    26   12   34 1   
    27   13   35 1   
    28   13   36 1   
    29   13   37 1   
    30   14   15 1   
    31   14   19 2   
    32   15   16 1   
    33   15   20 1   
    34   16   17 2   
    35   16   18 1   
    36   18   38 1   
    37   18   39 1   
    38   18   47 1   
    39   20   40 1   
    40   20   41 1   
    41   20   42 1   
    42   21   22 ar  
    43   21   43 1   
    44   22   23 ar  
    45   22   26 1   
    46   23   24 ar  
    47   23   44 1   
    48   24   25 ar  
    49   24   45 1   
    50   25   46 1   
@<TRIPOS>SUBSTRUCTURE
     1 1M5         1 TEMP              0 ****  ****    0 ROOT
