@<TRIPOS>MOLECULE
1M5
   47    50     1     0     0
SMALL
bcc


@<TRIPOS>ATOM
      1 C1         -0.0490   -0.0910    0.0110 cp        1 1M5     -0.054000
      2 C2          1.3580   -0.1790    0.0250 ca        1 1M5     -0.055000
      3 C3          2.0560   -0.1600    1.2200 ca        1 1M5     -0.147000
      4 C4          1.3510   -0.0430    2.4380 ca        1 1M5      0.182100
      5 C5         -0.0490    0.0460    2.4400 ca        1 1M5     -0.190300
      6 C6         -0.7360    0.0190    1.2180 ca        1 1M5     -0.080000
      7 O7          2.1320   -0.0790    3.5660 os        1 1M5     -0.305900
      8 C8          1.5120    0.3450    4.8020 c3        1 1M5      0.158800
      9 C9          0.0950   -0.2110    4.9200 c3        1 1M5     -0.092400
     10 C10        -0.7960    0.1720    3.7310 c3        1 1M5      0.148500
     11 C11        -0.7760   -0.1180   -1.2570 cp        1 1M5     -0.045000
     12 C12         2.3880   -0.2740    5.8900 c3        1 1M5     -0.106600
     13 C13         1.5610    1.8640    4.8840 c3        1 1M5     -0.106600
     14 C14        -2.0400   -0.7920    3.7400 c         1 1M5      0.680500
     15 N15        -3.2020    0.0490    3.9130 n         1 1M5     -0.432300
     16 C16        -2.7050    1.3840    3.9210 c2        1 1M5      0.460800
     17 N17        -1.3950    1.5380    3.8690 n2        1 1M5     -0.515900
     18 N18        -3.6350    2.5290    4.0430 nz        1 1M5     -0.779600
     19 O19        -2.0960   -2.0100    3.6770 o         1 1M5     -0.478500
     20 C20        -4.5430   -0.3210    3.6010 c3        1 1M5      0.054300
     21 C21        -0.3420    0.6730   -2.3290 ca        1 1M5     -0.115000
     22 C22        -1.0410    0.6430   -3.5390 ca        1 1M5      0.019400
     23 C23        -2.1640   -0.1760   -3.6940 ca        1 1M5     -0.112000
     24 C24        -2.5870   -0.9650   -2.6250 ca        1 1M5     -0.119000
     25 C25        -1.9020   -0.9370   -1.4120 ca        1 1M5     -0.127000
     26 Cl1        -0.5170    1.6100   -4.8310 cl        1 1M5     -0.071400
     27 H1          1.9030   -0.2710   -0.9290 ha        1 1M5      0.160000
     28 H2          3.1540   -0.2380    1.2450 ha        1 1M5      0.171000
     29 H3         -1.8350    0.0750    1.2100 ha        1 1M5      0.117000
     30 H4          0.1500   -1.3360    4.9360 hc        1 1M5      0.088200
     31 H5         -0.3510    0.1310    5.8880 hc        1 1M5      0.088200
     32 H6          2.3300   -1.3870    5.8530 hc        1 1M5      0.058700
     33 H7          2.0430    0.0870    6.8880 hc        1 1M5      0.058700
     34 H8          3.4510    0.0300    5.7350 hc        1 1M5      0.058700
     35 H9          0.9460    2.2200    5.7420 hc        1 1M5      0.058700
     36 H10         2.6170    2.1980    5.0320 hc        1 1M5      0.058700
     37 H11         1.1840    2.3220    3.9390 hc        1 1M5      0.058700
     38 H12        -4.3490    2.4660    3.3060 hn        1 1M5      0.483467
     39 H13        -4.0850    2.4970    4.9660 hn        1 1M5      0.483467
     40 H14        -4.5980   -1.4470    3.5810 h1        1 1M5      0.071033
     41 H15        -4.8670    0.0730    2.5990 h1        1 1M5      0.071033
     42 H16        -5.2410    0.0580    4.3960 h1        1 1M5      0.071033
     43 H17         0.5460    1.3150   -2.2150 ha        1 1M5      0.152000
     44 H18        -2.7060   -0.2030   -4.6520 ha        1 1M5      0.158000
     45 H19        -3.4620   -1.6210   -2.7470 ha        1 1M5      0.144000
     46 H20        -2.2320   -1.5770   -0.5800 ha        1 1M5      0.134000
     47 H183       -3.1120    3.4130    3.9440 hn        1 1M5      0.483467
@<TRIPOS>BOND
     1    1    2 ar  
     2    1    6 ar  
     3    1   11 1   
     4    2    3 ar  
     5    2   27 1   
     6    3    4 ar  
     7    3   28 1   
     8    4    5 ar  
     9    4    7 1   
    10    5    6 ar  
    11    5   10 1   
    12    6   29 1   
    13    7    8 1   
    14    8    9 1   
    15    8   12 1   
    16    8   13 1   
    17    9   10 1   
    18    9   30 1   
    19    9   31 1   
    20   10   14 1   
    21   10   17 1   
    22   11   21 ar  
    23   11   25 ar  
    24   12   32 1   
    25   12   33 1   
    26   12   34 1   
    27   13   35 1   
    28   13   36 1   
    29   13   37 1   
    30   14   15 1   
    31   14   19 2   
    32   15   16 1   
    33   15   20 1   
    34   16   17 2   
    35   16   18 1   
    36   18   38 1   
    37   18   39 1   
    38   18   47 1   
    39   20   40 1   
    40   20   41 1   
    41   20   42 1   
    42   21   22 ar  
    43   21   43 1   
    44   22   23 ar  
    45   22   26 1   
    46   23   24 ar  
    47   23   44 1   
    48   24   25 ar  
    49   24   45 1   
    50   25   46 1   
@<TRIPOS>SUBSTRUCTURE
     1 1M5         1 TEMP              0 ****  ****    0 ROOT
