@<TRIPOS>MOLECULE
1M5
   47    50     1     0     0
SMALL
bcc


@<TRIPOS>ATOM
      1 C1         -0.0430   -0.0690    0.0090 cp        1 1M5     -0.054000
      2 C2          1.3640   -0.1400    0.0230 ca        1 1M5     -0.055000
      3 C3          2.0620   -0.1190    1.2180 ca        1 1M5     -0.147000
      4 C4          1.3550   -0.0190    2.4370 ca        1 1M5      0.182100
      5 C5         -0.0460    0.0530    2.4390 ca        1 1M5     -0.190300
      6 C6         -0.7320    0.0250    1.2160 ca        1 1M5     -0.080000
      7 O7          2.1360   -0.0530    3.5650 os        1 1M5     -0.305900
      8 C8          1.5100    0.3560    4.8040 c3        1 1M5      0.158800
      9 C9          0.1000   -0.2180    4.9170 c3        1 1M5     -0.092400
     10 C10        -0.7950    0.1610    3.7300 c3        1 1M5      0.148500
     11 C11        -0.7700   -0.0970   -1.2590 cp        1 1M5     -0.045000
     12 C12         2.3930   -0.2590    5.8880 c3        1 1M5     -0.106600
     13 C13         1.5410    1.8740    4.8950 c3        1 1M5     -0.106600
     14 C14        -2.0280   -0.8180    3.7320 c         1 1M5      0.680500
     15 N15        -3.2000    0.0080    3.9110 n         1 1M5     -0.432300
     16 C16        -2.7190    1.3490    3.9270 c2        1 1M5      0.460800
     17 N17        -1.4110    1.5200    3.8770 n2        1 1M5     -0.515900
     18 N18        -3.6620    2.4820    4.0560 n4        1 1M5     -0.779600
     19 O19        -2.0690   -2.0350    3.6620 o         1 1M5     -0.478500
     20 C20        -4.5360   -0.3760    3.5950 c3        1 1M5      0.054300
     21 C21        -0.3450    0.7070   -2.3260 ca        1 1M5     -0.115000
     22 C22        -1.0430    0.6760   -3.5360 ca        1 1M5      0.019400
     23 C23        -2.1560   -0.1560   -3.6970 ca        1 1M5     -0.112000
     24 C24        -2.5700   -0.9570   -2.6340 ca        1 1M5     -0.119000
     25 C25        -1.8860   -0.9280   -1.4200 ca        1 1M5     -0.127000
     26 CL1        -0.5300    1.6570   -4.8220 cl        1 1M5     -0.071400
     27 H1          1.9110   -0.2190   -0.9310 ha        1 1M5      0.160000
     28 H2          3.1600   -0.1850    1.2440 ha        1 1M5      0.171000
     29 H3         -1.8320    0.0680    1.2080 ha        1 1M5      0.117000
     30 H4         -0.3510    0.1120    5.8870 hc        1 1M5      0.088200
     31 H5          0.1690   -1.3420    4.9260 hc        1 1M5      0.088200
     32 H6          3.4530    0.0580    5.7350 hc        1 1M5      0.058700
     33 H7          2.0430    0.0900    6.8880 hc        1 1M5      0.058700
     34 H8          2.3490   -1.3730    5.8440 hc        1 1M5      0.058700
     35 H9          0.9210    2.2180    5.7550 hc        1 1M5      0.058700
     36 H10         1.1580    2.3340    3.9530 hc        1 1M5      0.058700
     37 H11         2.5930    2.2200    5.0460 hc        1 1M5      0.058700
     38 H12        -4.1130    2.4390    4.9790 hn        1 1M5      0.483467
     39 H13        -3.1510    3.3730    3.9630 hn        1 1M5      0.483467
     40 H14        -4.8640    0.0200    2.5960 h1        1 1M5      0.071033
     41 H15        -5.2390   -0.0110    4.3920 h1        1 1M5      0.071033
     42 H16        -4.5770   -1.5020    3.5680 h1        1 1M5      0.071033
     43 H17         0.5350    1.3580   -2.2080 ha        1 1M5      0.152000
     44 H18        -2.6970   -0.1830   -4.6560 ha        1 1M5      0.158000
     45 H19        -3.4370   -1.6230   -2.7600 ha        1 1M5      0.144000
     46 H20        -2.2080   -1.5770   -0.5920 ha        1 1M5      0.134000
     47 H183       -4.3750    2.4150    3.3190 hn        1 1M5      0.483467
@<TRIPOS>BOND
     1    1    2 ar  
     2    1    6 ar  
     3    1   11 1   
     4    2    3 ar  
     5    2   27 1   
     6    3    4 ar  
     7    3   28 1   
     8    4    5 ar  
     9    4    7 1   
    10    5    6 ar  
    11    5   10 1   
    12    6   29 1   
    13    7    8 1   
    14    8    9 1   
    15    8   12 1   
    16    8   13 1   
    17    9   10 1   
    18    9   30 1   
    19    9   31 1   
    20   10   14 1   
    21   10   17 1   
    22   11   21 ar  
    23   11   25 ar  
    24   12   32 1   
    25   12   33 1   
    26   12   34 1   
    27   13   35 1   
    28   13   36 1   
    29   13   37 1   
    30   14   15 1   
    31   14   19 2   
    32   15   16 1   
    33   15   20 1   
    34   16   17 2   
    35   16   18 1   
    36   18   38 1   
    37   18   39 1   
    38   18   47 1   
    39   20   40 1   
    40   20   41 1   
    41   20   42 1   
    42   21   22 ar  
    43   21   43 1   
    44   22   23 ar  
    45   22   26 1   
    46   23   24 ar  
    47   23   44 1   
    48   24   25 ar  
    49   24   45 1   
    50   25   46 1   
@<TRIPOS>SUBSTRUCTURE
     1 1M5         1 TEMP              0 ****  ****    0 ROOT
