@<TRIPOS>MOLECULE
1M5
   46    49     1     0     0
SMALL
bcc


@<TRIPOS>ATOM
      1 C1         -1.3290    0.6250   -0.1300 cp        1 1M5     -0.082000
      2 C2         -1.2810    2.0230   -0.2560 ca        1 1M5     -0.078000
      3 C3         -0.0650    2.6870   -0.3020 ca        1 1M5     -0.162000
      4 C4          1.1340    1.9510   -0.2200 ca        1 1M5      0.165100
      5 C5          1.1050    0.5520   -0.1020 ca        1 1M5     -0.136300
      6 C6         -0.1330   -0.0950   -0.0520 ca        1 1M5     -0.065000
      7 O7          2.2820    2.7040   -0.3110 os        1 1M5     -0.324900
      8 C8          3.5110    2.0490    0.0840 c3        1 1M5      0.161800
      9 C9          3.5680    0.6280   -0.4670 c3        1 1M5     -0.089400
     10 C10         2.3830   -0.2340   -0.0150 c3        1 1M5      0.133500
     11 C11        -2.6140   -0.0700   -0.0850 cp        1 1M5     -0.016000
     12 C12         4.6060    2.8920   -0.5650 c3        1 1M5     -0.102100
     13 C13         3.6340    2.0990    1.5990 c3        1 1M5     -0.102100
     14 C14         2.3080   -1.4690   -0.9880 c         1 1M5      0.674500
     15 N15         2.3600   -2.6200   -0.1640 n         1 1M5     -0.444300
     16 C16         2.5890   -2.1630    1.1900 c2        1 1M5      0.609800
     17 N17         2.5750   -0.8350    1.3290 n2        1 1M5     -0.657900
     18 N18         2.8640   -3.0850    2.2150 nh        1 1M5     -0.868800
     19 O19         2.2200   -1.4870   -2.2150 o         1 1M5     -0.570500
     20 C20         2.6210   -3.9450   -0.6170 c3        1 1M5      0.084300
     21 C21        -3.6720    0.4570    0.6690 ca        1 1M5     -0.119000
     22 C22        -4.8970   -0.2140    0.7060 ca        1 1M5      0.018400
     23 C23        -5.0840   -1.4050   -0.0030 ca        1 1M5     -0.127000
     24 C24        -4.0290   -1.9230   -0.7510 ca        1 1M5     -0.122000
     25 C25        -2.8020   -1.2640   -0.7950 ca        1 1M5     -0.123000
     26 CL1        -6.1770    0.4280    1.6250 cl        1 1M5     -0.098400
     27 H1         -2.2190    2.5960   -0.3250 ha        1 1M5      0.140000
     28 H2         -0.0160    3.7810   -0.4040 ha        1 1M5      0.152000
     29 H3         -0.1660   -1.1920    0.0500 ha        1 1M5      0.137000
     30 H4          3.5400    0.6760   -1.5900 hc        1 1M5      0.073700
     31 H5          4.5380    0.1600   -0.1600 hc        1 1M5      0.073700
     32 H6          4.4980    3.9590   -0.2540 hc        1 1M5      0.051367
     33 H7          5.6020    2.5110   -0.2390 hc        1 1M5      0.051367
     34 H8          4.5330    2.8380   -1.6770 hc        1 1M5      0.051367
     35 H9          2.6910    1.7430    2.0790 hc        1 1M5      0.051367
     36 H10         4.4790    1.4520    1.9340 hc        1 1M5      0.051367
     37 H11         3.8220    3.1490    1.9300 hc        1 1M5      0.051367
     38 H12         2.3760   -3.9500    2.1250 hn        1 1M5      0.412300
     39 H13         2.8070   -2.6890    3.1310 hn        1 1M5      0.412300
     40 H14         3.6610   -4.2750   -0.3490 h1        1 1M5      0.051700
     41 H15         1.8860   -4.6550   -0.1490 h1        1 1M5      0.051700
     42 H16         2.5000   -3.9750   -1.7340 h1        1 1M5      0.051700
     43 H17        -3.5320    1.3910    1.2340 ha        1 1M5      0.150000
     44 H18        -6.0520   -1.9270    0.0290 ha        1 1M5      0.146000
     45 H19        -4.1690   -2.8570   -1.3150 ha        1 1M5      0.137000
     46 H20        -1.9770   -1.6750   -1.3970 ha        1 1M5      0.142000
@<TRIPOS>BOND
     1    1    2 ar  
     2    1    6 ar  
     3    1   11 1   
     4    2    3 ar  
     5    2   27 1   
     6    3    4 ar  
     7    3   28 1   
     8    4    5 ar  
     9    4    7 1   
    10    5    6 ar  
    11    5   10 1   
    12    6   29 1   
    13    7    8 1   
    14    8    9 1   
    15    8   12 1   
    16    8   13 1   
    17    9   10 1   
    18    9   30 1   
    19    9   31 1   
    20   10   14 1   
    21   10   17 1   
    22   11   21 ar  
    23   11   25 ar  
    24   12   32 1   
    25   12   33 1   
    26   12   34 1   
    27   13   35 1   
    28   13   36 1   
    29   13   37 1   
    30   14   15 1   
    31   14   19 2   
    32   15   16 1   
    33   15   20 1   
    34   16   17 2   
    35   16   18 1   
    36   18   38 1   
    37   18   39 1   
    38   20   40 1   
    39   20   41 1   
    40   20   42 1   
    41   21   22 ar  
    42   21   43 1   
    43   22   23 ar  
    44   22   26 1   
    45   23   24 ar  
    46   23   44 1   
    47   24   25 ar  
    48   24   45 1   
    49   25   46 1   
@<TRIPOS>SUBSTRUCTURE
     1 1M5         1 TEMP              0 ****  ****    0 ROOT
