@<TRIPOS>MOLECULE
1M6
   48    51     1     0     0
SMALL
bcc


@<TRIPOS>ATOM
      1 C1         -0.0310    0.2850    0.0180 cp        1 1M6     -0.058000
      2 C2          1.3760    0.3590    0.0190 ca        1 1M6     -0.056000
      3 C3          2.0830    0.3740    1.2080 ca        1 1M6     -0.146000
      4 C4          1.3860    0.3010    2.4340 ca        1 1M6      0.183100
      5 C5         -0.0140    0.2060    2.4500 ca        1 1M6     -0.189300
      6 C6         -0.7100    0.2140    1.2320 ca        1 1M6     -0.077000
      7 O7          2.1820    0.2810    3.5520 os        1 1M6     -0.304900
      8 C8          1.5250    0.5120    4.8200 c3        1 1M6      0.158800
      9 C9          0.2140   -0.2650    4.8950 c3        1 1M6     -0.093400
     10 C10        -0.7490    0.0760    3.7480 c3        1 1M6      0.148500
     11 C11        -1.8030   -1.0910    3.6610 c         1 1M6      0.679500
     12 N12        -3.0900   -0.4930    3.9410 n         1 1M6     -0.430300
     13 C13        -2.8350    0.9000    4.0870 c2        1 1M6      0.459800
     14 N14        -1.5760    1.2920    4.0300 n2        1 1M6     -0.517900
     15 C15        -0.7640    0.2740   -1.2470 cp        1 1M6     -0.051000
     16 C16        -4.3530   -1.0600    3.5990 c3        1 1M6      0.053300
     17 N17        -3.9460    1.8390    4.3570 nz        1 1M6     -0.780600
     18 C18        -0.3430   -0.5600   -2.2910 ca        1 1M6     -0.078000
     19 C19        -1.0440   -0.5700   -3.5040 ca        1 1M6      0.000000
     20 C20        -2.1640    0.2550   -3.6800 ca        1 1M6     -0.080000
     21 C21        -2.5760    1.0850   -2.6390 ca        1 1M6     -0.133000
     22 C22        -1.8850    1.0950   -1.4290 ca        1 1M6     -0.110000
     23 O23        -1.6450   -2.2850    3.4680 o         1 1M6     -0.474500
     24 C24         2.5020   -0.0430    5.8540 c3        1 1M6     -0.107100
     25 C25         1.3390    2.0090    5.0160 c3        1 1M6     -0.107100
     26 C26        -0.6170   -1.4230   -4.5580 cg        1 1M6      0.215800
     27 N27        -0.2680   -2.1200   -5.4210 n1        1 1M6     -0.327800
     28 H1          1.9160    0.4130   -0.9420 ha        1 1M6      0.159000
     29 H2          3.1820    0.4370    1.2220 ha        1 1M6      0.172000
     30 H3         -1.8080    0.1410    1.2330 ha        1 1M6      0.117000
     31 H4          0.4440   -1.3640    4.8120 hc        1 1M6      0.088700
     32 H5         -0.2630   -0.0820    5.8910 hc        1 1M6      0.088700
     33 H6         -4.2070   -2.1690    3.4520 h1        1 1M6      0.071700
     34 H7         -4.7690   -0.6230    2.6510 h1        1 1M6      0.071700
     35 H8         -5.0830   -0.9030    4.4380 h1        1 1M6      0.071700
     36 H9         -3.5970    2.8090    4.3310 hn        1 1M6      0.483467
     37 H10        -4.6780    1.7160    3.6460 hn        1 1M6      0.483467
     38 H11         0.5360   -1.2100   -2.1570 ha        1 1M6      0.154000
     39 H12        -2.7100    0.2490   -4.6360 ha        1 1M6      0.157000
     40 H13        -3.4490    1.7410   -2.7790 ha        1 1M6      0.143000
     41 H14        -2.2080    1.7620   -0.6170 ha        1 1M6      0.123000
     42 H15         2.6180   -1.1460    5.7310 hc        1 1M6      0.058867
     43 H16         2.1210    0.1820    6.8770 hc        1 1M6      0.058867
     44 H17         3.5030    0.4340    5.7190 hc        1 1M6      0.058867
     45 H18         0.7040    2.2000    5.9130 hc        1 1M6      0.058867
     46 H19         2.3340    2.4950    5.1670 hc        1 1M6      0.058867
     47 H20         0.8620    2.4690    4.1180 hc        1 1M6      0.058867
     48 H173       -4.3330    1.6390    5.2890 hn        1 1M6      0.483467
@<TRIPOS>BOND
     1    1    2 ar  
     2    1    6 ar  
     3    1   15 1   
     4    2    3 ar  
     5    2   28 1   
     6    3    4 ar  
     7    3   29 1   
     8    4    5 ar  
     9    4    7 1   
    10    5    6 ar  
    11    5   10 1   
    12    6   30 1   
    13    7    8 1   
    14    8    9 1   
    15    8   24 1   
    16    8   25 1   
    17    9   10 1   
    18    9   31 1   
    19    9   32 1   
    20   10   11 1   
    21   10   14 1   
    22   11   12 1   
    23   11   23 2   
    24   12   13 1   
    25   12   16 1   
    26   13   14 2   
    27   13   17 1   
    28   15   18 ar  
    29   15   22 ar  
    30   16   33 1   
    31   16   34 1   
    32   16   35 1   
    33   17   36 1   
    34   17   37 1   
    35   17   48 1   
    36   18   19 ar  
    37   18   38 1   
    38   19   20 ar  
    39   19   26 1   
    40   20   21 ar  
    41   20   39 1   
    42   21   22 ar  
    43   21   40 1   
    44   22   41 1   
    45   24   42 1   
    46   24   43 1   
    47   24   44 1   
    48   25   45 1   
    49   25   46 1   
    50   25   47 1   
    51   26   27 3   
@<TRIPOS>SUBSTRUCTURE
     1 1M6         1 TEMP              0 ****  ****    0 ROOT
