@<TRIPOS>MOLECULE
1M6
   48    51     1     0     0
SMALL
bcc


@<TRIPOS>ATOM
      1 C1         -0.0220   -0.2330   -0.0110 ca        1 1M6     -0.038000
      2 C2          1.3890   -0.1950    0.0190 ca        1 1M6     -0.029000
      3 C3          2.0670   -0.0950    1.2200 ca        1 1M6     -0.154000
      4 C4          1.3370   -0.0020    2.4270 ca        1 1M6      0.139000
      5 C5         -0.0650    0.0090    2.4070 ca        1 1M6     -0.189000
      6 C6         -0.7330   -0.1170    1.1790 ca        1 1M6     -0.089000
      7 O7          2.1060    0.0220    3.5630 os        1 1M6     -0.190000
      8 C8          1.4540    0.4070    4.7950 c3        1 1M6      0.088000
      9 C9          0.0490   -0.1840    4.8880 c3        1 1M6     -0.170000
     10 C10        -0.8290    0.1770    3.6830 c3        1 1M6      0.069000
     11 C11        -2.0890   -0.7640    3.7080 c2        1 1M6      0.291000
     12 N12        -3.2350    0.1030    3.8520 n         1 1M6     -0.327000
     13 C13        -2.7170    1.4280    3.8310 c2        1 1M6      0.014000
     14 N14        -1.4050    1.5580    3.7780 n2        1 1M6     -0.101000
     15 C15        -0.7000   -0.3700   -1.2990 c2        1 1M6     -0.161000
     16 C16        -4.5910   -0.2560    3.6040 c3        1 1M6     -0.097000
     17 N17        -3.6250    2.5930    3.9170 n4        1 1M6     -0.013000
     18 C18        -0.1020    0.3010   -2.4080 c1        1 1M6     -0.030000
     19 C19        -0.7570    0.1850   -3.7280 c3        1 1M6     -0.063000
     20 C20        -2.0530   -0.5500   -3.7880 c2        1 1M6     -0.092000
     21 C21        -2.5250   -1.1960   -2.7000 c2        1 1M6     -0.189000
     22 C22        -1.8420   -1.1180   -1.4390 c2        1 1M6      0.001000
     23 O23        -2.1700   -1.9810    3.6710 o         1 1M6     -0.209000
     24 C24         2.3280   -0.2080    5.8880 c3        1 1M6     -0.224000
     25 C25         1.4690    1.9250    4.9020 c3        1 1M6     -0.224000
     26 C26        -0.8500    1.4780   -4.3750 c1        1 1M6     -0.112000
     27 N27        -0.9230    2.5190   -4.8860 n1        1 1M6     -0.009000
     28 H1          1.9420   -0.2320   -0.9370 ha        1 1M6      0.176000
     29 H2          3.1670   -0.0860    1.2600 ha        1 1M6      0.171000
     30 H3         -1.8330   -0.1300    1.1620 ha        1 1M6      0.110000
     31 H4         -0.4230    0.1490    5.8470 hc        1 1M6      0.126500
     32 H5          0.1280   -1.3070    4.9060 hc        1 1M6      0.126500
     33 H6         -4.6610   -1.3810    3.6110 h1        1 1M6      0.108667
     34 H7         -5.2530    0.1490    4.4160 h1        1 1M6      0.108667
     35 H8         -4.9490    0.1210    2.6070 h1        1 1M6      0.108667
     36 H9         -4.3380    2.5240    3.1790 hn        1 1M6      0.279000
     37 H10        -4.0800    2.5970    4.8390 hn        1 1M6      0.279000
     38 H11         0.0060   -0.4460   -4.3150 hc        1 1M6      0.206000
     39 H12        -2.5850   -0.5590   -4.7530 ha        1 1M6      0.157000
     40 H13        -3.4510   -1.7910   -2.7460 ha        1 1M6      0.151000
     41 H14        -2.2710   -1.6780   -0.5910 ha        1 1M6      0.137000
     42 H15         2.2930   -1.3220    5.8380 hc        1 1M6      0.097500
     43 H16         3.3870    0.1180    5.7500 hc        1 1M6      0.097500
     44 H17         1.9640    0.1340    6.8850 hc        1 1M6      0.097500
     45 H18         1.1340    2.3910    3.9450 hc        1 1M6      0.097500
     46 H19         0.8040    2.2580    5.7320 hc        1 1M6      0.097500
     47 H20         2.5090    2.2760    5.1090 hc        1 1M6      0.097500
     48 H173       -3.0850    3.4640    3.7950 hn        1 1M6      0.279000
@<TRIPOS>BOND
     1    1    2 1   
     2    1    6 1   
     3    1   15 1   
     4    2    3 1   
     5    2   28 1   
     6    3    4 1   
     7    3   29 1   
     8    4    5 1   
     9    4    7 1   
    10    5    6 1   
    11    5   10 1   
    12    6   30 1   
    13    7    8 1   
    14    8    9 1   
    15    8   24 1   
    16    8   25 1   
    17    9   10 1   
    18    9   31 1   
    19    9   32 1   
    20   10   11 1   
    21   10   14 1   
    22   11   12 1   
    23   11   23 1   
    24   12   13 1   
    25   12   16 1   
    26   13   14 1   
    27   13   17 1   
    28   15   18 1   
    29   15   22 1   
    30   16   33 1   
    31   16   34 1   
    32   16   35 1   
    33   17   36 1   
    34   17   37 1   
    35   17   48 1   
    36   18   19 1   
    37   19   20 1   
    38   19   26 1   
    39   19   38 1   
    40   20   21 1   
    41   20   39 1   
    42   21   22 1   
    43   21   40 1   
    44   22   41 1   
    45   24   42 1   
    46   24   43 1   
    47   24   44 1   
    48   25   45 1   
    49   25   46 1   
    50   25   47 1   
    51   26   27 1   
@<TRIPOS>SUBSTRUCTURE
     1 1M6         1 TEMP              0 ****  ****    0 ROOT
