@<TRIPOS>MOLECULE
1M6
   47    43     1     0     0
SMALL
bcc


@<TRIPOS>ATOM
      1 C1          0.8600   -0.2510   -2.1150 c1        1 1M6     -0.084000
      2 C2          2.2960   -0.2380   -2.0860 c1        1 1M6     -0.116500
      3 C3          2.9830   -0.2200   -0.8440 c1        1 1M6     -0.116500
      4 C4          2.2700   -0.2130    0.3460 c1        1 1M6      0.121000
      5 C5          0.7870   -0.2260    0.3230 c1        1 1M6     -0.129000
      6 C6          0.1180   -0.2450   -0.8890 c2        1 1M6     -0.062000
      7 O7          2.9820   -0.1340    1.7610 o         1 1M6     -0.207000
      8 C8          2.1760    0.1120    2.8730 c3        1 1M6      0.089000
      9 C9          0.8400   -0.5280    2.8860 c3        1 1M6     -0.166000
     10 C10         0.0250   -0.3230    1.7400 c2        1 1M6      0.051000
     11 C11        -1.0630   -1.4730    1.6690 c1        1 1M6      0.284000
     12 N12        -2.4080   -0.7320    1.8480 n2        1 1M6     -0.337000
     13 C13        -2.0330    0.6310    1.9890 c2        1 1M6      0.167000
     14 N14        -0.7370    0.8420    1.9290 n2        1 1M6     -0.247000
     15 C15         0.1230   -0.2530   -3.4580 c2        1 1M6     -0.027000
     16 C16        -3.6850   -1.2120    1.4630 c3        1 1M6     -0.068000
     17 N17        -2.8800    1.5390    2.7060 n3        1 1M6     -0.309000
     18 C18        -0.1070    0.9860   -4.0580 c2        1 1M6     -0.085000
     19 C19        -0.9190    1.0750   -5.1880 c1        1 1M6     -0.015000
     20 C20        -1.4990   -0.0700   -5.7160 c1        1 1M6     -0.116500
     21 C21        -1.2700   -1.3110   -5.1160 c1        1 1M6     -0.116500
     22 C22        -0.4580   -1.3990   -3.9880 c1        1 1M6     -0.101000
     23 O23        -0.8700   -2.6210    1.8720 o         1 1M6     -0.296000
     24 C24         2.9420   -0.3650    4.1190 c3        1 1M6     -0.220000
     25 C25         1.9770    1.6280    2.9860 c3        1 1M6     -0.220000
     26 C26        -1.2550    2.4540   -5.7870 c1        1 1M6     -0.095000
     27 N27        -1.5080    3.4820   -6.2350 n1        1 1M6     -0.040000
     28 H1          2.8030   -0.2430   -2.9240 ha        1 1M6      0.143750
     29 H2          3.9250   -0.2110   -0.8270 ha        1 1M6      0.143750
     30 H3         -0.8360   -0.2540   -0.9060 ha        1 1M6      0.135000
     31 H4          0.9690   -1.4930    2.9980 hc        1 1M6      0.112500
     32 H5          0.3590   -0.1970    3.6560 hc        1 1M6      0.112500
     33 H6         -4.2150   -1.4650    2.2910 h1        1 1M6      0.090667
     34 H7         -4.1640   -0.5140    0.9710 h1        1 1M6      0.090667
     35 H8         -3.5770   -2.0180    0.8780 h1        1 1M6      0.090667
     36 H9         -3.7660    1.3910    2.7430 hn        1 1M6      0.209000
     37 H10        -2.5390    2.2860    3.0510 hn        1 1M6      0.209000
     38 H11         0.3010    1.7890   -3.6880 ha        1 1M6      0.148000
     39 H12        -2.0450   -0.0100   -6.4760 ha        1 1M6      0.143750
     40 H13        -1.6790   -2.1190   -5.4880 ha        1 1M6      0.143750
     41 H14        -0.2890   -2.3100   -3.5490 ha        1 1M6      0.143000
     42 H15         3.6360    0.2790    4.3370 hc        1 1M6      0.091000
     43 H16         2.3050   -0.4470    4.8980 hc        1 1M6      0.091000
     44 H17         3.3390   -1.2150    3.9430 hc        1 1M6      0.091000
     45 H18         1.7630    1.9730    2.1560 hc        1 1M6      0.091000
     46 H19         1.2540    1.8160    3.6110 hc        1 1M6      0.091000
     47 H20         2.7690    2.0260    3.2950 hc        1 1M6      0.091000
@<TRIPOS>BOND
     1    1    6 1   
     2    1   15 1   
     3    2    3 1   
     4    2   28 1   
     5    3   29 1   
     6    4    5 1   
     7    5    6 1   
     8    6   30 1   
     9    7    8 1   
    10    8    9 1   
    11    8   24 1   
    12    8   25 1   
    13    9   10 1   
    14    9   31 1   
    15    9   32 1   
    16   10   11 1   
    17   10   14 1   
    18   11   23 1   
    19   12   13 1   
    20   12   16 1   
    21   13   14 1   
    22   13   17 1   
    23   15   18 1   
    24   15   22 1   
    25   16   33 1   
    26   16   34 1   
    27   16   35 1   
    28   17   36 1   
    29   17   37 1   
    30   18   19 1   
    31   18   38 1   
    32   19   26 1   
    33   20   21 1   
    34   20   39 1   
    35   21   40 1   
    36   22   41 1   
    37   24   42 1   
    38   24   43 1   
    39   24   44 1   
    40   25   45 1   
    41   25   46 1   
    42   25   47 1   
    43   26   27 1   
@<TRIPOS>SUBSTRUCTURE
     1 1M6         1 TEMP              0 ****  ****    0 ROOT
