@<TRIPOS>MOLECULE
1M6
   48    51     1     0     0
SMALL
bcc


@<TRIPOS>ATOM
      1 C1         -0.0180   -0.1670   -0.0160 cp        1 1M6     -0.059000
      2 C2          1.3880   -0.2560    0.0320 ca        1 1M6     -0.055000
      3 C3          2.0580   -0.2040    1.2410 ca        1 1M6     -0.147000
      4 C4          1.3260   -0.0510    2.4390 ca        1 1M6      0.182100
      5 C5         -0.0730    0.0430    2.4060 ca        1 1M6     -0.188300
      6 C6         -0.7330   -0.0190    1.1710 ca        1 1M6     -0.078000
      7 O7          2.0830   -0.0610    3.5840 os        1 1M6     -0.305900
      8 C8          1.4390    0.3900    4.7980 c3        1 1M6      0.159800
      9 C9          0.0160   -0.1520    4.8940 c3        1 1M6     -0.095400
     10 C10        -0.8460    0.2120    3.6780 c3        1 1M6      0.149500
     11 C11        -2.1050   -0.7330    3.6750 c         1 1M6      0.681500
     12 N12        -3.2600    0.1350    3.6570 n         1 1M6     -0.435300
     13 C13        -2.7410    1.4570    3.7680 c2        1 1M6      0.462800
     14 N14        -1.4280    1.5900    3.7730 n2        1 1M6     -0.515900
     15 C15        -0.7150   -0.2310   -1.2990 cp        1 1M6     -0.056000
     16 C16        -4.5920   -0.2510    3.9880 c3        1 1M6      0.055300
     17 N17        -3.6560    2.6200    3.8020 n4        1 1M6     -0.780600
     18 C18        -0.2670    0.5400   -2.3790 ca        1 1M6     -0.083000
     19 C19        -0.9370    0.4790   -3.6080 ca        1 1M6     -0.006000
     20 C20        -2.0480   -0.3610   -3.7650 ca        1 1M6     -0.081000
     21 C21        -2.4860   -1.1320   -2.6890 ca        1 1M6     -0.132000
     22 C22        -1.8290   -1.0670   -1.4620 ca        1 1M6     -0.104000
     23 O23        -2.1780   -1.9510    3.6810 o         1 1M6     -0.480500
     24 C24         2.2850   -0.2150    5.9170 c3        1 1M6     -0.106600
     25 C25         1.4990    1.9100    4.8520 c3        1 1M6     -0.106600
     26 C26        -0.4860    1.2740   -4.6960 cg        1 1M6      0.217800
     27 N27        -0.1180    1.9270   -5.5860 n1        1 1M6     -0.333800
     28 H1          1.9550   -0.3760   -0.9060 ha        1 1M6      0.159000
     29 H2          3.1550   -0.2850    1.2940 ha        1 1M6      0.172000
     30 H3         -1.8310    0.0370    1.1350 ha        1 1M6      0.125000
     31 H4          0.0610   -1.2770    4.9340 hc        1 1M6      0.087200
     32 H5         -0.4490    0.2130    5.8450 hc        1 1M6      0.087200
     33 H6         -5.3160    0.2030    3.2590 h1        1 1M6      0.071033
     34 H7         -4.6580   -1.3740    3.9100 h1        1 1M6      0.071033
     35 H8         -4.8710    0.0530    5.0340 h1        1 1M6      0.071033
     36 H9         -4.3580    2.4820    4.5400 hn        1 1M6      0.484467
     37 H10        -4.1250    2.7010    2.8890 hn        1 1M6      0.484467
     38 H11         0.6110    1.1950   -2.2620 ha        1 1M6      0.150000
     39 H12        -2.5670   -0.4150   -4.7350 ha        1 1M6      0.156000
     40 H13        -3.3510   -1.8010   -2.8130 ha        1 1M6      0.148000
     41 H14        -2.1710   -1.6890   -0.6210 ha        1 1M6      0.138000
     42 H15         2.2180   -1.3280    5.9010 hc        1 1M6      0.058867
     43 H16         1.9230    0.1690    6.8990 hc        1 1M6      0.058867
     44 H17         3.3550    0.0760    5.7780 hc        1 1M6      0.058867
     45 H18         2.5540    2.2380    5.0220 hc        1 1M6      0.058867
     46 H19         0.8650    2.2880    5.6870 hc        1 1M6      0.058867
     47 H20         1.1520    2.3530    3.8890 hc        1 1M6      0.058867
     48 H173       -3.1190    3.4800    3.9890 hn        1 1M6      0.484467
@<TRIPOS>BOND
     1    1    2 ar  
     2    1    6 ar  
     3    1   15 1   
     4    2    3 ar  
     5    2   28 1   
     6    3    4 ar  
     7    3   29 1   
     8    4    5 ar  
     9    4    7 1   
    10    5    6 ar  
    11    5   10 1   
    12    6   30 1   
    13    7    8 1   
    14    8    9 1   
    15    8   24 1   
    16    8   25 1   
    17    9   10 1   
    18    9   31 1   
    19    9   32 1   
    20   10   11 1   
    21   10   14 1   
    22   11   12 1   
    23   11   23 2   
    24   12   13 1   
    25   12   16 1   
    26   13   14 2   
    27   13   17 1   
    28   15   18 ar  
    29   15   22 ar  
    30   16   33 1   
    31   16   34 1   
    32   16   35 1   
    33   17   36 1   
    34   17   37 1   
    35   17   48 1   
    36   18   19 ar  
    37   18   38 1   
    38   19   20 ar  
    39   19   26 1   
    40   20   21 ar  
    41   20   39 1   
    42   21   22 ar  
    43   21   40 1   
    44   22   41 1   
    45   24   42 1   
    46   24   43 1   
    47   24   44 1   
    48   25   45 1   
    49   25   46 1   
    50   25   47 1   
    51   26   27 3   
@<TRIPOS>SUBSTRUCTURE
     1 1M6         1 TEMP              0 ****  ****    0 ROOT
