@<TRIPOS>MOLECULE
1M6
   47    50     1     0     0
SMALL
bcc


@<TRIPOS>ATOM
      1 C1         -1.4750    0.6590   -0.2120 cp        1 1M6     -0.086000
      2 C2         -1.4100    2.0560   -0.3490 ca        1 1M6     -0.077000
      3 C3         -0.1870    2.7070   -0.3760 ca        1 1M6     -0.162000
      4 C4          1.0030    1.9590   -0.2640 ca        1 1M6      0.167100
      5 C5          0.9560    0.5620   -0.1330 ca        1 1M6     -0.136300
      6 C6         -0.2890   -0.0730   -0.1020 ca        1 1M6     -0.064000
      7 O7          2.1590    2.6990   -0.3400 os        1 1M6     -0.323900
      8 C8          3.3760    2.0350    0.0800 c3        1 1M6      0.161800
      9 C9          3.4260    0.6080   -0.4550 c3        1 1M6     -0.089400
     10 C10         2.2240   -0.2370   -0.0120 c3        1 1M6      0.132500
     11 C11         2.1550   -1.4840   -0.9690 c         1 1M6      0.674500
     12 N12         2.1820   -2.6240   -0.1290 n         1 1M6     -0.444300
     13 C13         2.3930   -2.1500    1.2220 c2        1 1M6      0.610800
     14 N14         2.3870   -0.8200    1.3430 n2        1 1M6     -0.657900
     15 C15        -2.7680   -0.0220   -0.1880 cp        1 1M6     -0.027000
     16 C16         2.4470   -3.9560   -0.5600 c3        1 1M6      0.084300
     17 N17         2.6450   -3.0600    2.2640 nh        1 1M6     -0.868800
     18 C18        -3.8350    0.5160    0.5430 ca        1 1M6     -0.086000
     19 C19        -5.0720   -0.1400    0.5630 ca        1 1M6     -0.019000
     20 C20        -5.2510   -1.3340   -0.1490 ca        1 1M6     -0.094000
     21 C21        -4.1880   -1.8650   -0.8760 ca        1 1M6     -0.135000
     22 C22        -2.9540   -1.2180   -0.8970 ca        1 1M6     -0.102000
     23 O23         2.0840   -1.5180   -2.1970 o         1 1M6     -0.570500
     24 C24         4.4890    2.8600   -0.5630 c3        1 1M6     -0.102100
     25 C25         3.4770    2.1020    1.5960 c3        1 1M6     -0.102100
     26 C26        -6.1510    0.4080    1.3100 cg        1 1M6      0.234800
     27 N27        -7.0350    0.8560    1.9200 n1        1 1M6     -0.365800
     28 H1         -2.3410    2.6380   -0.4420 ha        1 1M6      0.139000
     29 H2         -0.1240    3.7990   -0.4880 ha        1 1M6      0.154000
     30 H3         -0.3350   -1.1680    0.0100 ha        1 1M6      0.136000
     31 H4          3.4160    0.6440   -1.5790 hc        1 1M6      0.074200
     32 H5          4.3860    0.1330   -0.1280 hc        1 1M6      0.074200
     33 H6          3.4820   -4.2850   -0.2700 h1        1 1M6      0.052033
     34 H7          1.7030   -4.6570   -0.0950 h1        1 1M6      0.052033
     35 H8          2.3460   -4.0000   -1.6780 h1        1 1M6      0.052033
     36 H9          2.1550   -3.9240    2.1770 hn        1 1M6      0.413300
     37 H10         2.5770   -2.6510    3.1740 hn        1 1M6      0.413300
     38 H11        -3.6980    1.4520    1.1070 ha        1 1M6      0.148000
     39 H12        -6.2250   -1.8460   -0.1330 ha        1 1M6      0.145000
     40 H13        -4.3250   -2.8000   -1.4400 ha        1 1M6      0.140000
     41 H14        -2.1210   -1.6390   -1.4810 ha        1 1M6      0.144000
     42 H15         4.3860    3.9310   -0.2660 hc        1 1M6      0.051700
     43 H16         5.4760    2.4730   -0.2170 hc        1 1M6      0.051700
     44 H17         4.4310    2.7930   -1.6750 hc        1 1M6      0.051700
     45 H18         2.5220    1.7630    2.0650 hc        1 1M6      0.051700
     46 H19         4.3080    1.4480    1.9500 hc        1 1M6      0.051700
     47 H20         3.6740    3.1530    1.9180 hc        1 1M6      0.051700
@<TRIPOS>BOND
     1    1    2 ar  
     2    1    6 ar  
     3    1   15 1   
     4    2    3 ar  
     5    2   28 1   
     6    3    4 ar  
     7    3   29 1   
     8    4    5 ar  
     9    4    7 1   
    10    5    6 ar  
    11    5   10 1   
    12    6   30 1   
    13    7    8 1   
    14    8    9 1   
    15    8   24 1   
    16    8   25 1   
    17    9   10 1   
    18    9   31 1   
    19    9   32 1   
    20   10   11 1   
    21   10   14 1   
    22   11   12 1   
    23   11   23 2   
    24   12   13 1   
    25   12   16 1   
    26   13   14 2   
    27   13   17 1   
    28   15   18 ar  
    29   15   22 ar  
    30   16   33 1   
    31   16   34 1   
    32   16   35 1   
    33   17   36 1   
    34   17   37 1   
    35   18   19 ar  
    36   18   38 1   
    37   19   20 ar  
    38   19   26 1   
    39   20   21 ar  
    40   20   39 1   
    41   21   22 ar  
    42   21   40 1   
    43   22   41 1   
    44   24   42 1   
    45   24   43 1   
    46   24   44 1   
    47   25   45 1   
    48   25   46 1   
    49   25   47 1   
    50   26   27 3   
@<TRIPOS>SUBSTRUCTURE
     1 1M6         1 TEMP              0 ****  ****    0 ROOT
