@<TRIPOS>MOLECULE
1M7
   47    50     1     0     0
SMALL
bcc


@<TRIPOS>ATOM
      1 C1         -0.0310   -0.0290   -0.0210 cp        1 1M7     -0.019000
      2 C2          1.3730   -0.0880   -0.0110 ca        1 1M7     -0.082000
      3 C3          2.0650   -0.0770    1.1920 ca        1 1M7     -0.124000
      4 C4          1.3860    0.0010    2.4200 ca        1 1M7     -0.016300
      5 C5         -0.0130    0.0660    2.4130 ca        1 1M7     -0.103300
      6 C6         -0.7100    0.0490    1.1980 ca        1 1M7     -0.111000
      7 C7          2.1900   -0.0340    3.6690 c3        1 1M7     -0.047100
      8 C8          1.4470    0.4660    4.9050 c3        1 1M7     -0.044000
      9 C9          0.0520   -0.1480    4.9360 c3        1 1M7     -0.057400
     10 C10        -0.7930    0.1720    3.6940 c3        1 1M7      0.144500
     11 C11        -0.7670   -0.0450   -1.2730 cp        1 1M7     -0.289600
     12 C12        -1.9900   -0.8540    3.6810 c         1 1M7      0.676500
     13 N13        -3.1940   -0.0720    3.8300 n         1 1M7     -0.434300
     14 C14        -2.7660    1.2860    3.8320 c2        1 1M7      0.458800
     15 N15        -1.4650    1.5080    3.7910 n2        1 1M7     -0.511900
     16 O16        -1.9840   -2.0730    3.6210 o         1 1M7     -0.482500
     17 C17        -4.5160   -0.5150    3.5330 c3        1 1M7      0.055300
     18 N18        -3.7540    2.3830    3.9360 n4        1 1M7     -0.779600
     19 C19        -1.9810   -0.7580   -1.4170 ca        1 1M7      0.438200
     20 N20        -2.6840   -0.7680   -2.5650 nb        1 1M7     -0.681000
     21 C21        -2.1520   -0.0600   -3.5990 ca        1 1M7      0.641900
     22 N22        -0.9920    0.6520   -3.5810 nb        1 1M7     -0.681000
     23 C23        -0.3110    0.6520   -2.4190 ca        1 1M7      0.438200
     24 C24         2.1920   -0.0060    6.1510 c3        1 1M7     -0.092600
     25 C25         1.4000    1.9860    4.9130 c3        1 1M7     -0.092600
     26 H1          1.9240   -0.1560   -0.9640 ha        1 1M7      0.155000
     27 H2          3.1660   -0.1320    1.1910 ha        1 1M7      0.155000
     28 H3         -1.8100    0.0910    1.1960 ha        1 1M7      0.114000
     29 H4          2.5150   -1.0990    3.8410 hc        1 1M7      0.075700
     30 H5          3.1230    0.5790    3.5350 hc        1 1M7      0.075700
     31 H6          0.1540   -1.2690    4.9770 hc        1 1M7      0.075200
     32 H7         -0.4810    0.1820    5.8650 hc        1 1M7      0.075200
     33 H8         -4.5100   -1.6420    3.5190 h1        1 1M7      0.071033
     34 H9         -5.2260   -0.1700    4.3330 h1        1 1M7      0.071033
     35 H10        -4.8690   -0.1450    2.5330 h1        1 1M7      0.071033
     36 H11        -4.2060    2.3390    4.8590 hn        1 1M7      0.483800
     37 H12        -4.4620    2.2740    3.1990 hn        1 1M7      0.483800
     38 H13        -2.3940   -1.3540   -0.5840 h4        1 1M7      0.031100
     39 H14        -2.7190   -0.0670   -4.5540 h5        1 1M7      0.070100
     40 H15         0.6300    1.2320   -2.4000 h4        1 1M7      0.031100
     41 H16         3.2510    0.3480    6.1180 hc        1 1M7      0.046200
     42 H17         1.7080    0.4060    7.0690 hc        1 1M7      0.046200
     43 H18         2.1920   -1.1200    6.2150 hc        1 1M7      0.046200
     44 H19         1.0780    2.3790    3.9200 hc        1 1M7      0.046200
     45 H20         2.4150    2.3970    5.1370 hc        1 1M7      0.046200
     46 H21         0.6930    2.3500    5.6970 hc        1 1M7      0.046200
     47 H183       -3.2780    3.2910    3.8290 hn        1 1M7      0.483800
@<TRIPOS>BOND
     1    1    2 ar  
     2    1    6 ar  
     3    1   11 1   
     4    2    3 ar  
     5    2   26 1   
     6    3    4 ar  
     7    3   27 1   
     8    4    5 ar  
     9    4    7 1   
    10    5    6 ar  
    11    5   10 1   
    12    6   28 1   
    13    7    8 1   
    14    7   29 1   
    15    7   30 1   
    16    8    9 1   
    17    8   24 1   
    18    8   25 1   
    19    9   10 1   
    20    9   31 1   
    21    9   32 1   
    22   10   12 1   
    23   10   15 1   
    24   11   19 ar  
    25   11   23 ar  
    26   12   13 1   
    27   12   16 2   
    28   13   14 1   
    29   13   17 1   
    30   14   15 2   
    31   14   18 1   
    32   17   33 1   
    33   17   34 1   
    34   17   35 1   
    35   18   36 1   
    36   18   37 1   
    37   18   47 1   
    38   19   20 ar  
    39   19   38 1   
    40   20   21 ar  
    41   21   22 ar  
    42   21   39 1   
    43   22   23 ar  
    44   23   40 1   
    45   24   41 1   
    46   24   42 1   
    47   24   43 1   
    48   25   44 1   
    49   25   45 1   
    50   25   46 1   
@<TRIPOS>SUBSTRUCTURE
     1 1M7         1 TEMP              0 ****  ****    0 ROOT
