@<TRIPOS>MOLECULE
1M7
   47    50     1     0     0
SMALL
bcc


@<TRIPOS>ATOM
      1 C1         -0.0320   -0.0500   -0.0190 cp        1 1M7     -0.019000
      2 C2          1.3720   -0.1150   -0.0090 ca        1 1M7     -0.082000
      3 C3          2.0640   -0.0980    1.1940 ca        1 1M7     -0.124000
      4 C4          1.3850   -0.0100    2.4210 ca        1 1M7     -0.016300
      5 C5         -0.0130    0.0590    2.4140 ca        1 1M7     -0.103300
      6 C6         -0.7110    0.0380    1.1990 ca        1 1M7     -0.111000
      7 C7          2.1890   -0.0400    3.6710 c3        1 1M7     -0.047100
      8 C8          1.4480    0.4700    4.9040 c3        1 1M7     -0.044000
      9 C9          0.0510   -0.1390    4.9390 c3        1 1M7     -0.057400
     10 C10        -0.7930    0.1760    3.6950 c3        1 1M7      0.144500
     11 C11        -0.7680   -0.0720   -1.2710 cp        1 1M7     -0.289600
     12 C12        -1.9930   -0.8460    3.6880 c         1 1M7      0.676500
     13 N13        -3.1950   -0.0580    3.8320 n         1 1M7     -0.434300
     14 C14        -2.7620    1.2980    3.8260 c2        1 1M7      0.458800
     15 N15        -1.4610    1.5150    3.7840 n2        1 1M7     -0.511900
     16 O16        -1.9920   -2.0650    3.6350 o         1 1M7     -0.482500
     17 C17        -4.5180   -0.4980    3.5380 c3        1 1M7      0.055300
     18 N18        -3.7470    2.3990    3.9240 n4        1 1M7     -0.779600
     19 C19        -1.9840   -0.7810   -1.4100 ca        1 1M7      0.438200
     20 N20        -2.6880   -0.7970   -2.5580 nb        1 1M7     -0.681000
     21 C21        -2.1530   -0.0970   -3.5960 ca        1 1M7      0.641900
     22 N22        -0.9910    0.6120   -3.5830 nb        1 1M7     -0.681000
     23 C23        -0.3100    0.6170   -2.4220 ca        1 1M7      0.438200
     24 C24         2.1920    0.0030    6.1530 c3        1 1M7     -0.092600
     25 C25         1.4060    1.9900    4.9030 c3        1 1M7     -0.092600
     26 H1          1.9230   -0.1900   -0.9610 ha        1 1M7      0.155000
     27 H2          3.1650   -0.1570    1.1930 ha        1 1M7      0.155000
     28 H3         -1.8100    0.0830    1.1970 ha        1 1M7      0.114000
     29 H4          3.1240    0.5690    3.5330 hc        1 1M7      0.075700
     30 H5          2.5110   -1.1050    3.8490 hc        1 1M7      0.075700
     31 H6         -0.4810    0.1990    5.8660 hc        1 1M7      0.075200
     32 H7          0.1490   -1.2600    4.9870 hc        1 1M7      0.075200
     33 H8         -4.8700   -0.1330    2.5350 h1        1 1M7      0.071033
     34 H9         -4.5160   -1.6260    3.5310 h1        1 1M7      0.071033
     35 H10        -5.2270   -0.1460    4.3350 h1        1 1M7      0.071033
     36 H11        -4.4540    2.2890    3.1870 hn        1 1M7      0.483800
     37 H12        -4.1980    2.3620    4.8470 hn        1 1M7      0.483800
     38 H13        -2.3990   -1.3720   -0.5730 h4        1 1M7      0.031100
     39 H14        -2.7200   -0.1080   -4.5520 h5        1 1M7      0.070100
     40 H15         0.6330    1.1930   -2.4060 h4        1 1M7      0.031100
     41 H16         1.7090    0.4220    7.0680 hc        1 1M7      0.046200
     42 H17         3.2520    0.3530    6.1170 hc        1 1M7      0.046200
     43 H18         2.1880   -1.1110    6.2230 hc        1 1M7      0.046200
     44 H19         0.7000    2.3610    5.6840 hc        1 1M7      0.046200
     45 H20         2.4230    2.3980    5.1240 hc        1 1M7      0.046200
     46 H21         1.0860    2.3780    3.9070 hc        1 1M7      0.046200
     47 H183       -3.2670    3.3050    3.8110 hn        1 1M7      0.483800
@<TRIPOS>BOND
     1    1    2 ar  
     2    1    6 ar  
     3    1   11 1   
     4    2    3 ar  
     5    2   26 1   
     6    3    4 ar  
     7    3   27 1   
     8    4    5 ar  
     9    4    7 1   
    10    5    6 ar  
    11    5   10 1   
    12    6   28 1   
    13    7    8 1   
    14    7   29 1   
    15    7   30 1   
    16    8    9 1   
    17    8   24 1   
    18    8   25 1   
    19    9   10 1   
    20    9   31 1   
    21    9   32 1   
    22   10   12 1   
    23   10   15 1   
    24   11   19 ar  
    25   11   23 ar  
    26   12   13 1   
    27   12   16 2   
    28   13   14 1   
    29   13   17 1   
    30   14   15 2   
    31   14   18 1   
    32   17   33 1   
    33   17   34 1   
    34   17   35 1   
    35   18   36 1   
    36   18   37 1   
    37   18   47 1   
    38   19   20 ar  
    39   19   38 1   
    40   20   21 ar  
    41   21   22 ar  
    42   21   39 1   
    43   22   23 ar  
    44   23   40 1   
    45   24   41 1   
    46   24   42 1   
    47   24   43 1   
    48   25   44 1   
    49   25   45 1   
    50   25   46 1   
@<TRIPOS>SUBSTRUCTURE
     1 1M7         1 TEMP              0 ****  ****    0 ROOT
