@<TRIPOS>MOLECULE
1M7
   47    50     1     0     0
SMALL
bcc


@<TRIPOS>ATOM
      1 C1         -0.0290   -0.0300   -0.0200 cp        1 1M7     -0.019000
      2 C2          1.3750   -0.0900   -0.0100 ca        1 1M7     -0.082000
      3 C3          2.0660   -0.0780    1.1950 ca        1 1M7     -0.124000
      4 C4          1.3860    0.0000    2.4210 ca        1 1M7     -0.016300
      5 C5         -0.0130    0.0660    2.4130 ca        1 1M7     -0.103300
      6 C6         -0.7090    0.0490    1.1980 ca        1 1M7     -0.111000
      7 C7          2.1890   -0.0340    3.6710 c3        1 1M7     -0.047100
      8 C8          1.4450    0.4670    4.9070 c3        1 1M7     -0.044000
      9 C9          0.0500   -0.1470    4.9370 c3        1 1M7     -0.057400
     10 C10        -0.7940    0.1730    3.6940 c3        1 1M7      0.144500
     11 C11        -0.7630   -0.0460   -1.2730 cp        1 1M7     -0.289600
     12 C12        -1.9910   -0.8530    3.6800 c         1 1M7      0.676500
     13 N13        -3.1950   -0.0700    3.8280 n         1 1M7     -0.434300
     14 C14        -2.7670    1.2870    3.8300 c2        1 1M7      0.458800
     15 N15        -1.4660    1.5090    3.7900 n2        1 1M7     -0.511900
     16 O16        -1.9860   -2.0720    3.6210 o         1 1M7     -0.482500
     17 C17        -4.5170   -0.5130    3.5300 c3        1 1M7      0.055300
     18 N18        -3.7550    2.3850    3.9320 nz        1 1M7     -0.779600
     19 C19        -1.9780   -0.7580   -1.4170 ca        1 1M7      0.438200
     20 N20        -2.6800   -0.7690   -2.5660 nb        1 1M7     -0.681000
     21 C21        -2.1470   -0.0610   -3.6000 ca        1 1M7      0.641900
     22 N22        -0.9860    0.6500   -3.5810 nb        1 1M7     -0.681000
     23 C23        -0.3070    0.6500   -2.4190 ca        1 1M7      0.438200
     24 C24         2.1890   -0.0050    6.1540 c3        1 1M7     -0.092600
     25 C25         1.3980    1.9860    4.9150 c3        1 1M7     -0.092600
     26 H1          1.9270   -0.1590   -0.9610 ha        1 1M7      0.155000
     27 H2          3.1670   -0.1340    1.1940 ha        1 1M7      0.155000
     28 H3         -1.8090    0.0910    1.1950 ha        1 1M7      0.114000
     29 H4          3.1220    0.5780    3.5380 hc        1 1M7      0.075700
     30 H5          2.5130   -1.0990    3.8440 hc        1 1M7      0.075700
     31 H6         -0.4840    0.1840    5.8660 hc        1 1M7      0.075200
     32 H7          0.1510   -1.2680    4.9780 hc        1 1M7      0.075200
     33 H8         -4.8690   -0.1430    2.5280 h1        1 1M7      0.071033
     34 H9         -5.2280   -0.1670    4.3280 h1        1 1M7      0.071033
     35 H10        -4.5110   -1.6400    3.5160 h1        1 1M7      0.071033
     36 H11        -4.4620    2.2760    3.1950 hn        1 1M7      0.483800
     37 H12        -3.2780    3.2930    3.8250 hn        1 1M7      0.483800
     38 H13        -2.3920   -1.3550   -0.5840 h4        1 1M7      0.031100
     39 H14        -2.7130   -0.0680   -4.5560 h5        1 1M7      0.070100
     40 H15         0.6340    1.2300   -2.3990 h4        1 1M7      0.031100
     41 H16         1.7040    0.4070    7.0710 hc        1 1M7      0.046200
     42 H17         3.2480    0.3480    6.1210 hc        1 1M7      0.046200
     43 H18         2.1890   -1.1200    6.2180 hc        1 1M7      0.046200
     44 H19         2.4130    2.3960    5.1390 hc        1 1M7      0.046200
     45 H20         0.6910    2.3510    5.6970 hc        1 1M7      0.046200
     46 H21         1.0770    2.3790    3.9200 hc        1 1M7      0.046200
     47 H183       -4.2070    2.3410    4.8550 hn        1 1M7      0.483800
@<TRIPOS>BOND
     1    1    2 ar  
     2    1    6 ar  
     3    1   11 1   
     4    2    3 ar  
     5    2   26 1   
     6    3    4 ar  
     7    3   27 1   
     8    4    5 ar  
     9    4    7 1   
    10    5    6 ar  
    11    5   10 1   
    12    6   28 1   
    13    7    8 1   
    14    7   29 1   
    15    7   30 1   
    16    8    9 1   
    17    8   24 1   
    18    8   25 1   
    19    9   10 1   
    20    9   31 1   
    21    9   32 1   
    22   10   12 1   
    23   10   15 1   
    24   11   19 ar  
    25   11   23 ar  
    26   12   13 1   
    27   12   16 2   
    28   13   14 1   
    29   13   17 1   
    30   14   15 2   
    31   14   18 1   
    32   17   33 1   
    33   17   34 1   
    34   17   35 1   
    35   18   36 1   
    36   18   37 1   
    37   18   47 1   
    38   19   20 ar  
    39   19   38 1   
    40   20   21 ar  
    41   21   22 ar  
    42   21   39 1   
    43   22   23 ar  
    44   23   40 1   
    45   24   41 1   
    46   24   42 1   
    47   24   43 1   
    48   25   44 1   
    49   25   45 1   
    50   25   46 1   
@<TRIPOS>SUBSTRUCTURE
     1 1M7         1 TEMP              0 ****  ****    0 ROOT
