@<TRIPOS>MOLECULE
1M7
   46    49     1     0     0
SMALL
bcc


@<TRIPOS>ATOM
      1 C1         -1.8650    1.0090   -0.0180 cp        1 1M7     -0.044000
      2 C2         -1.6470    2.3910   -0.1170 ca        1 1M7     -0.105000
      3 C3         -0.3530    2.8860   -0.2060 ca        1 1M7     -0.135000
      4 C4          0.7550    2.0260   -0.1960 ca        1 1M7     -0.033300
      5 C5          0.5440    0.6440   -0.0970 ca        1 1M7     -0.055300
      6 C6         -0.7620    0.1480   -0.0060 ca        1 1M7     -0.097000
      7 C7          2.1090    2.6270   -0.3240 c3        1 1M7     -0.036100
      8 C8          3.2370    1.7080    0.1390 c3        1 1M7     -0.042000
      9 C9          3.0260    0.3220   -0.4590 c3        1 1M7     -0.055400
     10 C10         1.6950   -0.3300   -0.0600 c3        1 1M7      0.128500
     11 C11        -3.2140    0.4780    0.0720 cp        1 1M7     -0.257600
     12 C12         1.4290   -1.4800   -1.1050 c         1 1M7      0.669500
     13 N13         1.2970   -2.6720   -0.3530 n         1 1M7     -0.444300
     14 C14         1.5800   -2.3370    1.0260 c2        1 1M7      0.605800
     15 N15         1.7670   -1.0340    1.2470 n2        1 1M7     -0.653900
     16 O16         1.3410   -1.4080   -2.3310 o         1 1M7     -0.573500
     17 C17         1.3590   -3.9920   -0.8870 c3        1 1M7      0.084300
     18 N18         1.7010   -3.3520    1.9920 nh        1 1M7     -0.868800
     19 C19        -3.5900   -0.7280   -0.5690 ca        1 1M7      0.430700
     20 N20        -4.8360   -1.2330   -0.4890 nb        1 1M7     -0.690500
     21 C21        -5.7270   -0.5130    0.2460 ca        1 1M7      0.623900
     22 N22        -5.4840    0.6540    0.9020 nb        1 1M7     -0.690500
     23 C23        -4.2300    1.1360    0.8080 ca        1 1M7      0.430700
     24 C24         4.5620    2.2560   -0.3840 c3        1 1M7     -0.087600
     25 C25         3.2940    1.6650    1.6580 c3        1 1M7     -0.087600
     26 H1         -2.5030    3.0820   -0.1340 ha        1 1M7      0.136000
     27 H2         -0.1890    3.9720   -0.2850 ha        1 1M7      0.136000
     28 H3         -0.9270   -0.9380    0.0810 ha        1 1M7      0.135000
     29 H4          2.2710    2.8900   -1.4060 hc        1 1M7      0.057200
     30 H5          2.1550    3.5840    0.2630 hc        1 1M7      0.057200
     31 H6          3.0330    0.4120   -1.5790 hc        1 1M7      0.061200
     32 H7          3.8810   -0.3410   -0.1610 hc        1 1M7      0.061200
     33 H8          2.3360   -4.4900   -0.6400 h1        1 1M7      0.052033
     34 H9          0.5220   -4.6100   -0.4630 h1        1 1M7      0.052033
     35 H10         1.2450   -3.9350   -2.0030 h1        1 1M7      0.052033
     36 H11         1.0840   -4.1230    1.8510 hn        1 1M7      0.412300
     37 H12         1.7010   -3.0080    2.9300 hn        1 1M7      0.412300
     38 H13        -2.8630   -1.3000   -1.1740 h4        1 1M7      0.033100
     39 H14        -6.7570   -0.9200    0.3180 h5        1 1M7      0.055100
     40 H15        -4.0230    2.0800    1.3440 h4        1 1M7      0.033100
     41 H16         4.7060    3.3070   -0.0360 hc        1 1M7      0.039367
     42 H17         5.4090    1.6350   -0.0060 hc        1 1M7      0.039367
     43 H18         4.5800    2.2450   -1.5000 hc        1 1M7      0.039367
     44 H19         2.2790    1.4730    2.0830 hc        1 1M7      0.039367
     45 H20         3.9830    0.8560    1.9970 hc        1 1M7      0.039367
     46 H21         3.6640    2.6420    2.0550 hc        1 1M7      0.039367
@<TRIPOS>BOND
     1    1    2 ar  
     2    1    6 ar  
     3    1   11 1   
     4    2    3 ar  
     5    2   26 1   
     6    3    4 ar  
     7    3   27 1   
     8    4    5 ar  
     9    4    7 1   
    10    5    6 ar  
    11    5   10 1   
    12    6   28 1   
    13    7    8 1   
    14    7   29 1   
    15    7   30 1   
    16    8    9 1   
    17    8   24 1   
    18    8   25 1   
    19    9   10 1   
    20    9   31 1   
    21    9   32 1   
    22   10   12 1   
    23   10   15 1   
    24   11   19 ar  
    25   11   23 ar  
    26   12   13 1   
    27   12   16 2   
    28   13   14 1   
    29   13   17 1   
    30   14   15 2   
    31   14   18 1   
    32   17   33 1   
    33   17   34 1   
    34   17   35 1   
    35   18   36 1   
    36   18   37 1   
    37   19   20 ar  
    38   19   38 1   
    39   20   21 ar  
    40   21   22 ar  
    41   21   39 1   
    42   22   23 ar  
    43   23   40 1   
    44   24   41 1   
    45   24   42 1   
    46   24   43 1   
    47   25   44 1   
    48   25   45 1   
    49   25   46 1   
@<TRIPOS>SUBSTRUCTURE
     1 1M7         1 TEMP              0 ****  ****    0 ROOT
