@<TRIPOS>MOLECULE
1M7
   46    41     1     0     0
SMALL
bcc


@<TRIPOS>ATOM
      1 C1          0.5330   -0.0590   -2.5080 c1        1 1M7     -0.044000
      2 C2          1.9590   -0.0830   -2.5150 c1        1 1M7     -0.120000
      3 C3          2.6870   -0.0840   -1.2720 c1        1 1M7     -0.120000
      4 C4          2.0110   -0.0600   -0.0850 c1        1 1M7     -0.026000
      5 C5          0.5540   -0.0340   -0.0820 c1        1 1M7     -0.047000
      6 C6         -0.1560   -0.0340   -1.3090 c2        1 1M7     -0.097000
      7 C7          2.7730   -0.1010    1.3630 c2        1 1M7     -0.122000
      8 C8          1.9460    0.0560    2.5320 c3        1 1M7     -0.043000
      9 C9          0.6250   -0.5650    2.4950 c3        1 1M7     -0.134000
     10 C10        -0.2080   -0.2430    1.3680 c2        1 1M7      0.046000
     11 C11        -0.2320   -0.0470   -3.8180 c1        1 1M7     -0.125000
     12 C12        -1.3490   -1.3800    1.2160 c1        1 1M7      0.279000
     13 N13        -2.6640   -0.6290    1.4910 n2        1 1M7     -0.333000
     14 C14        -2.2460    0.7220    1.7430 c2        1 1M7      0.160000
     15 N15        -0.9370    0.9140    1.6650 n2        1 1M7     -0.243000
     16 O16        -1.1810   -2.5800    1.3130 o         1 1M7     -0.296000
     17 C17        -4.0050   -1.0450    1.0370 c3        1 1M7     -0.070000
     18 N18        -3.1380    1.7880    1.5040 n3        1 1M7     -0.308000
     19 C19        -0.5510   -1.2080   -4.4610 c1        1 1M7     -0.036000
     20 N20        -1.2190   -1.1690   -5.6420 n1        1 1M7     -0.164500
     21 C21        -1.5730    0.0340   -6.1890 c1        1 1M7     -0.036000
     22 N22        -1.2550    1.1990   -5.5470 n1        1 1M7     -0.164500
     23 C23        -0.5890    1.1640   -4.3700 c1        1 1M7     -0.035000
     24 C24         2.7080   -0.5100    3.7300 c3        1 1M7     -0.205500
     25 C25         1.7500    1.6010    2.7590 c3        1 1M7     -0.205500
     26 H1          2.4550   -0.1000   -3.3870 ha        1 1M7      0.135500
     27 H2          3.6720   -0.1000   -1.2790 ha        1 1M7      0.135500
     28 H3         -1.1460   -0.0140   -1.3090 ha        1 1M7      0.135000
     29 H4          3.4450    0.6130    1.3730 ha        1 1M7      0.096500
     30 H5          3.2240   -0.9350    1.4320 ha        1 1M7      0.096500
     31 H6          0.7560   -1.5750    2.5060 hc        1 1M7      0.101000
     32 H7          0.1290   -0.3040    3.3360 hc        1 1M7      0.101000
     33 H8         -4.2480   -0.5440    0.2480 h1        1 1M7      0.091333
     34 H9         -3.9970   -1.9670    0.8340 h1        1 1M7      0.091333
     35 H10        -4.6620   -0.8720    1.7490 h1        1 1M7      0.091333
     36 H11        -3.9620    1.6360    1.4330 hn        1 1M7      0.207500
     37 H12        -2.8240    2.6240    1.3850 hn        1 1M7      0.207500
     38 H13        -0.2970   -2.0820   -4.0650 ha        1 1M7      0.181000
     39 H14        -2.0940    0.0630   -7.1090 ha        1 1M7      0.181000
     40 H15        -0.3610    2.0000   -3.9090 ha        1 1M7      0.167000
     41 H16         2.8500   -1.4080    3.6060 hc        1 1M7      0.078667
     42 H17         2.1590   -0.3660    4.5840 hc        1 1M7      0.078667
     43 H18         3.5270   -0.0740    3.8080 hc        1 1M7      0.078667
     44 H19         1.5200    2.0390    1.8790 hc        1 1M7      0.078667
     45 H20         2.5500    1.9760    3.0990 hc        1 1M7      0.078667
     46 H21         1.0620    1.7430    3.3650 hc        1 1M7      0.078667
@<TRIPOS>BOND
     1    1    6 1   
     2    1   11 1   
     3    2    3 1   
     4    2   26 1   
     5    3   27 1   
     6    4    5 1   
     7    5    6 1   
     8    6   28 1   
     9    7    8 1   
    10    7   29 1   
    11    7   30 1   
    12    8    9 1   
    13    8   24 1   
    14    8   25 1   
    15    9   10 1   
    16    9   31 1   
    17    9   32 1   
    18   10   12 1   
    19   10   15 1   
    20   11   23 1   
    21   12   16 1   
    22   13   14 1   
    23   13   17 1   
    24   14   15 1   
    25   14   18 1   
    26   17   33 1   
    27   17   34 1   
    28   17   35 1   
    29   18   36 1   
    30   18   37 1   
    31   19   20 1   
    32   19   38 1   
    33   21   22 1   
    34   21   39 1   
    35   23   40 1   
    36   24   41 1   
    37   24   42 1   
    38   24   43 1   
    39   25   44 1   
    40   25   45 1   
    41   25   46 1   
@<TRIPOS>SUBSTRUCTURE
     1 1M7         1 TEMP              0 ****  ****    0 ROOT
