@<TRIPOS>MOLECULE
1M8
   48    51     1     0     0
SMALL
bcc


@<TRIPOS>ATOM
      1 C1         -0.0430   -0.0050   -0.5920 ca        1 1M8     -0.083000
      2 C2          1.3460    0.1530   -0.6160 ca        1 1M8     -0.184600
      3 C3          2.0300    0.7000    0.4770 ca        1 1M8     -0.133000
      4 C4          1.3040    1.0850    1.5970 ca        1 1M8     -0.098000
      5 C5         -0.0820    0.9130    1.6690 ca        1 1M8     -0.062300
      6 C6         -0.7800    0.3480    0.5620 ca        1 1M8      0.095600
      7 C7         -0.7990    1.3300    2.8970 c3        1 1M8     -0.077800
      8 N8         -2.1640    0.1810    0.6180 ns        1 1M8     -0.481100
      9 C9          2.0390   -0.2410   -1.8420 c         1 1M8      0.590700
     10 N10         3.3290   -1.0400   -1.6160 ny        1 1M8     -0.650800
     11 O11         1.7310   -0.0750   -3.0100 o         1 1M8     -0.406100
     12 C12         4.4980   -0.3780   -2.2120 cx        1 1M8     -0.001500
     13 C13         5.4560    0.4370   -1.3680 cx        1 1M8     -0.103400
     14 C14         5.8990   -0.8790   -1.9270 cx        1 1M8     -0.103400
     15 C15        -2.9070   -0.7380   -0.1480 c         1 1M8      0.735700
     16 C16        -4.3530   -0.7360    0.0690 cc        1 1M8     -0.261700
     17 C17        -5.1680   -1.7480   -0.4300 cd        1 1M8     -0.059000
     18 C18        -6.5300   -1.5310   -0.1030 cd        1 1M8     -0.168000
     19 C19        -6.7180   -0.3610    0.6290 cc        1 1M8     -0.013100
     20 S20        -5.2500    0.4180    0.8830 ss        1 1M8      0.100200
     21 O21        -2.3410   -1.5000   -0.9530 o         1 1M8     -0.587100
     22 C22        -7.9880    0.1360    1.1090 ca        1 1M8     -0.015000
     23 C23        -9.1650   -0.5900    0.8510 ca        1 1M8     -0.096000
     24 C24       -10.4030   -0.1390    1.2980 ca        1 1M8     -0.120000
     25 C25       -10.5000    1.0520    2.0170 ca        1 1M8     -0.104000
     26 C26        -9.3510    1.7920    2.2870 ca        1 1M8     -0.115000
     27 C27        -8.1090    1.3360    1.8370 ca        1 1M8      0.014400
     28 Cl1        -6.7380    2.2870    2.2000 cl        1 1M8     -0.082400
     29 H1         -0.5580   -0.4140   -1.4820 ha        1 1M8      0.197000
     30 H2          3.1170    0.8680    0.4500 ha        1 1M8      0.131000
     31 H3          1.8330    1.5360    2.4550 ha        1 1M8      0.160000
     32 H4         -1.3660    0.4700    3.3360 hc        1 1M8      0.065700
     33 H5         -0.0860    1.7040    3.6740 hc        1 1M8      0.065700
     34 H6         -1.5210    2.1560    2.6690 hc        1 1M8      0.065700
     35 H7         -2.6390    0.6610    1.3510 hn        1 1M8      0.330500
     36 H8          3.4690   -1.1780   -0.6090 hn        1 1M8      0.457300
     37 H9          4.2480   -0.0270   -3.2420 hx        1 1M8      0.157700
     38 H10         5.8410    1.3800   -1.8040 hc        1 1M8      0.108950
     39 H11         5.2950    0.5300   -0.2770 hc        1 1M8      0.108950
     40 H12         6.6120   -0.9070   -2.7750 hc        1 1M8      0.108950
     41 H13         6.0560   -1.7300   -1.2370 hc        1 1M8      0.108950
     42 H14        -4.8020   -2.6040   -1.0060 ha        1 1M8      0.176000
     43 H15        -7.3230   -2.2200   -0.4070 ha        1 1M8      0.169000
     44 H16        -9.1120   -1.5330    0.2850 ha        1 1M8      0.145000
     45 H17       -11.3090   -0.7270    1.0820 ha        1 1M8      0.149000
     46 H18       -11.4790    1.4100    2.3710 ha        1 1M8      0.151000
     47 H19        -9.4210    2.7340    2.8540 ha        1 1M8      0.157000
     48 H102        3.2200   -1.9590   -2.0630 hn        1 1M8      0.457300
@<TRIPOS>BOND
     1    1    2 ar  
     2    1    6 ar  
     3    1   29 1   
     4    2    3 ar  
     5    2    9 1   
     6    3    4 ar  
     7    3   30 1   
     8    4    5 ar  
     9    4   31 1   
    10    5    6 ar  
    11    5    7 1   
    12    6    8 1   
    13    7   32 1   
    14    7   33 1   
    15    7   34 1   
    16    8   15 1   
    17    8   35 1   
    18    9   10 1   
    19    9   11 2   
    20   10   12 1   
    21   10   36 1   
    22   10   48 1   
    23   12   13 1   
    24   12   14 1   
    25   12   37 1   
    26   13   14 1   
    27   13   38 1   
    28   13   39 1   
    29   14   40 1   
    30   14   41 1   
    31   15   16 1   
    32   15   21 2   
    33   16   17 2   
    34   16   20 1   
    35   17   18 1   
    36   17   42 1   
    37   18   19 2   
    38   18   43 1   
    39   19   20 1   
    40   19   22 1   
    41   22   23 ar  
    42   22   27 ar  
    43   23   24 ar  
    44   23   44 1   
    45   24   25 ar  
    46   24   45 1   
    47   25   26 ar  
    48   25   46 1   
    49   26   27 ar  
    50   26   47 1   
    51   27   28 1   
@<TRIPOS>SUBSTRUCTURE
     1 1M8         1 TEMP              0 ****  ****    0 ROOT
