@<TRIPOS>MOLECULE
1M8
   49    52     1     0     0
SMALL
bcc


@<TRIPOS>ATOM
      1 C1          0.1640    0.6340   -0.1840 ca        1 1M8     -0.002000
      2 C2          1.4980    0.2660    0.0450 ca        1 1M8     -0.190600
      3 C3          1.8930   -0.1720    1.3160 ca        1 1M8     -0.048000
      4 C4          0.9580   -0.2530    2.3420 ca        1 1M8     -0.109000
      5 C5         -0.3870    0.0930    2.1410 ca        1 1M8      0.031700
      6 C6         -0.7760    0.5470    0.8580 ca        1 1M8     -0.040400
      7 C7         -1.3430   -0.0190    3.2660 c3        1 1M8     -0.110800
      8 N8         -2.1620    0.9260    0.5900 n4        1 1M8     -0.565200
      9 C9          2.4160    0.4100   -1.0990 c         1 1M8      0.560700
     10 N10         3.6820   -0.4180   -1.0530 n4        1 1M8     -0.630800
     11 O11         2.2370    1.1140   -2.0810 o         1 1M8     -0.382100
     12 C12         4.4490   -0.4000   -2.3140 cx        1 1M8     -0.014500
     13 C13         5.7280    0.4020   -2.4420 cx        1 1M8     -0.091900
     14 C14         5.7960   -1.0920   -2.3940 cx        1 1M8     -0.091900
     15 C15        -2.8870   -0.0200   -0.4140 c         1 1M8      0.633700
     16 C16        -4.2900   -0.1120   -0.2280 cc        1 1M8     -0.330700
     17 C17        -5.0750   -0.9040   -1.0970 cd        1 1M8      0.016000
     18 C18        -6.4390   -0.8580   -0.7600 cd        1 1M8     -0.170000
     19 C19        -6.6840   -0.0410    0.3470 cc        1 1M8      0.113900
     20 S20        -5.2660    0.6350    0.9280 ss        1 1M8      0.053200
     21 O21        -2.1490   -0.5300   -1.2460 o         1 1M8     -0.456100
     22 C22        -7.9630    0.2300    0.9560 ca        1 1M8     -0.100000
     23 C23        -8.1110    0.0660    2.3460 ca        1 1M8     -0.096000
     24 C24        -9.3350    0.2980    2.9620 ca        1 1M8     -0.121000
     25 C25       -10.4340    0.7050    2.2010 ca        1 1M8     -0.068000
     26 C26       -10.3060    0.8820    0.8260 ca        1 1M8     -0.117000
     27 C27        -9.0760    0.6460    0.1990 ca        1 1M8      0.059400
     28 CL1        -8.9600    0.8980   -1.4730 cl        1 1M8     -0.056400
     29 H1         -0.1370    0.9760   -1.1940 ha        1 1M8      0.193000
     30 H2          2.9380   -0.4430    1.5420 ha        1 1M8      0.154000
     31 H3          1.2780   -0.5970    3.3430 ha        1 1M8      0.192000
     32 H4         -2.1770   -0.7250    3.0150 hc        1 1M8      0.088033
     33 H5         -1.7720    0.9830    3.5280 hc        1 1M8      0.088033
     34 H6         -0.8390   -0.4150    4.1870 hc        1 1M8      0.088033
     35 H7         -2.6900    0.9470    1.4710 hn        1 1M8      0.464300
     36 H8          4.2740   -0.0650   -0.2900 hn        1 1M8      0.461800
     37 H9          3.7560   -0.4490   -3.1880 hx        1 1M8      0.159700
     38 H10         5.8990    0.9350   -3.4000 hc        1 1M8      0.117450
     39 H11         6.1100    0.9860   -1.5830 hc        1 1M8      0.117450
     40 H12         6.2270   -1.5830   -1.5010 hc        1 1M8      0.117450
     41 H13         6.0150   -1.6670   -3.3170 hc        1 1M8      0.117450
     42 H14        -4.6630   -1.4870   -1.9300 ha        1 1M8      0.193000
     43 H15        -7.2210   -1.4050   -1.3030 ha        1 1M8      0.209000
     44 H16        -7.2530   -0.2700    2.9480 ha        1 1M8      0.134000
     45 H17        -9.4410    0.1550    4.0500 ha        1 1M8      0.161000
     46 H18       -11.4070    0.8860    2.6890 ha        1 1M8      0.167000
     47 H19       -11.1740    1.2080    0.2270 ha        1 1M8      0.175000
     48 H82        -2.1700    1.8700    0.1820 hn        1 1M8      0.464300
     49 H102        3.4260   -1.3920   -0.8430 hn        1 1M8      0.461800
@<TRIPOS>BOND
     1    1    2 ar  
     2    1    6 ar  
     3    1   29 1   
     4    2    3 ar  
     5    2    9 1   
     6    3    4 ar  
     7    3   30 1   
     8    4    5 ar  
     9    4   31 1   
    10    5    6 ar  
    11    5    7 1   
    12    6    8 1   
    13    7   32 1   
    14    7   33 1   
    15    7   34 1   
    16    8   15 1   
    17    8   35 1   
    18    8   48 1   
    19    9   10 1   
    20    9   11 2   
    21   10   12 1   
    22   10   36 1   
    23   10   49 1   
    24   12   13 1   
    25   12   14 1   
    26   12   37 1   
    27   13   14 1   
    28   13   38 1   
    29   13   39 1   
    30   14   40 1   
    31   14   41 1   
    32   15   16 1   
    33   15   21 2   
    34   16   17 2   
    35   16   20 1   
    36   17   18 1   
    37   17   42 1   
    38   18   19 2   
    39   18   43 1   
    40   19   20 1   
    41   19   22 1   
    42   22   23 ar  
    43   22   27 ar  
    44   23   24 ar  
    45   23   44 1   
    46   24   25 ar  
    47   24   45 1   
    48   25   26 ar  
    49   25   46 1   
    50   26   27 ar  
    51   26   47 1   
    52   27   28 1   
@<TRIPOS>SUBSTRUCTURE
     1 1M8         1 TEMP              0 ****  ****    0 ROOT
