@<TRIPOS>MOLECULE
1M8
   48    51     1     0     0
SMALL
bcc


@<TRIPOS>ATOM
      1 C1         -0.0440   -0.0030   -0.5950 ca        1 1M8     -0.083000
      2 C2          1.3450    0.1600   -0.6200 ca        1 1M8     -0.184600
      3 C3          2.0290    0.7100    0.4710 ca        1 1M8     -0.133000
      4 C4          1.3040    1.0950    1.5910 ca        1 1M8     -0.098000
      5 C5         -0.0820    0.9190    1.6650 ca        1 1M8     -0.062300
      6 C6         -0.7810    0.3510    0.5600 ca        1 1M8      0.095600
      7 C7         -0.7980    1.3360    2.8940 c3        1 1M8     -0.077800
      8 N8         -2.1640    0.1800    0.6180 n         1 1M8     -0.481100
      9 C9          2.0370   -0.2340   -1.8470 c         1 1M8      0.590700
     10 N10         3.3290   -1.0300   -1.6220 n4        1 1M8     -0.650800
     11 O11         1.7260   -0.0700   -3.0150 o         1 1M8     -0.406100
     12 C12         4.4950   -0.3650   -2.2200 cx        1 1M8     -0.001500
     13 C13         5.4520    0.4540   -1.3790 cx        1 1M8     -0.103400
     14 C14         5.8990   -0.8620   -1.9370 cx        1 1M8     -0.103400
     15 C15        -2.9060   -0.7420   -0.1450 c         1 1M8      0.735700
     16 C16        -4.3510   -0.7430    0.0750 cc        1 1M8     -0.261700
     17 C17        -5.1640   -1.7590   -0.4200 cd        1 1M8     -0.059000
     18 C18        -6.5260   -1.5440   -0.0920 cd        1 1M8     -0.168000
     19 C19        -6.7170   -0.3730    0.6370 cc        1 1M8     -0.013100
     20 S20        -5.2500    0.4110    0.8860 ss        1 1M8      0.100200
     21 O21        -2.3390   -1.5030   -0.9490 o         1 1M8     -0.587100
     22 C22        -7.9870    0.1230    1.1170 ca        1 1M8     -0.015000
     23 C23        -9.1630   -0.6080    0.8640 ca        1 1M8     -0.096000
     24 C24       -10.4010   -0.1590    1.3110 ca        1 1M8     -0.120000
     25 C25       -10.5000    1.0350    2.0260 ca        1 1M8     -0.104000
     26 C26        -9.3530    1.7790    2.2910 ca        1 1M8     -0.115000
     27 C27        -8.1100    1.3250    1.8410 ca        1 1M8      0.014400
     28 CL1        -6.7410    2.2810    2.1970 cl        1 1M8     -0.082400
     29 H1         -0.5590   -0.4130   -1.4830 ha        1 1M8      0.197000
     30 H2          3.1150    0.8800    0.4420 ha        1 1M8      0.131000
     31 H3          1.8330    1.5470    2.4470 ha        1 1M8      0.160000
     32 H4         -0.0850    1.7130    3.6690 hc        1 1M8      0.065700
     33 H5         -1.3620    0.4750    3.3350 hc        1 1M8      0.065700
     34 H6         -1.5220    2.1600    2.6660 hc        1 1M8      0.065700
     35 H7         -2.6390    0.6600    1.3520 hn        1 1M8      0.330500
     36 H8          3.2220   -1.9500   -2.0690 hn        1 1M8      0.457300
     37 H9          4.2430   -0.0160   -3.2510 hx        1 1M8      0.157700
     38 H10         5.2920    0.5480   -0.2880 hc        1 1M8      0.108950
     39 H11         5.8340    1.3970   -1.8170 hc        1 1M8      0.108950
     40 H12         6.0590   -1.7110   -1.2460 hc        1 1M8      0.108950
     41 H13         6.6100   -0.8880   -2.7860 hc        1 1M8      0.108950
     42 H14        -4.7970   -2.6160   -0.9940 ha        1 1M8      0.176000
     43 H15        -7.3170   -2.2360   -0.3930 ha        1 1M8      0.169000
     44 H16        -9.1070   -1.5530    0.3020 ha        1 1M8      0.145000
     45 H17       -11.3060   -0.7500    1.0990 ha        1 1M8      0.149000
     46 H18       -11.4790    1.3920    2.3800 ha        1 1M8      0.151000
     47 H19        -9.4250    2.7230    2.8540 ha        1 1M8      0.157000
     48 H102        3.4710   -1.1660   -0.6160 hn        1 1M8      0.457300
@<TRIPOS>BOND
     1    1    2 ar  
     2    1    6 ar  
     3    1   29 1   
     4    2    3 ar  
     5    2    9 1   
     6    3    4 ar  
     7    3   30 1   
     8    4    5 ar  
     9    4   31 1   
    10    5    6 ar  
    11    5    7 1   
    12    6    8 1   
    13    7   32 1   
    14    7   33 1   
    15    7   34 1   
    16    8   15 1   
    17    8   35 1   
    18    9   10 1   
    19    9   11 2   
    20   10   12 1   
    21   10   36 1   
    22   10   48 1   
    23   12   13 1   
    24   12   14 1   
    25   12   37 1   
    26   13   14 1   
    27   13   38 1   
    28   13   39 1   
    29   14   40 1   
    30   14   41 1   
    31   15   16 1   
    32   15   21 2   
    33   16   17 2   
    34   16   20 1   
    35   17   18 1   
    36   17   42 1   
    37   18   19 2   
    38   18   43 1   
    39   19   20 1   
    40   19   22 1   
    41   22   23 ar  
    42   22   27 ar  
    43   23   24 ar  
    44   23   44 1   
    45   24   25 ar  
    46   24   45 1   
    47   25   26 ar  
    48   25   46 1   
    49   26   27 ar  
    50   26   47 1   
    51   27   28 1   
@<TRIPOS>SUBSTRUCTURE
     1 1M8         1 TEMP              0 ****  ****    0 ROOT
