@<TRIPOS>MOLECULE
1M8
   47    50     1     0     0
SMALL
bcc


@<TRIPOS>ATOM
      1 C1          3.0130    0.0110   -0.5000 ca        1 1M8     -0.095000
      2 C2          4.3380    0.2420   -0.8700 ca        1 1M8     -0.122600
      3 C3          4.7320    1.4820   -1.3750 ca        1 1M8     -0.129000
      4 C4          3.7880    2.4960   -1.5050 ca        1 1M8     -0.114000
      5 C5          2.4560    2.3030   -1.1290 ca        1 1M8     -0.108300
      6 C6          2.0540    1.0400   -0.6170 ca        1 1M8      0.064600
      7 C7          1.4930    3.4200   -1.2810 c3        1 1M8     -0.057800
      8 N8          0.7080    0.8260   -0.2750 n         1 1M8     -0.477100
      9 C9          5.3140   -0.8820   -0.7450 c         1 1M8      0.679700
     10 N10         6.5190   -0.5800   -0.1330 n         1 1M8     -0.541900
     11 O11         5.0660   -2.0240   -1.1780 o         1 1M8     -0.591100
     12 C12         7.5090   -1.5630    0.1180 cx        1 1M8      0.055700
     13 C13         8.9790   -1.1980    0.1960 cx        1 1M8     -0.154900
     14 C14         8.2540   -1.6300    1.4380 cx        1 1M8     -0.154900
     15 C15         0.2460   -0.0840    0.6770 c         1 1M8      0.716700
     16 C16        -1.2140   -0.1200    0.8730 cc        1 1M8     -0.226700
     17 C17        -1.7890   -0.6610    2.0150 cd        1 1M8     -0.084000
     18 C18        -3.2060   -0.5950    1.9680 cd        1 1M8     -0.160000
     19 C19        -3.6670   -0.0150    0.7880 cc        1 1M8     -0.054100
     20 S20        -2.3760    0.4280   -0.1940 ss        1 1M8      0.106200
     21 O21         1.0120   -0.8230    1.3210 o         1 1M8     -0.573100
     22 C22        -5.0570    0.1710    0.4390 ca        1 1M8      0.007000
     23 C23        -6.0570   -0.4450    1.2140 ca        1 1M8     -0.106000
     24 C24        -7.4060   -0.2770    0.9200 ca        1 1M8     -0.123000
     25 C25        -7.7960    0.5120   -0.1630 ca        1 1M8     -0.118000
     26 C26        -6.8280    1.1250   -0.9530 ca        1 1M8     -0.117000
     27 C27        -5.4730    0.9520   -0.6580 ca        1 1M8      0.009400
     28 CL1        -4.3380    1.7130   -1.6800 cl        1 1M8     -0.082400
     29 H1          2.7280   -0.9850   -0.1160 ha        1 1M8      0.184000
     30 H2          5.7730    1.6580   -1.6840 ha        1 1M8      0.139000
     31 H3          4.0960    3.4730   -1.9100 ha        1 1M8      0.135000
     32 H4          0.7020    3.1610   -2.0300 hc        1 1M8      0.045700
     33 H5          0.9970    3.6530   -0.3050 hc        1 1M8      0.045700
     34 H6          2.0070    4.3480   -1.6350 hc        1 1M8      0.045700
     35 H7          0.0570    1.4880   -0.6350 hn        1 1M8      0.316500
     36 H8          6.6410    0.3160    0.2740 hn        1 1M8      0.311500
     37 H9          7.2410   -2.5310   -0.3700 h1        1 1M8      0.121700
     38 H10         9.7060   -1.8830   -0.2730 hc        1 1M8      0.073200
     39 H11         9.2900   -0.1430    0.1030 hc        1 1M8      0.073200
     40 H12         8.0530   -0.8790    2.2220 hc        1 1M8      0.073200
     41 H13         8.4590   -2.6260    1.8680 hc        1 1M8      0.073200
     42 H14        -1.2190   -1.0880    2.8460 ha        1 1M8      0.175000
     43 H15        -3.8390   -0.9600    2.7800 ha        1 1M8      0.159000
     44 H16        -5.7680   -1.0780    2.0670 ha        1 1M8      0.143000
     45 H17        -8.1670   -0.7700    1.5440 ha        1 1M8      0.141000
     46 H18        -8.8620    0.6480   -0.3950 ha        1 1M8      0.142000
     47 H19        -7.1290    1.7440   -1.8130 ha        1 1M8      0.151000
@<TRIPOS>BOND
     1    1    2 ar  
     2    1    6 ar  
     3    1   29 1   
     4    2    3 ar  
     5    2    9 1   
     6    3    4 ar  
     7    3   30 1   
     8    4    5 ar  
     9    4   31 1   
    10    5    6 ar  
    11    5    7 1   
    12    6    8 1   
    13    7   32 1   
    14    7   33 1   
    15    7   34 1   
    16    8   15 1   
    17    8   35 1   
    18    9   10 1   
    19    9   11 2   
    20   10   12 1   
    21   10   36 1   
    22   12   13 1   
    23   12   14 1   
    24   12   37 1   
    25   13   14 1   
    26   13   38 1   
    27   13   39 1   
    28   14   40 1   
    29   14   41 1   
    30   15   16 1   
    31   15   21 2   
    32   16   17 2   
    33   16   20 1   
    34   17   18 1   
    35   17   42 1   
    36   18   19 2   
    37   18   43 1   
    38   19   20 1   
    39   19   22 1   
    40   22   23 ar  
    41   22   27 ar  
    42   23   24 ar  
    43   23   44 1   
    44   24   25 ar  
    45   24   45 1   
    46   25   26 ar  
    47   25   46 1   
    48   26   27 ar  
    49   26   47 1   
    50   27   28 1   
@<TRIPOS>SUBSTRUCTURE
     1 1M8         1 TEMP              0 ****  ****    0 ROOT
