@<TRIPOS>MOLECULE
1M9
   60    62     1     0     0
SMALL
bcc


@<TRIPOS>ATOM
      1 C1         -4.9760    1.0830    0.7790 c3        1 1M9     -0.080900
      2 C2         -6.4140    0.8720    1.2010 c3        1 1M9     -0.068400
      3 C3         -7.3710    1.0760    0.0350 c3        1 1M9     -0.069700
      4 C4         -7.0030    0.1550   -1.1200 c3        1 1M9     -0.068400
      5 C5         -5.5660    0.3590   -1.5520 c3        1 1M9     -0.080900
      6 C6         -4.6120    0.1670   -0.3830 c3        1 1M9     -0.120700
      7 C7         -3.1880    0.5010   -0.8230 c         1 1M9      0.707100
      8 O8         -2.8610    1.6870   -1.0200 o         1 1M9     -0.603100
      9 C9         -2.6700   -1.9200   -1.1530 c3        1 1M9      0.121700
     10 N10        -2.2640   -0.5230   -1.0740 n         1 1M9     -0.391000
     11 C11        -0.8810   -0.2490   -0.8470 ca        1 1M9      0.067600
     12 C12        -0.3120   -0.2760    0.4460 ca        1 1M9     -0.107600
     13 C13         1.0470    0.0110    0.6060 ca        1 1M9     -0.118000
     14 C14         1.8340    0.2990   -0.5090 ca        1 1M9      0.045100
     15 C15         1.2900    0.3270   -1.7980 ca        1 1M9     -0.149000
     16 C16        -0.0650    0.0620   -1.9580 ca        1 1M9     -0.122000
     17 C17        -1.0920   -0.6600    1.7010 c         1 1M9      0.914200
     18 O18        -2.2110   -0.1200    1.9190 o         1 1M9     -0.823800
     19 O19        -0.5540   -1.5180    2.4560 o         1 1M9     -0.823800
     20 O20         3.1770    0.6880   -0.3770 os        1 1M9     -0.243200
     21 C21         4.0670   -0.2780    0.0360 ca        1 1M9      0.196100
     22 C22         3.7010   -1.5690    0.4590 ca        1 1M9     -0.191000
     23 C23         4.6810   -2.4590    0.8740 ca        1 1M9     -0.068000
     24 C24         6.0290   -2.0870    0.8720 ca        1 1M9     -0.187000
     25 C25         6.3950   -0.8140    0.4510 ca        1 1M9     -0.064000
     26 C26         5.4260    0.1000    0.0270 ca        1 1M9     -0.219300
     27 C27         5.8410    1.4850   -0.4380 c3        1 1M9      0.705200
     28 C28        -8.8010    0.8400    0.4680 c3        1 1M9     -0.087100
     29 C29        -1.8210   -2.7080   -2.1570 c3        1 1M9     -0.118600
     30 C30        -2.6730   -2.6800    0.1740 c3        1 1M9     -0.118600
     31 F31         7.2010    1.7150   -0.4060 f         1 1M9     -0.242633
     32 F32         5.5050    1.7840   -1.7360 f         1 1M9     -0.242633
     33 F33         5.3290    2.5250    0.2970 f         1 1M9     -0.242633
     34 H1         -4.8170    2.1510    0.4730 hc        1 1M9      0.063700
     35 H2         -4.2770    0.8660    1.6350 hc        1 1M9      0.063700
     36 H3         -6.5400   -0.1660    1.6090 hc        1 1M9      0.032700
     37 H4         -6.6700    1.5900    2.0220 hc        1 1M9      0.032700
     38 H5         -7.2720    2.1410   -0.3200 hc        1 1M9      0.046700
     39 H6         -7.1540   -0.9110   -0.8050 hc        1 1M9      0.032700
     40 H7         -7.6870    0.3500   -1.9860 hc        1 1M9      0.032700
     41 H8         -5.3140   -0.3680   -2.3680 hc        1 1M9      0.063700
     42 H9         -5.4360    1.3940   -1.9650 hc        1 1M9      0.063700
     43 H10        -4.6850   -0.8920   -0.0120 hc        1 1M9      0.068700
     44 H11        -3.7290   -1.9160   -1.5580 h1        1 1M9      0.033700
     45 H12         1.4800   -0.0150    1.6190 ha        1 1M9      0.161000
     46 H13         1.9240    0.5740   -2.6600 ha        1 1M9      0.133000
     47 H14        -0.5030    0.1020   -2.9670 ha        1 1M9      0.130000
     48 H16         2.6370   -1.8600    0.4730 ha        1 1M9      0.181000
     49 H17         4.3900   -3.4650    1.2140 ha        1 1M9      0.137000
     50 H18         6.7980   -2.7970    1.2060 ha        1 1M9      0.130000
     51 H19         7.4550   -0.5140    0.4480 ha        1 1M9      0.140000
     52 H20        -9.0740    1.5360    1.2980 hc        1 1M9      0.025700
     53 H21        -9.5010    1.0120   -0.3850 hc        1 1M9      0.025700
     54 H22        -8.9350   -0.2080    0.8290 hc        1 1M9      0.025700
     55 H23        -2.2280   -3.7440   -2.2340 hc        1 1M9      0.045700
     56 H24        -1.8490   -2.2330   -3.1670 hc        1 1M9      0.045700
     57 H25        -0.7580   -2.7630   -1.8200 hc        1 1M9      0.045700
     58 H26        -1.6290   -2.8460    0.5390 hc        1 1M9      0.045700
     59 H27        -3.2050   -2.1020    0.9710 hc        1 1M9      0.045700
     60 H28        -3.1740   -3.6660    0.0280 hc        1 1M9      0.045700
@<TRIPOS>BOND
     1    1    2 1   
     2    1    6 1   
     3    1   34 1   
     4    1   35 1   
     5    2    3 1   
     6    2   36 1   
     7    2   37 1   
     8    3    4 1   
     9    3   28 1   
    10    3   38 1   
    11    4    5 1   
    12    4   39 1   
    13    4   40 1   
    14    5    6 1   
    15    5   41 1   
    16    5   42 1   
    17    6    7 1   
    18    6   43 1   
    19    7    8 2   
    20    7   10 1   
    21    9   10 1   
    22    9   29 1   
    23    9   30 1   
    24    9   44 1   
    25   10   11 1   
    26   11   12 ar  
    27   11   16 ar  
    28   12   13 ar  
    29   12   17 1   
    30   13   14 ar  
    31   13   45 1   
    32   14   15 ar  
    33   14   20 1   
    34   15   16 ar  
    35   15   46 1   
    36   16   47 1   
    37   17   18 1   
    38   17   19 1   
    39   20   21 1   
    40   21   22 ar  
    41   21   26 ar  
    42   22   23 ar  
    43   22   48 1   
    44   23   24 ar  
    45   23   49 1   
    46   24   25 ar  
    47   24   50 1   
    48   25   26 ar  
    49   25   51 1   
    50   26   27 1   
    51   27   31 1   
    52   27   32 1   
    53   27   33 1   
    54   28   52 1   
    55   28   53 1   
    56   28   54 1   
    57   29   55 1   
    58   29   56 1   
    59   29   57 1   
    60   30   58 1   
    61   30   59 1   
    62   30   60 1   
@<TRIPOS>SUBSTRUCTURE
     1 1M9         1 TEMP              0 ****  ****    0 ROOT
