@<TRIPOS>MOLECULE
1M9
   61    63     1     0     0
SMALL
bcc


@<TRIPOS>ATOM
      1 C1         -0.0040   -0.2080   -0.1930 c3        1 1M9     -0.074400
      2 C2          1.4940    0.0040   -0.1440 c3        1 1M9     -0.074400
      3 C3          1.9700    0.2740    1.2760 c3        1 1M9     -0.068700
      4 C4          1.5420   -0.8560    2.2010 c3        1 1M9     -0.074400
      5 C5          0.0430   -1.0720    2.1520 c3        1 1M9     -0.074400
      6 C6         -0.4170   -1.3520    0.7290 c3        1 1M9     -0.118700
      7 C7         -1.9320   -1.5100    0.6880 c         1 1M9      0.677100
      8 O8         -2.6540   -0.5870    0.2540 o         1 1M9     -0.620100
      9 C9         -1.8290   -3.8490    1.6300 c3        1 1M9      0.112700
     10 N10        -2.5450   -2.6910    1.1080 n         1 1M9     -0.411000
     11 C11        -3.9700   -2.7630    1.1050 ca        1 1M9      0.076600
     12 C12        -4.6830   -3.0300   -0.0860 ca        1 1M9     -0.141600
     13 C13        -6.0760   -3.1270   -0.0770 ca        1 1M9     -0.123000
     14 C14        -6.7660   -2.9530    1.1250 ca        1 1M9      0.097100
     15 C15        -6.0840   -2.6700    2.3170 ca        1 1M9     -0.109000
     16 C16        -4.6990   -2.5690    2.2990 ca        1 1M9     -0.114000
     17 C17        -3.9780   -3.2260   -1.3740 c         1 1M9      0.650700
     18 O18        -3.8020   -4.2960   -1.9590 o         1 1M9     -0.498000
     19 O19        -3.4700   -2.1440   -2.0240 oh        1 1M9     -0.579100
     20 O20        -8.1570   -2.9270    1.2020 os        1 1M9     -0.236200
     21 C21        -8.8510   -3.8820    0.4730 ca        1 1M9      0.157100
     22 C22        -8.3250   -5.1390    0.1460 ca        1 1M9     -0.188000
     23 C23        -9.1280   -6.0620   -0.5190 ca        1 1M9     -0.070000
     24 C24       -10.4450   -5.7420   -0.8540 ca        1 1M9     -0.157000
     25 C25       -10.9660   -4.4930   -0.5240 ca        1 1M9     -0.059000
     26 C26       -10.1770   -3.5500    0.1380 ca        1 1M9     -0.189300
     27 C27       -10.7480   -2.1860    0.4990 c3        1 1M9      0.702200
     28 C28         3.4720    0.4490    1.3110 c3        1 1M9     -0.090100
     29 C29        -2.0180   -4.0610    3.1350 c3        1 1M9     -0.117600
     30 C30        -2.1970   -5.1490    0.9090 c3        1 1M9     -0.117600
     31 F31       -10.7650   -1.9130    1.8440 f         1 1M9     -0.233967
     32 F32       -10.0810   -1.1240   -0.0600 f         1 1M9     -0.233967
     33 F33       -12.0540   -1.9950    0.1090 f         1 1M9     -0.233967
     34 H1         -0.3240   -0.4440   -1.2410 hc        1 1M9      0.055700
     35 H2         -0.5380    0.7290    0.1170 hc        1 1M9      0.055700
     36 H3          1.7650    0.8730   -0.7990 hc        1 1M9      0.043950
     37 H4          2.0200   -0.9000   -0.5480 hc        1 1M9      0.043950
     38 H5          1.4870    1.2270    1.6350 hc        1 1M9      0.051700
     39 H6          2.0700   -1.8000    1.9050 hc        1 1M9      0.043950
     40 H7          1.8470   -0.6140    3.2520 hc        1 1M9      0.043950
     41 H8         -0.4820   -0.1590    2.5380 hc        1 1M9      0.055700
     42 H9         -0.2310   -1.9310    2.8190 hc        1 1M9      0.055700
     43 H10         0.0760   -2.2900    0.3480 hc        1 1M9      0.071700
     44 H11        -0.7250   -3.6720    1.4550 h1        1 1M9      0.062700
     45 H12        -6.6240   -3.3420   -1.0080 ha        1 1M9      0.165000
     46 H13        -6.6520   -2.5130    3.2470 ha        1 1M9      0.162000
     47 H14        -4.1660   -2.3330    3.2350 ha        1 1M9      0.152000
     48 H16        -7.2880   -5.3890    0.4160 ha        1 1M9      0.158000
     49 H17        -8.7180   -7.0510   -0.7790 ha        1 1M9      0.146000
     50 H18       -11.0740   -6.4750   -1.3800 ha        1 1M9      0.147000
     51 H19       -12.0070   -4.2390   -0.7860 ha        1 1M9      0.158000
     52 H20         3.8130    0.6690    2.3510 hc        1 1M9      0.035367
     53 H21         3.7790    1.2950    0.6490 hc        1 1M9      0.035367
     54 H22         3.9860   -0.4780    0.9590 hc        1 1M9      0.035367
     55 H23        -1.7880   -3.1340    3.7110 hc        1 1M9      0.049033
     56 H24        -1.3270   -4.8720    3.4700 hc        1 1M9      0.049033
     57 H25        -3.0660   -4.3720    3.3650 hc        1 1M9      0.049033
     58 H26        -3.2390   -5.4610    1.1580 hc        1 1M9      0.049033
     59 H27        -1.4940   -5.9510    1.2390 hc        1 1M9      0.049033
     60 H28        -2.1220   -5.0350   -0.2010 hc        1 1M9      0.049033
     61 H101       -3.6070   -1.3370   -1.4970 ho        1 1M9      0.460000
@<TRIPOS>BOND
     1    1    2 1   
     2    1    6 1   
     3    1   34 1   
     4    1   35 1   
     5    2    3 1   
     6    2   36 1   
     7    2   37 1   
     8    3    4 1   
     9    3   28 1   
    10    3   38 1   
    11    4    5 1   
    12    4   39 1   
    13    4   40 1   
    14    5    6 1   
    15    5   41 1   
    16    5   42 1   
    17    6    7 1   
    18    6   43 1   
    19    7    8 2   
    20    7   10 1   
    21    9   10 1   
    22    9   29 1   
    23    9   30 1   
    24    9   44 1   
    25   10   11 1   
    26   11   12 ar  
    27   11   16 ar  
    28   12   13 ar  
    29   12   17 1   
    30   13   14 ar  
    31   13   45 1   
    32   14   15 ar  
    33   14   20 1   
    34   15   16 ar  
    35   15   46 1   
    36   16   47 1   
    37   17   18 2   
    38   17   19 1   
    39   19   61 1   
    40   20   21 1   
    41   21   22 ar  
    42   21   26 ar  
    43   22   23 ar  
    44   22   48 1   
    45   23   24 ar  
    46   23   49 1   
    47   24   25 ar  
    48   24   50 1   
    49   25   26 ar  
    50   25   51 1   
    51   26   27 1   
    52   27   31 1   
    53   27   32 1   
    54   27   33 1   
    55   28   52 1   
    56   28   53 1   
    57   28   54 1   
    58   29   55 1   
    59   29   56 1   
    60   29   57 1   
    61   30   58 1   
    62   30   59 1   
    63   30   60 1   
@<TRIPOS>SUBSTRUCTURE
     1 1M9         1 TEMP              0 ****  ****    0 ROOT
