@<TRIPOS>MOLECULE
1M9
   60    54     1     0     0
SMALL
bcc


@<TRIPOS>ATOM
      1 C1          3.6920   -1.2960    0.0690 c3        1 1M9     -0.159000
      2 C2          5.2060   -1.3420   -0.1230 c3        1 1M9     -0.147500
      3 C3          5.6120   -1.4730   -1.5730 c3        1 1M9     -0.109000
      4 C4          4.9730   -0.4500   -2.4570 c3        1 1M9     -0.147500
      5 C5          3.4480   -0.3900   -2.2940 c3        1 1M9     -0.159000
      6 C6          2.9940   -0.2100   -0.8080 c3        1 1M9     -0.110000
      7 C7          1.4500   -0.2270   -0.6560 c2        1 1M9      0.352000
      8 O8          0.7850   -1.0090   -1.3060 o         1 1M9     -0.370000
      9 C9          1.5820    1.6720    0.9750 c3        1 1M9      0.045000
     10 N10         0.7930    0.7540    0.1940 n         1 1M9     -0.292000
     11 C11        -0.6260    0.8000    0.2640 c1        1 1M9      0.076000
     12 C12        -1.3720    1.2280   -0.8540 c1        1 1M9     -0.046000
     13 C13        -2.7610    1.2170   -0.8080 c1        1 1M9     -0.132000
     14 C14        -3.4150    0.7850    0.3380 c1        1 1M9     -0.046000
     15 C15        -2.6730    0.3590    1.4500 c1        1 1M9     -0.132000
     16 C16        -1.2760    0.3700    1.4050 c1        1 1M9     -0.122000
     17 C17        -0.6670    1.5530   -2.1500 c1        1 1M9      0.360000
     18 O18        -0.3720    2.7650   -2.4260 o         1 1M9     -0.557000
     19 O19        -0.5210    0.6630   -3.0160 o         1 1M9     -0.557000
     20 O20        -4.8420    0.9710    0.4590 o         1 1M9     -0.154000
     21 C21        -5.4820   -0.3040    0.5770 c2        1 1M9      0.151000
     22 C22        -5.2320   -1.2980   -0.3660 c2        1 1M9     -0.190000
     23 C23        -5.9310   -2.5090   -0.3080 c1        1 1M9     -0.068000
     24 C24        -6.8740   -2.7170    0.6900 c1        1 1M9     -0.125500
     25 C25        -7.1210   -1.7240    1.6280 c1        1 1M9     -0.125500
     26 C26        -6.4170   -0.5100    1.5660 c1        1 1M9     -0.212000
     27 C27        -6.7760    0.6220    2.5150 c2        1 1M9      0.484000
     28 C28         7.1480   -1.3280   -1.6680 c3        1 1M9     -0.205000
     29 C29         1.1950    1.5340    2.4810 c3        1 1M9     -0.237000
     30 C30         1.3090    3.1370    0.4990 c3        1 1M9     -0.237000
     31 F31        -6.1430    0.4400    3.6910 f         1 1M9     -0.172000
     32 F32        -6.3860    1.8250    1.9650 f         1 1M9     -0.172000
     33 F33        -8.0870    0.6300    2.7130 f         1 1M9     -0.172000
     34 H1          3.3250   -2.1620   -0.1600 hc        1 1M9      0.102250
     35 H2          3.4940   -1.1090    1.0350 hc        1 1M9      0.102250
     36 H3          5.5600   -2.0980    0.3690 hc        1 1M9      0.071750
     37 H4          5.5930   -0.5250    0.2370 hc        1 1M9      0.071750
     38 H5          5.3650   -2.3450   -1.8840 hc        1 1M9      0.085000
     39 H6          5.3510    0.4360   -2.2450 hc        1 1M9      0.071750
     40 H7          5.1890   -0.6740   -3.4160 hc        1 1M9      0.071750
     41 H8          3.0490   -1.2520   -2.6530 hc        1 1M9      0.102250
     42 H9          3.1040    0.3590   -2.8190 hc        1 1M9      0.102250
     43 H10         3.2110    0.7050   -0.4800 hc        1 1M9      0.109000
     44 H11         2.4920    1.4730    0.8650 h1        1 1M9      0.072000
     45 H12        -3.2500    1.4100   -1.5750 ha        1 1M9      0.147500
     46 H13        -3.1370    0.0540    2.2600 ha        1 1M9      0.147500
     47 H14        -0.7530    0.1380    2.2150 ha        1 1M9      0.130000
     48 H16        -4.5720   -1.1490   -1.0650 ha        1 1M9      0.180000
     49 H17        -5.7540   -3.2160   -0.9790 ha        1 1M9      0.137000
     50 H18        -7.3640   -3.5630    0.7320 ha        1 1M9      0.135000
     51 H19        -7.6860   -1.9200    2.4110 ha        1 1M9      0.135000
     52 H20         7.4590   -1.5900   -2.5990 hc        1 1M9      0.065333
     53 H21         7.5750   -1.9190   -1.0010 hc        1 1M9      0.065333
     54 H22         7.3940   -0.4160   -1.4930 hc        1 1M9      0.065333
     55 H23         1.0510    0.5580    2.7050 hc        1 1M9      0.085833
     56 H24         0.3780    2.0280    2.6510 hc        1 1M9      0.085833
     57 H25         1.9440    1.9070    3.0590 hc        1 1M9      0.085833
     58 H26         1.9910    3.7330    0.8730 hc        1 1M9      0.085833
     59 H27         1.3440    3.1790   -0.5120 hc        1 1M9      0.085833
     60 H28         0.4350    3.4160    0.8040 hc        1 1M9      0.085833
@<TRIPOS>BOND
     1    1    2 1   
     2    1    6 1   
     3    1   34 1   
     4    1   35 1   
     5    2    3 1   
     6    2   36 1   
     7    2   37 1   
     8    3    4 1   
     9    3   28 1   
    10    3   38 1   
    11    4    5 1   
    12    4   39 1   
    13    4   40 1   
    14    5    6 1   
    15    5   41 1   
    16    5   42 1   
    17    6    7 1   
    18    6   43 1   
    19    7    8 1   
    20    7   10 1   
    21    9   10 1   
    22    9   29 1   
    23    9   30 1   
    24    9   44 1   
    25   10   11 1   
    26   11   16 1   
    27   12   13 1   
    28   13   45 1   
    29   14   15 1   
    30   15   46 1   
    31   16   47 1   
    32   17   18 1   
    33   17   19 1   
    34   20   21 1   
    35   21   22 1   
    36   21   26 1   
    37   22   23 1   
    38   22   48 1   
    39   23   49 1   
    40   24   25 1   
    41   24   50 1   
    42   25   51 1   
    43   27   31 1   
    44   27   32 1   
    45   27   33 1   
    46   28   52 1   
    47   28   53 1   
    48   28   54 1   
    49   29   55 1   
    50   29   56 1   
    51   29   57 1   
    52   30   58 1   
    53   30   59 1   
    54   30   60 1   
@<TRIPOS>SUBSTRUCTURE
     1 1M9         1 TEMP              0 ****  ****    0 ROOT
