@<TRIPOS>MOLECULE
1M9
   60    62     1     0     0
SMALL
bcc


@<TRIPOS>ATOM
      1 C1         -0.2420   -0.4260   -0.0460 c3        1 1M9     -0.080900
      2 C2          1.2400   -0.3410   -0.3410 c3        1 1M9     -0.068400
      3 C3          2.0200    0.1600    0.8670 c3        1 1M9     -0.069700
      4 C4          1.7570   -0.7310    2.0720 c3        1 1M9     -0.068400
      5 C5          0.2770   -0.8230    2.3790 c3        1 1M9     -0.080900
      6 C6         -0.5020   -1.3100    1.1670 c3        1 1M9     -0.120700
      7 C7         -1.9990   -1.2730    1.4700 c         1 1M9      0.706100
      8 O8         -2.5920   -0.1790    1.5330 o         1 1M9     -0.603100
      9 C9         -2.0060   -3.7170    1.9840 c3        1 1M9      0.121700
     10 N10        -2.6970   -2.4560    1.7460 n         1 1M9     -0.391000
     11 C11        -4.0800   -2.5170    1.3960 ca        1 1M9      0.067600
     12 C12        -4.5100   -2.7670    0.0730 ca        1 1M9     -0.107600
     13 C13        -5.8780   -2.8040   -0.2110 ca        1 1M9     -0.118000
     14 C14        -6.8070   -2.6170    0.8120 ca        1 1M9      0.046100
     15 C15        -6.4020   -2.3720    2.1300 ca        1 1M9     -0.149000
     16 C16        -5.0420   -2.3140    2.4110 ca        1 1M9     -0.122000
     17 C17        -3.5540   -3.0580   -1.0810 c         1 1M9      0.914200
     18 O18        -2.5640   -2.3000   -1.2670 o         1 1M9     -0.823800
     19 O19        -3.8210   -4.0700   -1.7900 o         1 1M9     -0.823800
     20 O20        -8.1840   -2.5500    0.5480 os        1 1M9     -0.243200
     21 C21        -8.8030   -3.7180    0.1630 ca        1 1M9      0.196100
     22 C22        -8.1280   -4.9220   -0.1110 ca        1 1M9     -0.191000
     23 C23        -8.8500   -6.0370   -0.5130 ca        1 1M9     -0.068000
     24 C24       -10.2410   -5.9760   -0.6440 ca        1 1M9     -0.187000
     25 C25       -10.9110   -4.7900   -0.3700 ca        1 1M9     -0.064000
     26 C26       -10.2050   -3.6540    0.0370 ca        1 1M9     -0.219300
     27 C27       -10.9520   -2.3660    0.3400 c3        1 1M9      0.705200
     28 C28         3.5000    0.2200    0.5620 c3        1 1M9     -0.087100
     29 C29        -2.7530   -4.5980    2.9920 c3        1 1M9     -0.118600
     30 C30        -1.7160   -4.5530    0.7370 c3        1 1M9     -0.118600
     31 F31       -12.3200   -2.4490    0.1870 f         1 1M9     -0.242633
     32 F32       -10.8100   -1.9040    1.6260 f         1 1M9     -0.242633
     33 F33       -10.6110   -1.2950   -0.4480 f         1 1M9     -0.242633
     34 H1         -0.6560    0.5980    0.1460 hc        1 1M9      0.063700
     35 H2         -0.7960   -0.8580   -0.9260 hc        1 1M9      0.063700
     36 H3          1.6250   -1.3500   -0.6400 hc        1 1M9      0.032700
     37 H4          1.4070    0.3530   -1.2060 hc        1 1M9      0.032700
     38 H5          1.6590    1.1990    1.1120 hc        1 1M9      0.046700
     39 H6          2.3000   -0.3220    2.9640 hc        1 1M9      0.032700
     40 H7          2.1640   -1.7560    1.8700 hc        1 1M9      0.032700
     41 H8         -0.1130    0.1850    2.6830 hc        1 1M9      0.063700
     42 H9          0.1160   -1.5240    3.2390 hc        1 1M9      0.063700
     43 H10        -0.1670   -2.3510    0.9030 hc        1 1M9      0.068700
     44 H11        -1.0150   -3.4450    2.4630 h1        1 1M9      0.033700
     45 H12        -6.2010   -3.0020   -1.2450 ha        1 1M9      0.161000
     46 H13        -7.1500   -2.2100    2.9170 ha        1 1M9      0.133000
     47 H14        -4.7170   -2.1020    3.4410 ha        1 1M9      0.130000
     48 H16        -7.0300   -4.9680   -0.0200 ha        1 1M9      0.181000
     49 H17        -8.3180   -6.9750   -0.7360 ha        1 1M9      0.137000
     50 H18       -10.8030   -6.8630   -0.9660 ha        1 1M9      0.130000
     51 H19       -12.0060   -4.7360   -0.4730 ha        1 1M9      0.140000
     52 H20         3.6890    0.8950   -0.3070 hc        1 1M9      0.025700
     53 H21         3.8910   -0.7950    0.3110 hc        1 1M9      0.025700
     54 H22         4.0650    0.6080    1.4440 hc        1 1M9      0.025700
     55 H23        -2.9210   -4.0560    3.9530 hc        1 1M9      0.045700
     56 H24        -3.7420   -4.9150    2.5850 hc        1 1M9      0.045700
     57 H25        -2.1390   -5.5080    3.1930 hc        1 1M9      0.045700
     58 H26        -1.0290   -5.3880    1.0090 hc        1 1M9      0.045700
     59 H27        -1.2530   -3.9310   -0.0700 hc        1 1M9      0.045700
     60 H28        -2.6620   -4.9760    0.3140 hc        1 1M9      0.045700
@<TRIPOS>BOND
     1    1    2 1   
     2    1    6 1   
     3    1   34 1   
     4    1   35 1   
     5    2    3 1   
     6    2   36 1   
     7    2   37 1   
     8    3    4 1   
     9    3   28 1   
    10    3   38 1   
    11    4    5 1   
    12    4   39 1   
    13    4   40 1   
    14    5    6 1   
    15    5   41 1   
    16    5   42 1   
    17    6    7 1   
    18    6   43 1   
    19    7    8 2   
    20    7   10 1   
    21    9   10 1   
    22    9   29 1   
    23    9   30 1   
    24    9   44 1   
    25   10   11 1   
    26   11   12 ar  
    27   11   16 ar  
    28   12   13 ar  
    29   12   17 1   
    30   13   14 ar  
    31   13   45 1   
    32   14   15 ar  
    33   14   20 1   
    34   15   16 ar  
    35   15   46 1   
    36   16   47 1   
    37   17   18 1   
    38   17   19 1   
    39   20   21 1   
    40   21   22 ar  
    41   21   26 ar  
    42   22   23 ar  
    43   22   48 1   
    44   23   24 ar  
    45   23   49 1   
    46   24   25 ar  
    47   24   50 1   
    48   25   26 ar  
    49   25   51 1   
    50   26   27 1   
    51   27   31 1   
    52   27   32 1   
    53   27   33 1   
    54   28   52 1   
    55   28   53 1   
    56   28   54 1   
    57   29   55 1   
    58   29   56 1   
    59   29   57 1   
    60   30   58 1   
    61   30   59 1   
    62   30   60 1   
@<TRIPOS>SUBSTRUCTURE
     1 1M9         1 TEMP              0 ****  ****    0 ROOT
