@<TRIPOS>MOLECULE
1MA
   38    35     1     0     0
SMALL
bcc


@<TRIPOS>ATOM
      1 P           3.8250   -3.5220    2.7560 p3        1 1MA      2.547000
      2 OP1         3.4210   -4.9510    2.4640 o         1 1MA     -1.171000
      3 OP2         5.2590   -3.4880    3.2210 os        1 1MA     -0.816000
      4 OP3         2.9540   -2.9710    3.8060 o         1 1MA     -1.171000
      5 O5'         3.6770   -2.6450    1.4270 os        1 1MA     -0.760000
      6 C5'         2.6080   -1.6610    1.3620 c3        1 1MA      0.020000
      7 C4'         2.3970   -1.2400   -0.0820 c3        1 1MA     -0.075000
      8 O4'         1.1550   -1.3640   -0.4040 os        1 1MA     -0.294000
      9 C3'         2.7150    0.2840   -0.2670 c3        1 1MA      0.165000
     10 O3'         3.8110    0.4370   -0.9690 oh        1 1MA     -0.709000
     11 C2'         1.5060    0.8660   -1.0360 c3        1 1MA     -0.077000
     12 O2'         1.9730    1.6700   -2.2070 oh        1 1MA     -0.369000
     13 C1'         0.8390   -0.1710   -1.4480 c3        1 1MA      0.142000
     14 N9         -0.5110    0.1090   -1.4510 n3        1 1MA     -0.121000
     15 C8         -1.0720   -1.0020   -1.9680 c1        1 1MA     -0.037000
     16 N7         -2.4100   -0.9560   -1.7140 n2        1 1MA     -0.159000
     17 C5         -2.6700    0.1930   -1.0380 c1        1 1MA     -0.218000
     18 C6         -3.9480    0.7730   -0.4750 c1        1 1MA      0.210000
     19 N6         -5.0580    0.0570   -0.4840 n1        1 1MA     -0.378000
     20 N1         -3.9250    1.9910    0.1690 n3        1 1MA     -0.264000
     21 CM1        -5.1060    2.5000    0.7670 c3        1 1MA     -0.049000
     22 C2         -2.7100    2.6960    0.3000 c2        1 1MA      0.017000
     23 N3         -1.4850    2.1390   -0.2400 n1        1 1MA     -0.118000
     24 C4         -1.4990    0.8540   -0.8730 c1        1 1MA     -0.040000
     25 H5'         2.8520   -0.8710    1.9070 h1        1 1MA      0.072500
     26 H5''        1.7850   -2.0530    1.7080 h1        1 1MA      0.072500
     27 H4'         2.9550   -1.7750   -0.6760 h1        1 1MA      0.111000
     28 H3'         2.8090    0.7420    0.6450 h1        1 1MA     -0.024000
     29 HO3'        4.4230    0.8050   -0.4730 ho        1 1MA      0.235000
     30 H2'         0.9130    1.4550   -0.4000 h1        1 1MA      0.075000
     31 HO2'        1.9530    2.5090   -2.0090 ho        1 1MA      0.234000
     32 H1'         1.1240   -0.4180   -2.3220 h2        1 1MA      0.113000
     33 H8         -0.6160   -1.6860   -2.4510 DU        1 1MA      0.230000
     34 HN61       -5.0780   -0.7380   -0.9020 DU        1 1MA      0.230000
     35 HM11       -5.5210    1.7980    1.3240 h1        1 1MA      0.072000
     36 HM12       -5.7550    2.7860    0.0450 h1        1 1MA      0.072000
     37 HM13       -4.8760    3.2810    1.3360 h1        1 1MA      0.072000
     38 H2         -2.7140    3.5670    0.6500 h5        1 1MA      0.158000
@<TRIPOS>BOND
     1    1    2 1   
     2    1    4 1   
     3    1    5 1   
     4    5    6 1   
     5    6    7 1   
     6    6   25 1   
     7    6   26 1   
     8    7    8 1   
     9    7    9 1   
    10    7   27 1   
    11    8   13 1   
    12    9   10 1   
    13    9   11 1   
    14    9   28 1   
    15   10   29 1   
    16   11   12 1   
    17   11   13 1   
    18   11   30 1   
    19   12   31 1   
    20   13   14 1   
    21   13   32 1   
    22   14   15 1   
    23   14   24 1   
    24   15   16 1   
    25   16   17 1   
    26   17   24 1   
    27   18   19 1   
    28   18   20 1   
    29   20   21 1   
    30   20   22 1   
    31   21   35 1   
    32   21   36 1   
    33   21   37 1   
    34   22   23 1   
    35   22   38 1   
@<TRIPOS>SUBSTRUCTURE
     1 1MA         1 TEMP              0 ****  ****    0 ROOT
