@<TRIPOS>MOLECULE
1MA
   38    40     1     0     0
SMALL
bcc


@<TRIPOS>ATOM
      1 P          -3.6470   -0.6540   -0.9470 p5        1 1MA      1.342900
      2 OP1        -4.0530    0.7230   -1.4240 o         1 1MA     -0.924500
      3 OP2        -4.6500   -1.7590   -0.9320 o         1 1MA     -0.924500
      4 OP3        -2.2270   -0.9690   -1.3770 o         1 1MA     -0.924500
      5 O5'        -3.3970   -0.2440    0.7220 os        1 1MA     -0.568200
      6 C5'        -2.1110   -0.1220    1.1650 c3        1 1MA      0.223400
      7 C4'        -1.5800    1.3310    1.0860 c3        1 1MA      0.063100
      8 O4'        -0.1980    1.3430    1.5210 os        1 1MA     -0.435600
      9 C3'        -1.6220    1.9270   -0.3370 c3        1 1MA      0.075100
     10 O3'        -2.5760    2.9570   -0.4340 oh        1 1MA     -0.670800
     11 C2'        -0.2090    2.4680   -0.6060 c3        1 1MA      0.108100
     12 O2'        -0.0450    3.8570   -0.3960 oh        1 1MA     -0.623800
     13 C1'         0.6650    1.7090    0.4490 c3        1 1MA      0.220800
     14 N9          1.3490    0.5520   -0.1100 na        1 1MA     -0.186900
     15 C8          0.8320   -0.5320   -0.8530 cc        1 1MA      0.457400
     16 N7          1.7960   -1.4180   -1.2140 nd        1 1MA     -0.646000
     17 C5          2.9800   -0.9160   -0.6870 cd        1 1MA      0.219000
     18 C6          4.3430   -1.4590   -0.7620 cd        1 1MA      0.621200
     19 N6          4.6120   -2.5560   -1.4020 n2        1 1MA     -0.834100
     20 N1          5.3040   -0.6390   -0.0630 na        1 1MA     -0.773600
     21 CM1         6.6700   -1.0570    0.0040 c3        1 1MA      0.209100
     22 C2          4.9150    0.5410    0.5850 cd        1 1MA      0.579100
     23 N3          3.7110    1.0590    0.6590 nc        1 1MA     -0.560100
     24 C4          2.7240    0.3140    0.0160 cc        1 1MA     -0.020200
     25 H5'        -2.0710   -0.4100    2.2580 h1        1 1MA      0.000700
     26 H5''       -1.4100   -0.7910    0.5920 h1        1 1MA      0.000700
     27 H4'        -2.1250    1.9920    1.8090 h1        1 1MA      0.047700
     28 H3'        -1.8720    1.0920   -1.0770 h1        1 1MA      0.169700
     29 HO3'       -3.3850    2.5160   -0.7880 ho        1 1MA      0.498000
     30 H2'         0.1200    2.2730   -1.6590 h1        1 1MA      0.076700
     31 HO2'       -0.8450    4.1770    0.0430 ho        1 1MA      0.423000
     32 H1'         1.4400    2.3930    0.9020 h2        1 1MA      0.088700
     33 H8         -0.2720   -0.6460   -1.1020 h5        1 1MA      0.200100
     34 HN61        5.5640   -2.8540   -1.3980 hn        1 1MA      0.355400
     35 HM11        7.1120   -1.1230   -1.0280 h1        1 1MA      0.029700
     36 HM12        7.2800   -0.3290    0.6020 h1        1 1MA      0.029700
     37 HM13        6.7520   -2.0680    0.4890 h1        1 1MA      0.029700
     38 H2          5.7300    1.0990    1.0890 h5        1 1MA      0.022800
@<TRIPOS>BOND
     1    1    2 1   
     2    1    3 1   
     3    1    4 1   
     4    1    5 1   
     5    5    6 1   
     6    6    7 1   
     7    6   25 1   
     8    6   26 1   
     9    7    8 1   
    10    7    9 1   
    11    7   27 1   
    12    8   13 1   
    13    9   10 1   
    14    9   11 1   
    15    9   28 1   
    16   10   29 1   
    17   11   12 1   
    18   11   13 1   
    19   11   30 1   
    20   12   31 1   
    21   13   14 1   
    22   13   32 1   
    23   14   15 1   
    24   14   24 1   
    25   15   16 2   
    26   15   33 1   
    27   16   17 1   
    28   17   18 1   
    29   17   24 2   
    30   18   19 2   
    31   18   20 1   
    32   19   34 1   
    33   20   21 1   
    34   20   22 1   
    35   21   35 1   
    36   21   36 1   
    37   21   37 1   
    38   22   23 2   
    39   22   38 1   
    40   23   24 1   
@<TRIPOS>SUBSTRUCTURE
     1 1MA         1 TEMP              0 ****  ****    0 ROOT
