@<TRIPOS>MOLECULE
1MB
   43    46     1     0     0
SMALL
bcc


@<TRIPOS>ATOM
      1 C1         -0.1450    0.6300   -0.2090 ca        1 1MB      0.165900
      2 C2          1.2280    0.8840   -0.3570 ca        1 1MB     -0.204000
      3 C3          2.0730    0.7180    0.7520 ca        1 1MB      0.168900
      4 C4          1.5520    0.3040    1.9940 ca        1 1MB     -0.179000
      5 C5          0.1890    0.0620    2.1160 ca        1 1MB     -0.061000
      6 C6         -0.6780    0.2220    1.0330 ca        1 1MB     -0.177300
      7 C7         -2.1540   -0.0090    1.1900 c3        1 1MB      0.266100
      8 N8         -3.0870   -3.0390   -0.7060 nc        1 1MB     -0.670100
      9 C9         -2.7500   -1.8390   -0.3300 cd        1 1MB      0.671100
     10 N10        -2.5800   -1.3750    0.9820 na        1 1MB     -0.638000
     11 C11        -2.7140   -2.3030    2.0280 ca        1 1MB      0.188600
     12 C12        -3.0880   -3.6390    1.7050 ca        1 1MB     -0.210600
     13 C13        -3.2620   -4.5910    2.7130 ca        1 1MB     -0.028000
     14 C14        -3.0640   -4.2210    4.0420 ca        1 1MB      0.056100
     15 C15        -2.6820   -2.9170    4.3850 ca        1 1MB     -0.064000
     16 C16        -2.5140   -1.9660    3.3890 ca        1 1MB     -0.189000
     17 C17        -3.2930   -4.0370    0.2850 c         1 1MB      0.701100
     18 O18        -3.6270   -5.1880   -0.0320 o         1 1MB     -0.525100
     19 F19        -4.3090   -7.6140    8.2580 f         1 1MB     -0.232633
     20 O20        -3.3570   -5.0920    5.0970 os        1 1MB     -0.353400
     21 C21        -2.5830   -6.2310    5.2340 ca        1 1MB      0.671600
     22 N22        -1.5560   -6.5000    4.3850 nb        1 1MB     -0.712000
     23 C23        -0.8690   -7.6330    4.6040 ca        1 1MB      0.461200
     24 C24        -1.1510   -8.5340    5.6480 ca        1 1MB     -0.285300
     25 C25        -2.2040   -8.2420    6.5130 ca        1 1MB     -0.018000
     26 C26        -2.9440   -7.0720    6.3200 ca        1 1MB     -0.310600
     27 C27        -4.0960   -6.7120    7.2420 c3        1 1MB      0.710200
     28 F28         3.3970    0.9580    0.6240 f         1 1MB     -0.126900
     29 F29        -5.3160   -6.6190    6.6210 f         1 1MB     -0.232633
     30 F30        -3.9480   -5.5120    7.8930 f         1 1MB     -0.232633
     31 F31        -0.9600    0.7870   -1.2810 f         1 1MB     -0.135900
     32 H1          1.6340    1.2050   -1.3280 ha        1 1MB      0.172000
     33 H2          2.2270    0.1750    2.8520 ha        1 1MB      0.160000
     34 H3         -0.2150   -0.2680    3.0870 ha        1 1MB      0.147000
     35 H4         -2.4770    0.3300    2.2150 h1        1 1MB      0.076700
     36 H5         -2.7010    0.6360    0.4380 h1        1 1MB      0.076700
     37 H6         -2.5830   -1.0720   -1.1230 h5        1 1MB      0.063800
     38 H7         -3.5490   -5.6210    2.4400 ha        1 1MB      0.180000
     39 H8         -2.5310   -2.6520    5.4430 ha        1 1MB      0.156000
     40 H9         -2.2190   -0.9490    3.6860 ha        1 1MB      0.138000
     41 H10        -0.0430   -7.8250    3.8930 h4        1 1MB      0.036100
     42 H11        -0.5520   -9.4460    5.7730 ha        1 1MB      0.158000
     43 H12        -2.4580   -8.9200    7.3450 ha        1 1MB      0.163000
@<TRIPOS>BOND
     1    1    2 ar  
     2    1    6 ar  
     3    1   31 1   
     4    2    3 ar  
     5    2   32 1   
     6    3    4 ar  
     7    3   28 1   
     8    4    5 ar  
     9    4   33 1   
    10    5    6 ar  
    11    5   34 1   
    12    6    7 1   
    13    7   10 1   
    14    7   35 1   
    15    7   36 1   
    16    8    9 2   
    17    8   17 1   
    18    9   10 1   
    19    9   37 1   
    20   10   11 1   
    21   11   12 ar  
    22   11   16 ar  
    23   12   13 ar  
    24   12   17 1   
    25   13   14 ar  
    26   13   38 1   
    27   14   15 ar  
    28   14   20 1   
    29   15   16 ar  
    30   15   39 1   
    31   16   40 1   
    32   17   18 2   
    33   19   27 1   
    34   20   21 1   
    35   21   22 ar  
    36   21   26 ar  
    37   22   23 ar  
    38   23   24 ar  
    39   23   41 1   
    40   24   25 ar  
    41   24   42 1   
    42   25   26 ar  
    43   25   43 1   
    44   26   27 1   
    45   27   29 1   
    46   27   30 1   
@<TRIPOS>SUBSTRUCTURE
     1 1MB         1 TEMP              0 ****  ****    0 ROOT
