@<TRIPOS>MOLECULE
1MB
   43    33     1     0     0
SMALL
bcc


@<TRIPOS>ATOM
      1 C1         -0.4900   -4.4780   -3.1250 c1        1 1MB      0.129000
      2 C2         -1.6450   -4.7520   -3.8390 c1        1 1MB     -0.205000
      3 C3         -2.6980   -3.8470   -3.8310 c1        1 1MB      0.131000
      4 C4         -2.5930   -2.6670   -3.1070 c2        1 1MB     -0.177000
      5 C5         -1.4360   -2.3930   -2.3910 c1        1 1MB     -0.066000
      6 C6         -0.3860   -3.2950   -2.3990 c1        1 1MB     -0.171000
      7 C7          0.8840   -2.9820   -1.6430 c3        1 1MB      0.019000
      8 N8         -0.5440   -3.1260    1.8920 n1        1 1MB     -0.242000
      9 C9         -0.1330   -3.5320    0.5820 c1        1 1MB      0.105000
     10 N10         0.5550   -2.5990   -0.2850 n2        1 1MB     -0.247000
     11 C11         0.8310   -1.2370    0.1780 c1        1 1MB      0.105000
     12 C12         0.4370   -0.8440    1.4370 c1        1 1MB     -0.092000
     13 C13         0.7680    0.4410    1.9090 c1        1 1MB     -0.043000
     14 C14         1.4930    1.3120    1.1040 c1        1 1MB     -0.092000
     15 C15         1.8920    0.9150   -0.1680 c1        1 1MB     -0.043000
     16 C16         1.5650   -0.3550   -0.6360 c1        1 1MB     -0.193000
     17 C17        -0.2780   -1.8190    2.3400 c1        1 1MB      0.302000
     18 O18        -0.5350   -1.5060    3.4880 o         1 1MB     -0.283000
     19 F19         1.6480    5.9240    4.0030 f         1 1MB     -0.160333
     20 O20         1.8920    2.5270    1.7260 o         1 1MB     -0.135000
     21 C21         0.9170    3.5280    1.4780 c2        1 1MB      0.173000
     22 N22         0.1570    3.4700    0.3500 n2        1 1MB     -0.192000
     23 C23        -0.8410    4.3790    0.1510 c1        1 1MB     -0.007000
     24 C24        -1.0830    5.3620    1.0980 c1        1 1MB     -0.118500
     25 C25        -0.3230    5.4220    2.2290 c1        1 1MB     -0.118500
     26 C26         0.6770    4.5110    2.4270 c1        1 1MB     -0.236000
     27 C27         1.5830    4.6390    3.6270 c2        1 1MB      0.488000
     28 F28        -3.8490   -4.1540   -4.4460 f         1 1MB     -0.092000
     29 F29         2.8080    4.2050    3.3100 f         1 1MB     -0.160333
     30 F30         1.0970    3.9050    4.6330 f         1 1MB     -0.160333
     31 F31         0.4910   -5.3950   -3.0590 f         1 1MB     -0.099000
     32 H1         -1.7200   -5.5850   -4.3510 ha        1 1MB      0.171000
     33 H2         -3.3330   -2.0310   -3.1010 ha        1 1MB      0.160000
     34 H3         -1.3620   -1.5600   -1.8800 ha        1 1MB      0.155000
     35 H4          1.4590   -3.7750   -1.6280 h1        1 1MB      0.118500
     36 H5          1.3540   -2.2490   -2.0850 h1        1 1MB      0.118500
     37 H6         -0.3180   -4.4400    0.2720 ha        1 1MB      0.189000
     38 H7          0.4880    0.7220    2.8040 ha        1 1MB      0.168500
     39 H8          2.4010    1.5270   -0.7330 ha        1 1MB      0.168500
     40 H9          1.8460   -0.6330   -1.5280 ha        1 1MB      0.143000
     41 H10        -1.3850    4.3370   -0.6570 ha        1 1MB      0.170000
     42 H11        -1.7990    6.0130    0.9550 ha        1 1MB      0.161000
     43 H12        -0.4930    6.1150    2.8970 ha        1 1MB      0.161000
@<TRIPOS>BOND
     1    1    6 1   
     2    1   31 1   
     3    2    3 1   
     4    2   32 1   
     5    3    4 1   
     6    4    5 1   
     7    4   33 1   
     8    5   34 1   
     9    6    7 1   
    10    7   10 1   
    11    7   35 1   
    12    7   36 1   
    13    8    9 1   
    14    9   37 1   
    15   10   11 1   
    16   11   16 1   
    17   12   13 1   
    18   13   38 1   
    19   14   15 1   
    20   15   39 1   
    21   16   40 1   
    22   17   18 1   
    23   19   27 1   
    24   20   21 1   
    25   21   22 1   
    26   21   26 1   
    27   22   23 1   
    28   23   41 1   
    29   24   25 1   
    30   24   42 1   
    31   25   43 1   
    32   27   29 1   
    33   27   30 1   
@<TRIPOS>SUBSTRUCTURE
     1 1MB         1 TEMP              0 ****  ****    0 ROOT
