@<TRIPOS>MOLECULE
1MB
   43    46     1     0     0
SMALL
bcc


@<TRIPOS>ATOM
      1 C1          5.5810    0.1050   -0.3850 ca        1 1MB      0.165900
      2 C2          6.3220    1.1970    0.0970 ca        1 1MB     -0.204000
      3 C3          5.7940    2.4900   -0.0410 ca        1 1MB      0.168900
      4 C4          4.5420    2.6920   -0.6530 ca        1 1MB     -0.179000
      5 C5          3.8280    1.5960   -1.1240 ca        1 1MB     -0.061000
      6 C6          4.3280    0.2970   -1.0060 ca        1 1MB     -0.177300
      7 C7          3.5610   -0.8730   -1.5530 c3        1 1MB      0.266100
      8 N8          2.3420   -2.9150    1.2740 nc        1 1MB     -0.670100
      9 C9          3.0510   -2.3360    0.3480 cd        1 1MB      0.671100
     10 N10         2.5990   -1.4490   -0.6400 na        1 1MB     -0.638000
     11 C11         1.2470   -1.0690   -0.6110 ca        1 1MB      0.188600
     12 C12         0.3980   -1.6620    0.3670 ca        1 1MB     -0.210600
     13 C13        -0.9610   -1.3380    0.4170 ca        1 1MB     -0.028000
     14 C14        -1.4780   -0.4260   -0.5000 ca        1 1MB      0.056100
     15 C15        -0.6600    0.1820   -1.4630 ca        1 1MB     -0.064000
     16 C16         0.6870   -0.1410   -1.5210 ca        1 1MB     -0.189000
     17 C17         0.9520   -2.6310    1.3520 c         1 1MB      0.701100
     18 O18         0.2400   -3.1730    2.2110 o         1 1MB     -0.525100
     19 F19        -6.9300    0.5400   -0.9320 f         1 1MB     -0.232633
     20 O20        -2.8510   -0.1710   -0.5850 os        1 1MB     -0.353400
     21 C21        -3.4620    0.4640    0.4830 ca        1 1MB      0.671600
     22 N22        -2.7570    0.8440    1.5810 nb        1 1MB     -0.712000
     23 C23        -3.4460    1.4500    2.5630 ca        1 1MB      0.461200
     24 C24        -4.8290    1.7070    2.5110 ca        1 1MB     -0.285300
     25 C25        -5.5360    1.3140    1.3760 ca        1 1MB     -0.018000
     26 C26        -4.8580    0.6810    0.3310 ca        1 1MB     -0.310600
     27 C27        -5.5870    0.2400   -0.9260 c3        1 1MB      0.710200
     28 F28         6.4970    3.5500    0.4190 f         1 1MB     -0.126900
     29 F29        -5.5480   -1.1100   -1.1650 f         1 1MB     -0.232633
     30 F30        -5.1180    0.8100   -2.0840 f         1 1MB     -0.232633
     31 F31         6.0880   -1.1440   -0.2490 f         1 1MB     -0.135900
     32 H1          7.2980    1.0380    0.5770 ha        1 1MB      0.172000
     33 H2          4.1400    3.7110   -0.7490 ha        1 1MB      0.160000
     34 H3          2.8450    1.7560   -1.5980 ha        1 1MB      0.147000
     35 H4          3.0350   -0.5640   -2.5000 h1        1 1MB      0.076700
     36 H5          4.2970   -1.6870   -1.8300 h1        1 1MB      0.076700
     37 H6          4.1430   -2.5640    0.3080 h5        1 1MB      0.063800
     38 H7         -1.6000   -1.8070    1.1850 ha        1 1MB      0.180000
     39 H8         -1.0960    0.9000   -2.1750 ha        1 1MB      0.156000
     40 H9          1.3050    0.3460   -2.2890 ha        1 1MB      0.138000
     41 H10        -2.8440    1.7440    3.4450 h4        1 1MB      0.036100
     42 H11        -5.3350    2.2040    3.3490 ha        1 1MB      0.158000
     43 H12        -6.6200    1.4960    1.2940 ha        1 1MB      0.163000
@<TRIPOS>BOND
     1    1    2 ar  
     2    1    6 ar  
     3    1   31 1   
     4    2    3 ar  
     5    2   32 1   
     6    3    4 ar  
     7    3   28 1   
     8    4    5 ar  
     9    4   33 1   
    10    5    6 ar  
    11    5   34 1   
    12    6    7 1   
    13    7   10 1   
    14    7   35 1   
    15    7   36 1   
    16    8    9 2   
    17    8   17 1   
    18    9   10 1   
    19    9   37 1   
    20   10   11 1   
    21   11   12 ar  
    22   11   16 ar  
    23   12   13 ar  
    24   12   17 1   
    25   13   14 ar  
    26   13   38 1   
    27   14   15 ar  
    28   14   20 1   
    29   15   16 ar  
    30   15   39 1   
    31   16   40 1   
    32   17   18 2   
    33   19   27 1   
    34   20   21 1   
    35   21   22 ar  
    36   21   26 ar  
    37   22   23 ar  
    38   23   24 ar  
    39   23   41 1   
    40   24   25 ar  
    41   24   42 1   
    42   25   26 ar  
    43   25   43 1   
    44   26   27 1   
    45   27   29 1   
    46   27   30 1   
@<TRIPOS>SUBSTRUCTURE
     1 1MB         1 TEMP              0 ****  ****    0 ROOT
