@<TRIPOS>MOLECULE
1MB
   43    46     1     0     0
SMALL
bcc


@<TRIPOS>ATOM
      1 C1         -0.1530    0.6300   -0.2120 ca        1 1MB      0.165900
      2 C2          1.2200    0.8800   -0.3670 ca        1 1MB     -0.204000
      3 C3          2.0700    0.7110    0.7380 ca        1 1MB      0.168900
      4 C4          1.5540    0.2970    1.9820 ca        1 1MB     -0.179000
      5 C5          0.1910    0.0580    2.1110 ca        1 1MB     -0.061000
      6 C6         -0.6810    0.2220    1.0320 ca        1 1MB     -0.177300
      7 C7         -2.1560   -0.0050    1.1970 c3        1 1MB      0.266100
      8 N8         -3.1080   -3.0300   -0.6980 nc        1 1MB     -0.670100
      9 C9         -2.7660   -1.8310   -0.3220 cd        1 1MB      0.671100
     10 N10        -2.5880   -1.3700    0.9900 na        1 1MB     -0.638000
     11 C11        -2.7180   -2.2990    2.0350 ca        1 1MB      0.188600
     12 C12        -3.0960   -3.6340    1.7120 ca        1 1MB     -0.210600
     13 C13        -3.2670   -4.5870    2.7200 ca        1 1MB     -0.028000
     14 C14        -3.0600   -4.2200    4.0470 ca        1 1MB      0.056100
     15 C15        -2.6740   -2.9160    4.3900 ca        1 1MB     -0.064000
     16 C16        -2.5090   -1.9650    3.3950 ca        1 1MB     -0.189000
     17 C17        -3.3100   -4.0280    0.2920 c         1 1MB      0.701100
     18 O18        -3.6490   -5.1780   -0.0250 o         1 1MB     -0.525100
     19 F19        -4.2900   -7.6190    8.2630 f         1 1MB     -0.232633
     20 O20        -3.3500   -5.0910    5.1020 os        1 1MB     -0.353400
     21 C21        -2.5760   -6.2320    5.2340 ca        1 1MB      0.671600
     22 N22        -1.5550   -6.5010    4.3790 nb        1 1MB     -0.712000
     23 C23        -0.8680   -7.6360    4.5930 ca        1 1MB      0.461200
     24 C24        -1.1460   -8.5380    5.6360 ca        1 1MB     -0.285300
     25 C25        -2.1940   -8.2460    6.5070 ca        1 1MB     -0.018000
     26 C26        -2.9340   -7.0750    6.3200 ca        1 1MB     -0.310600
     27 C27        -4.0800   -6.7140    7.2480 c3        1 1MB      0.710200
     28 F28         3.3940    0.9480    0.6030 f         1 1MB     -0.126900
     29 F29        -5.3040   -6.6180    6.6330 f         1 1MB     -0.232633
     30 F30        -3.9270   -5.5160    7.9010 f         1 1MB     -0.232633
     31 F31        -0.9740    0.7900   -1.2790 f         1 1MB     -0.135900
     32 H1          1.6210    1.2000   -1.3390 ha        1 1MB      0.172000
     33 H2          2.2340    0.1650    2.8360 ha        1 1MB      0.160000
     34 H3         -0.2090   -0.2710    3.0840 ha        1 1MB      0.147000
     35 H4         -2.4730    0.3330    2.2240 h1        1 1MB      0.076700
     36 H5         -2.7060    0.6430    0.4490 h1        1 1MB      0.076700
     37 H6         -2.6020   -1.0630   -1.1150 h5        1 1MB      0.063800
     38 H7         -3.5580   -5.6150    2.4460 ha        1 1MB      0.180000
     39 H8         -2.5160   -2.6540    5.4480 ha        1 1MB      0.156000
     40 H9         -2.2110   -0.9490    3.6920 ha        1 1MB      0.138000
     41 H10        -0.0450   -7.8270    3.8770 h4        1 1MB      0.036100
     42 H11        -0.5480   -9.4510    5.7560 ha        1 1MB      0.158000
     43 H12        -2.4450   -8.9250    7.3380 ha        1 1MB      0.163000
@<TRIPOS>BOND
     1    1    2 ar  
     2    1    6 ar  
     3    1   31 1   
     4    2    3 ar  
     5    2   32 1   
     6    3    4 ar  
     7    3   28 1   
     8    4    5 ar  
     9    4   33 1   
    10    5    6 ar  
    11    5   34 1   
    12    6    7 1   
    13    7   10 1   
    14    7   35 1   
    15    7   36 1   
    16    8    9 2   
    17    8   17 1   
    18    9   10 1   
    19    9   37 1   
    20   10   11 1   
    21   11   12 ar  
    22   11   16 ar  
    23   12   13 ar  
    24   12   17 1   
    25   13   14 ar  
    26   13   38 1   
    27   14   15 ar  
    28   14   20 1   
    29   15   16 ar  
    30   15   39 1   
    31   16   40 1   
    32   17   18 2   
    33   19   27 1   
    34   20   21 1   
    35   21   22 ar  
    36   21   26 ar  
    37   22   23 ar  
    38   23   24 ar  
    39   23   41 1   
    40   24   25 ar  
    41   24   42 1   
    42   25   26 ar  
    43   25   43 1   
    44   26   27 1   
    45   27   29 1   
    46   27   30 1   
@<TRIPOS>SUBSTRUCTURE
     1 1MB         1 TEMP              0 ****  ****    0 ROOT
