@<TRIPOS>MOLECULE
1MC
   17    17     1     0     0
SMALL
bcc


@<TRIPOS>ATOM
      1 N3         -0.0160    0.0080   -0.0710 nc        1 1MC     -0.623100
      2 C4          1.3010    0.0070    0.0110 cd        1 1MC      0.608500
      3 N1         -0.0400    0.0090    2.4000 n         1 1MC     -0.326000
      4 CN1        -0.8220    0.0100    3.6180 c3        1 1MC      0.052300
      5 C2         -0.7600    0.0090    1.1420 c         1 1MC      0.819900
      6 O2         -1.9950    0.0090    1.1530 o         1 1MC     -0.497500
      7 N4          2.0590    0.0070   -1.2700 nz        1 1MC     -0.801600
      8 C5          2.0580    0.0070    1.2260 cd        1 1MC     -0.445600
      9 C6          1.3170    0.0080    2.4050 cc        1 1MC      0.123600
     10 H11        -1.4880   -0.8960    3.6260 h1        1 1MC      0.088367
     11 H12        -1.4690    0.9290    3.6360 h1        1 1MC      0.088367
     12 H13        -0.1490   -0.0020    4.5140 h1        1 1MC      0.088367
     13 HN41        2.6490    0.8460   -1.3000 hn        1 1MC      0.479800
     14 HN42        1.4230    0.0060   -2.0820 hn        1 1MC      0.479800
     15 H5          3.1530    0.0070    1.2550 ha        1 1MC      0.185000
     16 H6          1.8310    0.0080    3.3900 h4        1 1MC      0.200000
     17 H43         2.6490   -0.8330   -1.2990 hn        1 1MC      0.479800
@<TRIPOS>BOND
     1    1    2 2   
     2    1    5 1   
     3    2    7 1   
     4    2    8 1   
     5    3    4 1   
     6    3    5 1   
     7    3    9 1   
     8    4   10 1   
     9    4   11 1   
    10    4   12 1   
    11    5    6 2   
    12    7   13 1   
    13    7   14 1   
    14    7   17 1   
    15    8    9 2   
    16    8   15 1   
    17    9   16 1   
@<TRIPOS>SUBSTRUCTURE
     1 1MC         1 TEMP              0 ****  ****    0 ROOT
