@<TRIPOS>MOLECULE
1MC
   17    17     1     0     0
SMALL
bcc


@<TRIPOS>ATOM
      1 N3         -0.0160    0.0150   -0.0710 nc        1 1MC     -0.623100
      2 C4          1.3010    0.0070    0.0110 cd        1 1MC      0.608500
      3 N1         -0.0400    0.0100    2.4000 n         1 1MC     -0.326000
      4 CN1        -0.8210    0.0120    3.6180 c3        1 1MC      0.052300
      5 C2         -0.7600    0.0160    1.1420 c         1 1MC      0.819900
      6 O2         -1.9950    0.0220    1.1540 o         1 1MC     -0.497500
      7 N4          2.0580    0.0060   -1.2700 n4        1 1MC     -0.801600
      8 C5          2.0580    0.0010    1.2260 cd        1 1MC     -0.445600
      9 C6          1.3170    0.0030    2.4040 cc        1 1MC      0.123600
     10 H11        -1.4830   -0.8980    3.6300 h1        1 1MC      0.088367
     11 H12        -1.4740    0.9280    3.6330 h1        1 1MC      0.088367
     12 H13        -0.1480    0.0070    4.5140 h1        1 1MC      0.088367
     13 HN41        2.6530    0.8420   -1.2980 hn        1 1MC      0.479800
     14 HN42        1.4230    0.0110   -2.0820 hn        1 1MC      0.479800
     15 H5          3.1530   -0.0040    1.2550 ha        1 1MC      0.185000
     16 H6          1.8310   -0.0020    3.3900 h4        1 1MC      0.200000
     17 H43         2.6440   -0.8360   -1.3020 hn        1 1MC      0.479800
@<TRIPOS>BOND
     1    1    2 2   
     2    1    5 1   
     3    2    7 1   
     4    2    8 1   
     5    3    4 1   
     6    3    5 1   
     7    3    9 1   
     8    4   10 1   
     9    4   11 1   
    10    4   12 1   
    11    5    6 2   
    12    7   13 1   
    13    7   14 1   
    14    7   17 1   
    15    8    9 2   
    16    8   15 1   
    17    9   16 1   
@<TRIPOS>SUBSTRUCTURE
     1 1MC         1 TEMP              0 ****  ****    0 ROOT
