@<TRIPOS>MOLECULE
1MC
   16    14     1     0     0
SMALL
bcc


@<TRIPOS>ATOM
      1 N3         -0.6690    0.0000   -1.5590 n1        1 1MC     -0.295000
      2 C4          0.7490    0.0000   -1.5590 c1        1 1MC      0.226000
      3 N1         -0.6820    0.0000    0.9720 n3        1 1MC     -0.275000
      4 CN1        -1.4050    0.0330    2.1980 c3        1 1MC     -0.089000
      5 C2         -1.4000    0.0000   -0.2940 c1        1 1MC      0.353000
      6 O2         -2.6080   -0.1310   -0.2910 o         1 1MC     -0.343000
      7 N4          1.4590   -0.0080   -2.7880 n2        1 1MC     -0.356000
      8 C5          1.4810    0.0000   -0.2840 c2        1 1MC     -0.344000
      9 C6          0.7370    0.0000    0.9850 c2        1 1MC      0.063000
     10 H11        -2.0700    0.7470    2.1650 h1        1 1MC      0.098000
     11 H12        -0.7880    0.1960    2.9360 h1        1 1MC      0.098000
     12 H13        -1.8540   -0.8230    2.3330 h1        1 1MC      0.098000
     13 HN41        2.3710    0.0090   -2.7880 hn        1 1MC      0.230500
     14 HN42        1.0030   -0.0260   -3.5780 hn        1 1MC      0.230500
     15 H5          2.4570    0.0000   -0.2790 ha        1 1MC      0.153000
     16 H6          1.2180    0.0000    1.8340 h4        1 1MC      0.153000
@<TRIPOS>BOND
     1    1    2 1   
     2    2    8 1   
     3    3    4 1   
     4    3    5 1   
     5    3    9 1   
     6    4   10 1   
     7    4   11 1   
     8    4   12 1   
     9    5    6 1   
    10    7   13 1   
    11    7   14 1   
    12    8    9 1   
    13    8   15 1   
    14    9   16 1   
@<TRIPOS>SUBSTRUCTURE
     1 1MC         1 TEMP              0 ****  ****    0 ROOT
