@<TRIPOS>MOLECULE
1MC
   16    16     1     0     0
SMALL
bcc


@<TRIPOS>ATOM
      1 N3          1.1070   -0.0060   -0.7280 nc        1 1MC     -0.722100
      2 C4          0.0570    0.0190   -1.5690 cd        1 1MC      0.752500
      3 N1         -0.4860   -0.0000    1.1600 n         1 1MC     -0.382000
      4 CN1        -0.7420   -0.0030    2.5740 c3        1 1MC      0.066300
      5 C2          0.8720   -0.0060    0.6520 c         1 1MC      0.834900
      6 O2          1.7950   -0.0180    1.4900 o         1 1MC     -0.618500
      7 N4          0.2730    0.0960   -2.9300 nh        1 1MC     -0.917800
      8 C5         -1.3230    0.0120   -1.0870 cd        1 1MC     -0.430600
      9 C6         -1.5270    0.0060    0.2690 cc        1 1MC      0.065600
     10 H11         0.2340    0.0050    3.1310 h1        1 1MC      0.058700
     11 H12        -1.3370    0.9050    2.8600 h1        1 1MC      0.058700
     12 H13        -1.3200   -0.9230    2.8590 h1        1 1MC      0.058700
     13 HN41        1.1930   -0.0050   -3.2880 hn        1 1MC      0.435300
     14 HN42       -0.4870   -0.1120   -3.5280 hn        1 1MC      0.435300
     15 H5         -2.1660    0.0230   -1.7850 ha        1 1MC      0.153000
     16 H6         -2.5480    0.0050    0.6970 h4        1 1MC      0.153000
@<TRIPOS>BOND
     1    1    2 2   
     2    1    5 1   
     3    2    7 1   
     4    2    8 1   
     5    3    4 1   
     6    3    5 1   
     7    3    9 1   
     8    4   10 1   
     9    4   11 1   
    10    4   12 1   
    11    5    6 2   
    12    7   13 1   
    13    7   14 1   
    14    8    9 2   
    15    8   15 1   
    16    9   16 1   
@<TRIPOS>SUBSTRUCTURE
     1 1MC         1 TEMP              0 ****  ****    0 ROOT
