@<TRIPOS>MOLECULE
1MD
   49    51     1     0     0
SMALL
bcc


@<TRIPOS>ATOM
      1 C1         -0.1130    0.1510    0.1940 cp        1 1MD      0.139000
      2 C2          1.2940    0.0630    0.0290 ca        1 1MD     -0.311600
      3 C3          2.1410   -0.0420    1.1620 ca        1 1MD      0.511600
      4 N4          1.6620   -0.0560    2.4410 nb        1 1MD     -0.624000
      5 C4         -0.5940    0.1330    1.4970 ca        1 1MD     -0.281900
      6 C6          0.3400    0.0250    2.5820 ca        1 1MD      0.469600
      7 C5         -0.4310    0.0190    3.8960 c3        1 1MD      0.021700
      8 N1         -1.8330    0.1580    3.4870 n         1 1MD     -0.495800
      9 C9         -1.9600    0.1900    2.0730 c         1 1MD      0.737100
     10 C10        -2.8850   -0.2750    4.3420 c3        1 1MD      0.044000
     11 C7         -3.8190    0.8680    4.7660 c         1 1MD      0.516100
     12 C13         3.6220   -0.1700    0.9900 c3        1 1MD     -0.179400
     13 C14        -1.0100    0.2250   -0.9650 cp        1 1MD     -0.115000
     14 C15         1.8650    0.0090   -1.3470 c3        1 1MD      0.172100
     15 N16         2.1700    1.3730   -1.8810 n4        1 1MD     -0.860600
     16 C17        -1.6700   -0.9330   -1.3990 ca        1 1MD     -0.080000
     17 C18        -2.5560   -0.8880   -2.4720 ca        1 1MD     -0.104000
     18 C19        -2.8040    0.3260   -3.1240 ca        1 1MD      0.044400
     19 C20        -2.1520    1.4950   -2.7070 ca        1 1MD     -0.109000
     20 C21        -1.2550    1.4310   -1.6410 ca        1 1MD      0.001400
     21 CL1        -0.4580    2.8700   -1.1630 cl        1 1MD     -0.085400
     22 CL2        -3.8880    0.3910   -4.4130 cl        1 1MD     -0.001400
     23 N2         -4.7960    1.3570    3.7180 n4        1 1MD     -0.595200
     24 C25        -6.1280    0.7350    3.9530 c3        1 1MD      0.084600
     25 O2         -3.8600    1.3770    5.8720 o         1 1MD     -0.382100
     26 O1         -3.0630    0.2950    1.5170 o         1 1MD     -0.619500
     27 C8         -4.8970    2.8400    3.7370 c3        1 1MD      0.084600
     28 H1         -0.1330    0.8920    4.5420 h1        1 1MD      0.114200
     29 H2         -0.2500   -0.9390    4.4610 h1        1 1MD      0.114200
     30 H3         -3.5190   -1.0690    3.8420 h1        1 1MD      0.117200
     31 H4         -2.4610   -0.6980    5.3040 h1        1 1MD      0.117200
     32 H5          3.9980    0.5960    0.2700 hc        1 1MD      0.081033
     33 H6          3.8630   -1.1950    0.6050 hc        1 1MD      0.081033
     34 H7          4.1730   -0.0330    1.9580 hc        1 1MD      0.081033
     35 H8          1.1260   -0.4730   -2.0570 hx        1 1MD      0.122700
     36 H9          2.8200   -0.5950   -1.3680 hx        1 1MD      0.122700
     37 H10         1.3290    1.9850   -1.7840 hn        1 1MD      0.463800
     38 H11         2.9410    1.7960   -1.3560 hn        1 1MD      0.463800
     39 H13        -1.4930   -1.8900   -0.8820 ha        1 1MD      0.161000
     40 H14        -3.0680   -1.8100   -2.8010 ha        1 1MD      0.183000
     41 H15        -2.3540    2.4550   -3.2140 ha        1 1MD      0.187000
     42 H16        -6.5050    1.0310    4.9700 hx        1 1MD      0.110200
     43 H17        -6.0310   -0.3820    3.8920 hx        1 1MD      0.110200
     44 H18        -6.8480    1.0920    3.1680 hx        1 1MD      0.110200
     45 H19        -5.6490    3.1690    2.9690 hx        1 1MD      0.110200
     46 H20        -3.8930    3.2800    3.4980 hx        1 1MD      0.110200
     47 H21        -5.2240    3.1830    4.7570 hx        1 1MD      0.110200
     48 H163        2.4350    1.3110   -2.8680 hn        1 1MD      0.463800
     49 H211       -4.4540    1.0590    2.7860 hn        1 1MD      0.483800
@<TRIPOS>BOND
     1    1    2 ar  
     2    1    5 ar  
     3    1   13 1   
     4    2    3 ar  
     5    2   14 1   
     6    3    4 ar  
     7    3   12 1   
     8    4    6 ar  
     9    5    6 ar  
    10    5    9 1   
    11    6    7 1   
    12    7    8 1   
    13    7   28 1   
    14    7   29 1   
    15    8    9 1   
    16    8   10 1   
    17    9   26 2   
    18   10   11 1   
    19   10   30 1   
    20   10   31 1   
    21   11   23 1   
    22   11   25 2   
    23   12   32 1   
    24   12   33 1   
    25   12   34 1   
    26   13   16 ar  
    27   13   20 ar  
    28   14   15 1   
    29   14   35 1   
    30   14   36 1   
    31   15   37 1   
    32   15   38 1   
    33   15   48 1   
    34   16   17 ar  
    35   16   39 1   
    36   17   18 ar  
    37   17   40 1   
    38   18   19 ar  
    39   18   22 1   
    40   19   20 ar  
    41   19   41 1   
    42   20   21 1   
    43   23   24 1   
    44   23   27 1   
    45   23   49 1   
    46   24   42 1   
    47   24   43 1   
    48   24   44 1   
    49   27   45 1   
    50   27   46 1   
    51   27   47 1   
@<TRIPOS>SUBSTRUCTURE
     1 1MD         1 TEMP              0 ****  ****    0 ROOT
