@<TRIPOS>MOLECULE
1MD
   47    40     1     0     0
SMALL
bcc


@<TRIPOS>ATOM
      1 C1          1.0370   -0.1120   -1.4650 c1        1 1MD      0.077000
      2 C2          2.4240   -0.2580   -1.4720 c1        1 1MD     -0.138000
      3 C3          3.0930   -0.5140   -0.3010 c1        1 1MD      0.044000
      4 N4          2.3920   -0.6290    0.8930 n2        1 1MD     -0.128000
      5 C4          0.3350   -0.2270   -0.2680 c1        1 1MD     -0.182000
      6 C6          1.0190   -0.4860    0.9080 c1        1 1MD      0.008000
      7 C5          0.0030   -0.5210    2.0550 c2        1 1MD     -0.006000
      8 N1         -1.2920   -0.2720    1.5090 n         1 1MD     -0.318000
      9 C9         -1.1440   -0.0620    0.0790 c2        1 1MD      0.356000
     10 C10        -2.5460   -0.3180    2.2360 c3        1 1MD     -0.033000
     11 C7         -2.5390    0.7350    3.3600 c1        1 1MD      0.272000
     12 C13         4.2820   -1.3300    0.2380 c2        1 1MD     -0.184000
     13 C14         0.5360   -0.1860   -2.9160 c2        1 1MD     -0.044000
     14 C15         3.4920    0.2610   -2.4180 c2        1 1MD     -0.038000
     15 N16         4.2180    1.3260   -1.7950 n3        1 1MD     -0.347000
     16 C17         0.6670   -1.4150   -3.5040 c2        1 1MD     -0.089000
     17 C18         0.4340   -1.5630   -4.8620 c1        1 1MD     -0.123000
     18 C19         0.0650   -0.4540   -5.6350 c1        1 1MD     -0.046000
     19 C20        -0.0670    0.7960   -5.0390 c1        1 1MD     -0.122000
     20 C21         0.1640    0.9380   -3.6950 c1        1 1MD     -0.035000
     21 CL1         0.0530    2.4610   -2.9710 cl        1 1MD      0.005000
     22 CL2        -0.3170   -0.6570   -7.3140 cl        1 1MD     -0.004000
     23 N2         -3.6460    0.8080    4.2740 n2        1 1MD     -0.333000
     24 C25        -4.0140    2.0570    4.8500 c3        1 1MD     -0.079000
     25 O2         -1.6620    1.5260    3.4280 o         1 1MD     -0.372000
     26 O1         -2.0410    0.2060   -0.7050 o         1 1MD     -0.322000
     27 C8         -4.3120   -0.3960    4.6740 c3        1 1MD     -0.079000
     28 H1          0.0190   -1.4270    2.4950 h4        1 1MD      0.133000
     29 H2          0.2050    0.1170    2.6590 h4        1 1MD      0.133000
     30 H3         -2.6710   -1.2570    2.6460 h1        1 1MD      0.125000
     31 H4         -3.2790   -0.1310    1.6280 h1        1 1MD      0.125000
     32 H5          3.9810   -2.2570    0.4440 ha        1 1MD      0.104667
     33 H6          4.6290   -0.9040    1.0640 ha        1 1MD      0.104667
     34 H7          4.9970   -1.3600   -0.4450 ha        1 1MD      0.104667
     35 H8          3.0600    0.6010   -3.2430 h4        1 1MD      0.078000
     36 H9          4.1430   -0.5090   -2.6570 h4        1 1MD      0.078000
     37 H10         5.0740    1.2570   -1.9950 hn        1 1MD      0.151500
     38 H11         3.8860    2.1600   -2.1120 hn        1 1MD      0.151500
     39 H13         0.9300   -2.2070   -2.9540 ha        1 1MD      0.149000
     40 H14         0.5290   -2.4540   -5.2870 ha        1 1MD      0.154000
     41 H15        -0.3380    1.6090   -5.6020 ha        1 1MD      0.164000
     42 H16        -3.5770    2.7980    4.3460 h1        1 1MD      0.084000
     43 H17        -3.7390    2.0810    5.7380 h1        1 1MD      0.084000
     44 H18        -5.0150    2.1670    4.8040 h1        1 1MD      0.084000
     45 H19        -4.6650   -0.2940    5.6540 h1        1 1MD      0.084000
     46 H20        -5.1070   -0.5770    4.0400 h1        1 1MD      0.084000
     47 H21        -3.6970   -1.1250    4.6320 h1        1 1MD      0.084000
@<TRIPOS>BOND
     1    1    5 1   
     2    1   13 1   
     3    2    3 1   
     4    3    4 1   
     5    4    6 1   
     6    5    9 1   
     7    7    8 1   
     8    7   28 1   
     9    7   29 1   
    10    8    9 1   
    11    8   10 1   
    12    9   26 1   
    13   10   11 1   
    14   10   30 1   
    15   10   31 1   
    16   11   25 1   
    17   12   32 1   
    18   12   33 1   
    19   12   34 1   
    20   13   16 1   
    21   13   20 1   
    22   14   15 1   
    23   14   35 1   
    24   14   36 1   
    25   15   37 1   
    26   15   38 1   
    27   16   17 1   
    28   16   39 1   
    29   17   40 1   
    30   18   19 1   
    31   18   22 1   
    32   19   41 1   
    33   23   24 1   
    34   23   27 1   
    35   24   42 1   
    36   24   43 1   
    37   24   44 1   
    38   27   45 1   
    39   27   46 1   
    40   27   47 1   
@<TRIPOS>SUBSTRUCTURE
     1 1MD         1 TEMP              0 ****  ****    0 ROOT
