@<TRIPOS>MOLECULE
1MD
   47    49     1     0     0
SMALL
bcc


@<TRIPOS>ATOM
      1 C1          0.9800    1.0680    0.4470 cp        1 1MD      0.096000
      2 C2          1.5520    2.3380    0.1970 ca        1 1MD     -0.203600
      3 C3          0.7290    3.4890    0.1850 ca        1 1MD      0.440600
      4 N4         -0.6160    3.4510    0.4220 nb        1 1MD     -0.652000
      5 C4         -0.3850    1.0290    0.6970 ca        1 1MD     -0.264900
      6 C6         -1.1350    2.2480    0.6650 ca        1 1MD      0.428600
      7 C5         -2.5950    1.9270    0.9530 c3        1 1MD      0.016700
      8 N1         -2.5990    0.4940    1.2550 n         1 1MD     -0.460800
      9 C9         -1.3260   -0.0860    1.0040 c         1 1MD      0.719100
     10 C10        -3.8010   -0.2700    1.1770 c3        1 1MD      0.034000
     11 C7         -4.4910   -0.3280   -0.1980 c         1 1MD      0.629100
     12 C13         1.3360    4.8310   -0.0840 c3        1 1MD     -0.153400
     13 C14         1.8020   -0.1470    0.4560 cp        1 1MD     -0.044000
     14 C15         3.0300    2.4610   -0.0390 c3        1 1MD      0.207100
     15 N16         3.4050    2.3450   -1.4290 n3        1 1MD     -0.908800
     16 C17         2.4710   -0.5140    1.6320 ca        1 1MD     -0.094000
     17 C18         3.2580   -1.6610    1.6780 ca        1 1MD     -0.129000
     18 C19         3.3820   -2.4560    0.5340 ca        1 1MD      0.034400
     19 C20         2.7240   -2.1110   -0.6480 ca        1 1MD     -0.122000
     20 C21         1.9330   -0.9570   -0.6830 ca        1 1MD      0.070400
     21 CL1         1.1370   -0.5670   -2.1310 cl        1 1MD     -0.067400
     22 CL2         4.3440   -3.8560    0.5800 cl        1 1MD     -0.087400
     23 N2         -5.4660   -1.2960   -0.3880 n         1 1MD     -0.474800
     24 C25        -5.7130   -2.3090    0.5960 c3        1 1MD      0.076300
     25 O2         -4.2340    0.4960   -1.0990 o         1 1MD     -0.612100
     26 O1         -1.0950   -1.2970    1.0970 o         1 1MD     -0.593500
     27 C8         -6.0940   -1.4570   -1.6710 c3        1 1MD      0.076300
     28 H1         -2.9650    2.4950    1.8490 h1        1 1MD      0.093700
     29 H2         -3.2360    2.1690    0.0590 h1        1 1MD      0.093700
     30 H3         -3.5460   -1.3190    1.5120 h1        1 1MD      0.085700
     31 H4         -4.5500    0.1780    1.8940 h1        1 1MD      0.085700
     32 H5          1.9550    4.7870   -1.0130 hc        1 1MD      0.057700
     33 H6          0.5600    5.6250   -0.2170 hc        1 1MD      0.057700
     34 H7          1.9910    5.1210    0.7760 hc        1 1MD      0.057700
     35 H8          3.3840    3.4310    0.4280 h1        1 1MD      0.038700
     36 H9          3.5610    1.6280    0.5130 h1        1 1MD      0.038700
     37 H10         2.7860    2.8610   -2.0220 hn        1 1MD      0.353800
     38 H11         4.3420    2.6680   -1.5630 hn        1 1MD      0.353800
     39 H13         2.3660    0.1100    2.5330 ha        1 1MD      0.143000
     40 H14         3.7720   -1.9410    2.6100 ha        1 1MD      0.151000
     41 H15         2.8220   -2.7410   -1.5470 ha        1 1MD      0.163000
     42 H16        -5.8670   -1.8410    1.6050 h1        1 1MD      0.044867
     43 H17        -6.6400   -2.8810    0.3250 h1        1 1MD      0.044867
     44 H18        -4.8540   -3.0320    0.6600 h1        1 1MD      0.044867
     45 H19        -5.7870   -2.4310   -2.1370 h1        1 1MD      0.044867
     46 H20        -7.2100   -1.4540   -1.5430 h1        1 1MD      0.044867
     47 H21        -5.8010   -0.6160   -2.3550 h1        1 1MD      0.044867
@<TRIPOS>BOND
     1    1    2 ar  
     2    1    5 ar  
     3    1   13 1   
     4    2    3 ar  
     5    2   14 1   
     6    3    4 ar  
     7    3   12 1   
     8    4    6 ar  
     9    5    6 ar  
    10    5    9 1   
    11    6    7 1   
    12    7    8 1   
    13    7   28 1   
    14    7   29 1   
    15    8    9 1   
    16    8   10 1   
    17    9   26 2   
    18   10   11 1   
    19   10   30 1   
    20   10   31 1   
    21   11   23 1   
    22   11   25 2   
    23   12   32 1   
    24   12   33 1   
    25   12   34 1   
    26   13   16 ar  
    27   13   20 ar  
    28   14   15 1   
    29   14   35 1   
    30   14   36 1   
    31   15   37 1   
    32   15   38 1   
    33   16   17 ar  
    34   16   39 1   
    35   17   18 ar  
    36   17   40 1   
    37   18   19 ar  
    38   18   22 1   
    39   19   20 ar  
    40   19   41 1   
    41   20   21 1   
    42   23   24 1   
    43   23   27 1   
    44   24   42 1   
    45   24   43 1   
    46   24   44 1   
    47   27   45 1   
    48   27   46 1   
    49   27   47 1   
@<TRIPOS>SUBSTRUCTURE
     1 1MD         1 TEMP              0 ****  ****    0 ROOT
