@<TRIPOS>MOLECULE
1MD
   49    51     1     0     0
SMALL
bcc


@<TRIPOS>ATOM
      1 C1         -0.1060    0.1600    0.1950 cp        1 1MD      0.139000
      2 C2          1.3020    0.0860    0.0310 ca        1 1MD     -0.311600
      3 C3          2.1500   -0.0060    1.1650 ca        1 1MD      0.511600
      4 N4          1.6700   -0.0190    2.4440 nb        1 1MD     -0.624000
      5 C4         -0.5870    0.1430    1.4980 ca        1 1MD     -0.281900
      6 C6          0.3470    0.0490    2.5840 ca        1 1MD      0.469600
      7 C5         -0.4240    0.0400    3.8970 c3        1 1MD      0.021700
      8 N1         -1.8270    0.1640    3.4870 n         1 1MD     -0.495800
      9 C9         -1.9540    0.1880    2.0730 c         1 1MD      0.737100
     10 C10        -2.8750   -0.2770    4.3440 c3        1 1MD      0.044000
     11 C7         -3.8210    0.8590    4.7610 c         1 1MD      0.516100
     12 C13         3.6320   -0.1190    0.9940 c3        1 1MD     -0.179400
     13 C14        -1.0030    0.2200   -0.9640 cp        1 1MD     -0.115000
     14 C15         1.8740    0.0330   -1.3450 c3        1 1MD      0.172100
     15 N16         2.1660    1.3970   -1.8840 n4        1 1MD     -0.860600
     16 C17        -1.6510   -0.9460   -1.3950 ca        1 1MD     -0.080000
     17 C18        -2.5380   -0.9150   -2.4680 ca        1 1MD     -0.104000
     18 C19        -2.7980    0.2940   -3.1250 ca        1 1MD      0.044400
     19 C20        -2.1570    1.4720   -2.7120 ca        1 1MD     -0.109000
     20 C21        -1.2600    1.4220   -1.6460 ca        1 1MD      0.001400
     21 CL1        -0.4780    2.8700   -1.1730 cl        1 1MD     -0.085400
     22 CL2        -3.8810    0.3440   -4.4150 cl        1 1MD     -0.001400
     23 N2         -4.8040    1.3310    3.7120 n4        1 1MD     -0.595200
     24 C25        -6.1280    0.6930    3.9490 c3        1 1MD      0.084600
     25 O2         -3.8670    1.3730    5.8650 o         1 1MD     -0.382100
     26 O1         -3.0580    0.2790    1.5160 o         1 1MD     -0.620500
     27 C8         -4.9250    2.8120    3.7240 c3        1 1MD      0.084600
     28 H1         -0.1350    0.9200    4.5390 h1        1 1MD      0.114200
     29 H2         -0.2330   -0.9130    4.4660 h1        1 1MD      0.114200
     30 H3         -3.5000   -1.0790    3.8470 h1        1 1MD      0.117200
     31 H4         -2.4470   -0.6900    5.3080 h1        1 1MD      0.117200
     32 H5          4.1810    0.0270    1.9610 hc        1 1MD      0.081033
     33 H6          4.0000    0.6470    0.2700 hc        1 1MD      0.081033
     34 H7          3.8830   -1.1430    0.6130 hc        1 1MD      0.081033
     35 H8          1.1400   -0.4600   -2.0530 hx        1 1MD      0.122700
     36 H9          2.8360   -0.5620   -1.3630 hx        1 1MD      0.122700
     37 H10         2.4320    1.3340   -2.8710 hn        1 1MD      0.463800
     38 H11         1.3180    2.0010   -1.7900 hn        1 1MD      0.463800
     39 H13        -1.4650   -1.8990   -0.8730 ha        1 1MD      0.161000
     40 H14        -3.0390   -1.8430   -2.7940 ha        1 1MD      0.183000
     41 H15        -2.3690    2.4270   -3.2230 ha        1 1MD      0.187000
     42 H16        -6.0160   -0.4230    3.8920 hx        1 1MD      0.110200
     43 H17        -6.5090    0.9880    4.9640 hx        1 1MD      0.110200
     44 H18        -6.8520    1.0370    3.1620 hx        1 1MD      0.110200
     45 H19        -3.9260    3.2640    3.4840 hx        1 1MD      0.110200
     46 H20        -5.2560    3.1550    4.7420 hx        1 1MD      0.110200
     47 H21        -5.6800    3.1280    2.9550 hx        1 1MD      0.110200
     48 H163        2.9320    1.8300   -1.3610 hn        1 1MD      0.463800
     49 H211       -4.4580    1.0340    2.7800 hn        1 1MD      0.483800
@<TRIPOS>BOND
     1    1    2 ar  
     2    1    5 ar  
     3    1   13 1   
     4    2    3 ar  
     5    2   14 1   
     6    3    4 ar  
     7    3   12 1   
     8    4    6 ar  
     9    5    6 ar  
    10    5    9 1   
    11    6    7 1   
    12    7    8 1   
    13    7   28 1   
    14    7   29 1   
    15    8    9 1   
    16    8   10 1   
    17    9   26 2   
    18   10   11 1   
    19   10   30 1   
    20   10   31 1   
    21   11   23 1   
    22   11   25 2   
    23   12   32 1   
    24   12   33 1   
    25   12   34 1   
    26   13   16 ar  
    27   13   20 ar  
    28   14   15 1   
    29   14   35 1   
    30   14   36 1   
    31   15   37 1   
    32   15   38 1   
    33   15   48 1   
    34   16   17 ar  
    35   16   39 1   
    36   17   18 ar  
    37   17   40 1   
    38   18   19 ar  
    39   18   22 1   
    40   19   20 ar  
    41   19   41 1   
    42   20   21 1   
    43   23   24 1   
    44   23   27 1   
    45   23   49 1   
    46   24   42 1   
    47   24   43 1   
    48   24   44 1   
    49   27   45 1   
    50   27   46 1   
    51   27   47 1   
@<TRIPOS>SUBSTRUCTURE
     1 1MD         1 TEMP              0 ****  ****    0 ROOT
