@<TRIPOS>MOLECULE
1MD
   49    51     1     0     0
SMALL
bcc


@<TRIPOS>ATOM
      1 C1         -0.1210    0.1440    0.1870 cp        1 1MD      0.139000
      2 C2          1.2850    0.0400    0.0180 ca        1 1MD     -0.311600
      3 C3          2.1330   -0.0860    1.1480 ca        1 1MD      0.511600
      4 N4          1.6570   -0.1060    2.4280 nb        1 1MD     -0.624000
      5 C4         -0.5980    0.1200    1.4910 ca        1 1MD     -0.281900
      6 C6          0.3360   -0.0100    2.5730 ca        1 1MD      0.469600
      7 C5         -0.4310   -0.0190    3.8890 c3        1 1MD      0.021700
      8 N1         -1.8320    0.1420    3.4840 n         1 1MD     -0.495800
      9 C9         -1.9630    0.1890    2.0710 c         1 1MD      0.737100
     10 C10        -2.8880   -0.2860    4.3380 c3        1 1MD      0.044000
     11 C7         -3.8060    0.8650    4.7750 c         1 1MD      0.516100
     12 C13         3.6120   -0.2310    0.9710 c3        1 1MD     -0.179400
     13 C14        -1.0190    0.2410   -0.9680 cp        1 1MD     -0.115000
     14 C15         1.8520   -0.0070   -1.3600 c3        1 1MD      0.172100
     15 N16         2.1730    1.3580   -1.8810 nz        1 1MD     -0.860600
     16 C17        -1.6940   -0.9040   -1.4120 ca        1 1MD     -0.080000
     17 C18        -2.5830   -0.8380   -2.4830 ca        1 1MD     -0.104000
     18 C19        -2.8170    0.3860   -3.1230 ca        1 1MD      0.044400
     19 C20        -2.1490    1.5420   -2.6950 ca        1 1MD     -0.109000
     20 C21        -1.2500    1.4570   -1.6330 ca        1 1MD      0.001400
     21 Cl1        -0.4340    2.8800   -1.1430 cl        1 1MD     -0.085400
     22 Cl2        -3.9030    0.4770   -4.4080 cl        1 1MD     -0.001400
     23 N2         -4.7800    1.3750    3.7340 nx        1 1MD     -0.595200
     24 C25        -6.1190    0.7670    3.9670 c3        1 1MD      0.084600
     25 O2         -3.8380    1.3630    5.8860 o         1 1MD     -0.382100
     26 O1         -3.0660    0.3130    1.5190 o         1 1MD     -0.620500
     27 C8         -4.8630    2.8590    3.7660 c3        1 1MD      0.084600
     28 H1         -0.1210    0.8450    4.5420 h1        1 1MD      0.114200
     29 H2         -0.2610   -0.9840    4.4440 h1        1 1MD      0.114200
     30 H3         -2.4670   -0.7230    5.2950 h1        1 1MD      0.117200
     31 H4         -3.5330   -1.0670    3.8320 h1        1 1MD      0.117200
     32 H5          3.9960    0.5360    0.2570 hc        1 1MD      0.081033
     33 H6          3.8390   -1.2550    0.5760 hc        1 1MD      0.081033
     34 H7          4.1670   -0.1110    1.9390 hc        1 1MD      0.081033
     35 H8          2.8000   -0.6240   -1.3890 hx        1 1MD      0.122700
     36 H9          1.1050   -0.4730   -2.0720 hx        1 1MD      0.122700
     37 H10         2.4350    1.3020   -2.8700 hn        1 1MD      0.463800
     38 H11         1.3390    1.9790   -1.7760 hn        1 1MD      0.463800
     39 H13        -1.5290   -1.8690   -0.9040 ha        1 1MD      0.161000
     40 H14        -3.1070   -1.7500   -2.8190 ha        1 1MD      0.183000
     41 H15        -2.3400    2.5090   -3.1930 ha        1 1MD      0.187000
     42 H16        -6.4900    1.0580    4.9870 hx        1 1MD      0.110200
     43 H17        -6.0360   -0.3500    3.8950 hx        1 1MD      0.110200
     44 H18        -6.8360    1.1410    3.1870 hx        1 1MD      0.110200
     45 H19        -5.1830    3.1960    4.7900 hx        1 1MD      0.110200
     46 H20        -3.8540    3.2890    3.5300 hx        1 1MD      0.110200
     47 H21        -5.6120    3.2040    3.0040 hx        1 1MD      0.110200
     48 H163        2.9510    1.7660   -1.3540 hn        1 1MD      0.463800
     49 H211       -4.4440    1.0820    2.7980 hn        1 1MD      0.483800
@<TRIPOS>BOND
     1    1    2 ar  
     2    1    5 ar  
     3    1   13 1   
     4    2    3 ar  
     5    2   14 1   
     6    3    4 ar  
     7    3   12 1   
     8    4    6 ar  
     9    5    6 ar  
    10    5    9 1   
    11    6    7 1   
    12    7    8 1   
    13    7   28 1   
    14    7   29 1   
    15    8    9 1   
    16    8   10 1   
    17    9   26 2   
    18   10   11 1   
    19   10   30 1   
    20   10   31 1   
    21   11   23 1   
    22   11   25 2   
    23   12   32 1   
    24   12   33 1   
    25   12   34 1   
    26   13   16 ar  
    27   13   20 ar  
    28   14   15 1   
    29   14   35 1   
    30   14   36 1   
    31   15   37 1   
    32   15   38 1   
    33   15   48 1   
    34   16   17 ar  
    35   16   39 1   
    36   17   18 ar  
    37   17   40 1   
    38   18   19 ar  
    39   18   22 1   
    40   19   20 ar  
    41   19   41 1   
    42   20   21 1   
    43   23   24 1   
    44   23   27 1   
    45   23   49 1   
    46   24   42 1   
    47   24   43 1   
    48   24   44 1   
    49   27   45 1   
    50   27   46 1   
    51   27   47 1   
@<TRIPOS>SUBSTRUCTURE
     1 1MD         1 TEMP              0 ****  ****    0 ROOT
