@<TRIPOS>MOLECULE
1ME
   19    18     1     0     0
SMALL
bcc


@<TRIPOS>ATOM
      1 CAN         3.0790    0.1820    0.9040 c3        1 1ME     -0.024000
      2 SAM         2.0240   -0.3300   -0.4010 ss        1 1ME     -0.391200
      3 CAK         0.4370    0.3780    0.1040 c3        1 1ME      0.038400
      4 CAO         0.3720    1.8210   -0.3150 c3        1 1ME     -0.092100
      5 CAJ        -0.7270   -0.4210   -0.5040 c3        1 1ME      0.038500
      6 CAP        -2.0270    0.1040    0.2220 c         1 1ME      0.917600
      7 OAR        -2.6700    1.0260   -0.3460 o         1 1ME     -0.831800
      8 OAQ        -2.3190   -0.4140    1.3350 o         1 1ME     -0.831800
      9 NAI        -0.6200   -1.8630   -0.4320 n3        1 1ME     -0.901800
     10 HAN1        2.7400   -0.2180    1.8850 h1        1 1ME      0.047033
     11 HAN2        4.0920   -0.2160    0.6750 h1        1 1ME      0.047033
     12 HAN3        3.1290    1.2920    0.9780 h1        1 1ME      0.047033
     13 HAK         0.3800    0.2950    1.2210 h1        1 1ME      0.069700
     14 HAO1        1.1090    2.4330    0.2600 hc        1 1ME      0.042700
     15 HAO2        0.5950    1.9260   -1.4040 hc        1 1ME      0.042700
     16 HAO3       -0.6620    2.2160   -0.1300 hc        1 1ME      0.042700
     17 HAJ        -0.8040   -0.1510   -1.5960 h1        1 1ME      0.056700
     18 HAI         0.3400   -2.1410   -0.3290 hn        1 1ME      0.341800
     19 H2         -1.1310   -2.1920    0.3690 hn        1 1ME      0.341800
@<TRIPOS>BOND
     1    1    2 1   
     2    1   10 1   
     3    1   11 1   
     4    1   12 1   
     5    2    3 1   
     6    3    4 1   
     7    3    5 1   
     8    3   13 1   
     9    4   14 1   
    10    4   15 1   
    11    4   16 1   
    12    5    6 1   
    13    5    9 1   
    14    5   17 1   
    15    6    7 1   
    16    6    8 1   
    17    9   18 1   
    18    9   19 1   
@<TRIPOS>SUBSTRUCTURE
     1 1ME         1 TEMP              0 ****  ****    0 ROOT
