@<TRIPOS>MOLECULE
1ME
   19    18     1     0     0
SMALL
bcc


@<TRIPOS>ATOM
      1 CAN        -2.3440   -0.5560   -1.4840 c3        1 1ME     -0.024000
      2 SAM        -0.5970   -0.2580   -1.4210 ss        1 1ME     -0.391200
      3 CAK        -0.0430   -0.3490    0.2610 c3        1 1ME      0.038400
      4 CAO         0.4710   -1.7440    0.5480 c3        1 1ME     -0.092100
      5 CAJ         1.0680    0.6520    0.4800 c3        1 1ME      0.038500
      6 CAP         0.5980    1.7260    1.4330 c         1 1ME      0.917600
      7 OAR         1.0990    1.8100    2.5850 o         1 1ME     -0.831800
      8 OAQ        -0.2960    2.5380    1.0760 o         1 1ME     -0.831800
      9 NAI         1.4250    1.2450   -0.7630 n3        1 1ME     -0.901800
     10 HAN1       -2.6590   -0.4610   -2.4080 h1        1 1ME      0.047033
     11 HAN2       -2.5320   -1.4640   -1.1670 h1        1 1ME      0.047033
     12 HAN3       -2.8070    0.0920   -0.9130 h1        1 1ME      0.047033
     13 HAK        -0.7860   -0.1470    0.8600 h1        1 1ME      0.069700
     14 HAO1       -0.2690   -2.3830    0.4880 hc        1 1ME      0.042700
     15 HAO2        1.1600   -1.9790   -0.1080 hc        1 1ME      0.042700
     16 HAO3        0.8540   -1.7710    1.4490 hc        1 1ME      0.042700
     17 HAJ         1.8460    0.1980    0.8600 h1        1 1ME      0.056700
     18 HAI         2.0900    0.7530   -1.1560 hn        1 1ME      0.341800
     19 H2          1.7210    2.0990   -0.6200 hn        1 1ME      0.341800
@<TRIPOS>BOND
     1    1    2 1   
     2    1   10 1   
     3    1   11 1   
     4    1   12 1   
     5    2    3 1   
     6    3    4 1   
     7    3    5 1   
     8    3   13 1   
     9    4   14 1   
    10    4   15 1   
    11    4   16 1   
    12    5    6 1   
    13    5    9 1   
    14    5   17 1   
    15    6    7 1   
    16    6    8 1   
    17    9   18 1   
    18    9   19 1   
@<TRIPOS>SUBSTRUCTURE
     1 1ME         1 TEMP              0 ****  ****    0 ROOT
