@<TRIPOS>MOLECULE
1MF
   85    89     1     0     0
SMALL
bcc


@<TRIPOS>ATOM
      1 OAD        -0.0050   -3.2800   -1.4880 o         1 1MF     -0.809800
      2 CBK         1.1720   -2.8910   -1.2600 c         1 1MF      0.907200
      3 OAB         1.8380   -3.1410   -0.2200 o         1 1MF     -0.809800
      4 CBP         1.8500   -2.0460   -2.3390 ca        1 1MF     -0.088600
      5 CAU         3.1500   -1.5640   -2.1500 ca        1 1MF     -0.107000
      6 CAM         3.7700   -0.8020   -3.1350 ca        1 1MF     -0.133000
      7 CAT         1.1740   -1.7510   -3.5290 ca        1 1MF     -0.107000
      8 CAL         1.7860   -0.9870   -4.5170 ca        1 1MF     -0.133000
      9 CBM         3.0900   -0.5120   -4.3250 ca        1 1MF     -0.208300
     10 CBG         3.7680    0.2620   -5.3970 c3        1 1MF      0.176100
     11 NBU         3.8340    1.7360   -5.0980 n4        1 1MF     -0.679400
     12 CBD         2.4630    2.3450   -5.1360 c3        1 1MF      0.117800
     13 CBA         2.3820    3.7210   -4.4850 c3        1 1MF     -0.107400
     14 CAZ         2.2050    4.8270   -5.5080 c3        1 1MF     -0.058400
     15 CBB         2.6350    6.1610   -4.9440 c3        1 1MF     -0.194400
     16 CBJ         4.1460    6.2690   -4.7290 c         1 1MF      0.915600
     17 OAC         4.9030    5.2880   -5.0240 o         1 1MF     -0.861800
     18 OAA         4.6030    7.3480   -4.2600 o         1 1MF     -0.861800
     19 CBE         4.7670    2.4330   -6.0380 c3        1 1MF      0.070800
     20 CBC         6.2440    2.1470   -5.7670 c3        1 1MF     -0.056100
     21 CBS         6.9790    1.6810   -6.9730 ca        1 1MF     -0.104300
     22 CAP         6.4830    0.6680   -7.7990 ca        1 1MF     -0.116000
     23 CAH         7.1960    0.2330   -8.9140 ca        1 1MF     -0.156000
     24 CAI         8.4320    0.8020   -9.2190 ca        1 1MF     -0.100000
     25 CAQ         8.9610    1.8020   -8.4070 ca        1 1MF     -0.188000
     26 CBT         8.2400    2.2370   -7.2870 ca        1 1MF      0.137100
     27 OBH         8.7420    3.1600   -6.3940 os        1 1MF     -0.326900
     28 CBF         9.5420    4.2130   -6.9660 c3        1 1MF      0.183700
     29 CBL         9.2320    5.4750   -6.2340 ca        1 1MF     -0.122300
     30 CAO        10.2660    6.3440   -5.8690 ca        1 1MF     -0.117000
     31 CAW         9.9780    7.5440   -5.2260 ca        1 1MF     -0.117000
     32 CBQ         8.6510    7.9020   -4.9350 cp        1 1MF     -0.040000
     33 CAV         7.6220    7.0170   -5.2860 ca        1 1MF     -0.117000
     34 CAN         7.9120    5.8140   -5.9270 ca        1 1MF     -0.117000
     35 CBR         8.3410    9.1670   -4.2700 cp        1 1MF     -0.036000
     36 CAY         7.1680    9.2990   -3.5060 ca        1 1MF     -0.104500
     37 CAS         6.8710   10.4990   -2.8650 ca        1 1MF     -0.148500
     38 CBO         7.7560   11.5770   -2.9880 ca        1 1MF      0.073100
     39 CAR         8.9200   11.4730   -3.7570 ca        1 1MF     -0.148500
     40 CAX         9.2020   10.2690   -4.3940 ca        1 1MF     -0.104500
     41 OBI         7.4900   12.7140   -2.2190 os        1 1MF     -0.253200
     42 CBN         7.3930   13.9160   -2.9030 ca        1 1MF      0.128100
     43 CAJ         7.1890   14.0180   -4.2850 ca        1 1MF     -0.171000
     44 CAF         7.0540   15.2810   -4.8580 ca        1 1MF     -0.105500
     45 CAE         7.1200   16.4280   -4.0670 ca        1 1MF     -0.169000
     46 CAG         7.3210   16.3150   -2.6900 ca        1 1MF     -0.105500
     47 CAK         7.4620   15.0650   -2.0960 ca        1 1MF     -0.171000
     48 H2          3.6630   -1.8100   -1.2040 ha        1 1MF      0.168500
     49 H3          4.7970   -0.4370   -2.9870 ha        1 1MF      0.110500
     50 H4          0.1500   -2.1430   -3.6550 ha        1 1MF      0.168500
     51 H5          1.2530   -0.7630   -5.4520 ha        1 1MF      0.110500
     52 H6          3.2340    0.1440   -6.3820 hx        1 1MF      0.082200
     53 H7          4.8320   -0.0950   -5.5160 hx        1 1MF      0.082200
     54 H9          2.1490    2.3960   -6.2150 hx        1 1MF      0.088200
     55 H10         1.7790    1.6250   -4.5960 hx        1 1MF      0.088200
     56 H11         3.3040    3.9500   -3.8790 hc        1 1MF      0.081200
     57 H12         1.5130    3.7200   -3.7760 hc        1 1MF      0.081200
     58 H13         1.1320    4.8700   -5.8320 hc        1 1MF      0.029200
     59 H14         2.8250    4.6100   -6.4180 hc        1 1MF      0.029200
     60 H15         2.1280    6.3500   -3.9640 hc        1 1MF      0.046700
     61 H16         2.3300    6.9790   -5.6470 hc        1 1MF      0.046700
     62 H18         4.4770    2.1390   -7.0830 hx        1 1MF      0.131700
     63 H19         4.5950    3.5580   -5.9120 hx        1 1MF      0.131700
     64 H20         6.3890    1.3860   -4.9510 hc        1 1MF      0.092200
     65 H21         6.7020    3.1100   -5.3890 hc        1 1MF      0.092200
     66 H22         5.5130    0.2030   -7.5660 ha        1 1MF      0.121000
     67 H23         6.7840   -0.5630   -9.5510 ha        1 1MF      0.132000
     68 H24         8.9950    0.4580  -10.0990 ha        1 1MF      0.131000
     69 H25         9.9420    2.2420   -8.6350 ha        1 1MF      0.139000
     70 H26        10.6160    3.9100   -6.8380 h1        1 1MF      0.044200
     71 H27         9.3140    4.3400   -8.0580 h1        1 1MF      0.044200
     72 H28        11.3110    6.0770   -6.0840 ha        1 1MF      0.140500
     73 H29        10.8050    8.2050   -4.9300 ha        1 1MF      0.170000
     74 H30         6.5570    7.2340   -5.0470 ha        1 1MF      0.170000
     75 H31         7.0780    5.1300   -6.1600 ha        1 1MF      0.140500
     76 H32         6.4510    8.4560   -3.4270 ha        1 1MF      0.165500
     77 H33         5.9550   10.6020   -2.2660 ha        1 1MF      0.144000
     78 H34         9.5940   12.3350   -3.8550 ha        1 1MF      0.144000
     79 H35        10.1100   10.1910   -5.0100 ha        1 1MF      0.165500
     80 H36         7.1350   13.1100   -4.9040 ha        1 1MF      0.151000
     81 H37         6.8910   15.3690   -5.9420 ha        1 1MF      0.127500
     82 H38         7.0110   17.4200   -4.5260 ha        1 1MF      0.126000
     83 H39         7.3700   17.2200   -2.0670 ha        1 1MF      0.127500
     84 H40         7.6170   14.9590   -1.0130 ha        1 1MF      0.151000
     85 HBU1        4.1980    1.8500   -4.1410 hn        1 1MF      0.449800
@<TRIPOS>BOND
     1    1    2 1   
     2    2    3 1   
     3    2    4 1   
     4    4    5 ar  
     5    4    7 ar  
     6    5    6 ar  
     7    5   48 1   
     8    6    9 ar  
     9    6   49 1   
    10    7    8 ar  
    11    7   50 1   
    12    8    9 ar  
    13    8   51 1   
    14    9   10 1   
    15   10   11 1   
    16   10   52 1   
    17   10   53 1   
    18   11   12 1   
    19   11   19 1   
    20   11   85 1   
    21   12   13 1   
    22   12   54 1   
    23   12   55 1   
    24   13   14 1   
    25   13   56 1   
    26   13   57 1   
    27   14   15 1   
    28   14   58 1   
    29   14   59 1   
    30   15   16 1   
    31   15   60 1   
    32   15   61 1   
    33   16   17 1   
    34   16   18 1   
    35   19   20 1   
    36   19   62 1   
    37   19   63 1   
    38   20   21 1   
    39   20   64 1   
    40   20   65 1   
    41   21   22 ar  
    42   21   26 ar  
    43   22   23 ar  
    44   22   66 1   
    45   23   24 ar  
    46   23   67 1   
    47   24   25 ar  
    48   24   68 1   
    49   25   26 ar  
    50   25   69 1   
    51   26   27 1   
    52   27   28 1   
    53   28   29 1   
    54   28   70 1   
    55   28   71 1   
    56   29   30 ar  
    57   29   34 ar  
    58   30   31 ar  
    59   30   72 1   
    60   31   32 ar  
    61   31   73 1   
    62   32   33 ar  
    63   32   35 1   
    64   33   34 ar  
    65   33   74 1   
    66   34   75 1   
    67   35   36 ar  
    68   35   40 ar  
    69   36   37 ar  
    70   36   76 1   
    71   37   38 ar  
    72   37   77 1   
    73   38   39 ar  
    74   38   41 1   
    75   39   40 ar  
    76   39   78 1   
    77   40   79 1   
    78   41   42 1   
    79   42   43 ar  
    80   42   47 ar  
    81   43   44 ar  
    82   43   80 1   
    83   44   45 ar  
    84   44   81 1   
    85   45   46 ar  
    86   45   82 1   
    87   46   47 ar  
    88   46   83 1   
    89   47   84 1   
@<TRIPOS>SUBSTRUCTURE
     1 1MF         1 TEMP              0 ****  ****    0 ROOT
