@<TRIPOS>MOLECULE
1MF
   85    89     1     0     0
SMALL
bcc


@<TRIPOS>ATOM
      1 OAD         0.1600   -2.4990   -0.6380 o         1 1MF     -0.811800
      2 CBK         1.3470   -2.0840   -0.5510 c         1 1MF      0.907200
      3 OAB         2.0340   -2.0500    0.5050 o         1 1MF     -0.811800
      4 CBP         2.0090   -1.5790   -1.8340 ca        1 1MF     -0.091600
      5 CAU         3.3280   -1.1090   -1.8090 ca        1 1MF     -0.108000
      6 CAM         3.9330   -0.6510   -2.9740 ca        1 1MF     -0.133500
      7 CAT         1.3040   -1.5850   -3.0420 ca        1 1MF     -0.108000
      8 CAL         1.9030   -1.1240   -4.2120 ca        1 1MF     -0.133500
      9 CBM         3.2220   -0.6580   -4.1820 ca        1 1MF     -0.204300
     10 CBG         3.8860   -0.1900   -5.4280 c3        1 1MF      0.180100
     11 NBU         3.9800    1.3130   -5.4850 nx        1 1MF     -0.673400
     12 CBD         2.6740    1.9030   -5.9290 c3        1 1MF      0.089800
     13 CBA         2.4030    3.2910   -5.3540 c3        1 1MF     -0.105400
     14 CAZ         1.3820    4.0120   -6.2190 c3        1 1MF     -0.050400
     15 CBB         2.0170    4.8650   -7.3000 c3        1 1MF     -0.190400
     16 CBJ         3.3230    4.2560   -7.8040 c         1 1MF      0.901600
     17 OAC         3.3000    3.2660   -8.5930 o         1 1MF     -0.862800
     18 OAA         4.4180    4.7170   -7.3480 o         1 1MF     -0.862800
     19 CBE         5.1040    1.7360   -6.3800 c3        1 1MF      0.071800
     20 CBC         6.4750    1.6320   -5.7110 c3        1 1MF     -0.054100
     21 CBS         7.5350    1.4870   -6.7440 ca        1 1MF     -0.092300
     22 CAP         7.7160    0.2620   -7.3990 ca        1 1MF     -0.117000
     23 CAH         8.7060    0.1100   -8.3660 ca        1 1MF     -0.139000
     24 CAI         9.5350    1.1840   -8.6950 ca        1 1MF     -0.115000
     25 CAQ         9.3780    2.4090   -8.0550 ca        1 1MF     -0.148000
     26 CBT         8.3840    2.5580   -7.0750 ca        1 1MF      0.127100
     27 OBH         8.3100    3.7410   -6.3570 os        1 1MF     -0.360900
     28 CBF         7.6120    4.7850   -7.0760 c3        1 1MF      0.152700
     29 CBL         7.6450    6.0110   -6.2270 ca        1 1MF     -0.080300
     30 CAO         8.8190    6.4170   -5.5850 ca        1 1MF     -0.111500
     31 CAW         8.8390    7.5910   -4.8370 ca        1 1MF     -0.130500
     32 CBQ         7.6830    8.3760   -4.7200 cp        1 1MF     -0.051000
     33 CAV         6.5060    7.9570   -5.3570 ca        1 1MF     -0.130500
     34 CAN         6.4820    6.7800   -6.1020 ca        1 1MF     -0.111500
     35 CBR         7.7050    9.6130   -3.9420 cp        1 1MF     -0.033000
     36 CAY         6.6190    9.9560   -3.1230 ca        1 1MF     -0.105500
     37 CAS         6.6270   11.1360   -2.3850 ca        1 1MF     -0.151000
     38 CBO         7.7450   11.9790   -2.4650 ca        1 1MF      0.087100
     39 CAR         8.8390   11.6540   -3.2740 ca        1 1MF     -0.151000
     40 CAX         8.8120   10.4720   -4.0080 ca        1 1MF     -0.105500
     41 OBI         7.7450   13.0830   -1.6130 os        1 1MF     -0.251200
     42 CBN         8.1810   14.2880   -2.1510 ca        1 1MF      0.116100
     43 CAJ         8.0890   14.6100   -3.5100 ca        1 1MF     -0.165000
     44 CAF         8.4820   15.8790   -3.9320 ca        1 1MF     -0.106500
     45 CAE         8.9560   16.8140   -3.0130 ca        1 1MF     -0.160000
     46 CAG         9.0420   16.4830   -1.6600 ca        1 1MF     -0.106500
     47 CAK         8.6610   15.2200   -1.2160 ca        1 1MF     -0.165000
     48 H2          3.8640   -1.1170   -0.8450 ha        1 1MF      0.167000
     49 H3          4.9730   -0.2940   -2.9540 ha        1 1MF      0.111000
     50 H4          0.2680   -1.9620   -3.0380 ha        1 1MF      0.167000
     51 H5          1.3440   -1.1330   -5.1590 ha        1 1MF      0.111000
     52 H6          4.9380   -0.5970   -5.4790 hx        1 1MF      0.083200
     53 H7          3.3290   -0.5310   -6.3460 hx        1 1MF      0.083200
     54 H9          2.6860    1.9550   -7.0640 hx        1 1MF      0.119700
     55 H10         1.8570    1.2010   -5.5940 hx        1 1MF      0.119700
     56 H11         2.0170    3.1880   -4.3070 hc        1 1MF      0.065200
     57 H12         3.3450    3.9060   -5.3180 hc        1 1MF      0.065200
     58 H13         0.6920    3.2620   -6.6900 hc        1 1MF      0.035200
     59 H14         0.7530    4.6650   -5.5580 hc        1 1MF      0.035200
     60 H15         1.3060    4.9730   -8.1580 hc        1 1MF      0.042700
     61 H16         2.2350    5.8860   -6.8940 hc        1 1MF      0.042700
     62 H18         4.9260    2.8140   -6.7120 hx        1 1MF      0.141700
     63 H19         5.0590    1.0990   -7.3090 hx        1 1MF      0.141700
     64 H20         6.5300    0.7560   -5.0080 hc        1 1MF      0.068700
     65 H21         6.6610    2.5620   -5.1060 hc        1 1MF      0.068700
     66 H22         7.0640   -0.5860   -7.1430 ha        1 1MF      0.127000
     67 H23         8.8330   -0.8570   -8.8730 ha        1 1MF      0.131000
     68 H24        10.3120    1.0630   -9.4630 ha        1 1MF      0.130000
     69 H25        10.0220    3.2650   -8.3030 ha        1 1MF      0.142000
     70 H26         6.5540    4.4510   -7.2800 h1        1 1MF      0.079700
     71 H27         8.1480    4.9700   -8.0460 h1        1 1MF      0.079700
     72 H28         9.7220    5.7930   -5.6640 ha        1 1MF      0.168000
     73 H29         9.7630    7.8990   -4.3270 ha        1 1MF      0.129000
     74 H30         5.5920    8.5630   -5.2700 ha        1 1MF      0.129000
     75 H31         5.5480    6.4390   -6.5910 ha        1 1MF      0.168000
     76 H32         5.7510    9.2820   -3.0610 ha        1 1MF      0.142000
     77 H33         5.7820   11.4070   -1.7370 ha        1 1MF      0.146000
     78 H34         9.7040   12.3310   -3.3260 ha        1 1MF      0.146000
     79 H35         9.6670   10.2100   -4.6500 ha        1 1MF      0.142000
     80 H36         7.7120   13.8680   -4.2300 ha        1 1MF      0.150500
     81 H37         8.4110   16.1410   -4.9980 ha        1 1MF      0.131500
     82 H38         9.2630   17.8130   -3.3540 ha        1 1MF      0.130000
     83 H39         9.4160   17.2220   -0.9360 ha        1 1MF      0.131500
     84 H40         8.7190   14.9440   -0.1530 ha        1 1MF      0.150500
     85 HBU1        4.1760    1.6500   -4.5350 hn        1 1MF      0.434800
@<TRIPOS>BOND
     1    1    2 1   
     2    2    3 1   
     3    2    4 1   
     4    4    5 ar  
     5    4    7 ar  
     6    5    6 ar  
     7    5   48 1   
     8    6    9 ar  
     9    6   49 1   
    10    7    8 ar  
    11    7   50 1   
    12    8    9 ar  
    13    8   51 1   
    14    9   10 1   
    15   10   11 1   
    16   10   52 1   
    17   10   53 1   
    18   11   12 1   
    19   11   19 1   
    20   11   85 1   
    21   12   13 1   
    22   12   54 1   
    23   12   55 1   
    24   13   14 1   
    25   13   56 1   
    26   13   57 1   
    27   14   15 1   
    28   14   58 1   
    29   14   59 1   
    30   15   16 1   
    31   15   60 1   
    32   15   61 1   
    33   16   17 1   
    34   16   18 1   
    35   19   20 1   
    36   19   62 1   
    37   19   63 1   
    38   20   21 1   
    39   20   64 1   
    40   20   65 1   
    41   21   22 ar  
    42   21   26 ar  
    43   22   23 ar  
    44   22   66 1   
    45   23   24 ar  
    46   23   67 1   
    47   24   25 ar  
    48   24   68 1   
    49   25   26 ar  
    50   25   69 1   
    51   26   27 1   
    52   27   28 1   
    53   28   29 1   
    54   28   70 1   
    55   28   71 1   
    56   29   30 ar  
    57   29   34 ar  
    58   30   31 ar  
    59   30   72 1   
    60   31   32 ar  
    61   31   73 1   
    62   32   33 ar  
    63   32   35 1   
    64   33   34 ar  
    65   33   74 1   
    66   34   75 1   
    67   35   36 ar  
    68   35   40 ar  
    69   36   37 ar  
    70   36   76 1   
    71   37   38 ar  
    72   37   77 1   
    73   38   39 ar  
    74   38   41 1   
    75   39   40 ar  
    76   39   78 1   
    77   40   79 1   
    78   41   42 1   
    79   42   43 ar  
    80   42   47 ar  
    81   43   44 ar  
    82   43   80 1   
    83   44   45 ar  
    84   44   81 1   
    85   45   46 ar  
    86   45   82 1   
    87   46   47 ar  
    88   46   83 1   
    89   47   84 1   
@<TRIPOS>SUBSTRUCTURE
     1 1MF         1 TEMP              0 ****  ****    0 ROOT
