@<TRIPOS>MOLECULE
1MF
   84    69     1     0     0
SMALL
bcc


@<TRIPOS>ATOM
      1 OAD        -2.6700   -3.1810    5.3930 o         1 1MF     -0.586000
      2 CBK        -1.9890   -2.3130    4.7850 c1        1 1MF      0.359000
      3 OAB        -1.1560   -1.6100    5.4190 o         1 1MF     -0.586000
      4 CBP        -2.0850   -2.1970    3.2720 c1        1 1MF     -0.112000
      5 CAU        -2.9530   -1.2790    2.7020 c2        1 1MF     -0.118000
      6 CAM        -3.0000   -1.1300    1.3200 c1        1 1MF     -0.136000
      7 CAT        -1.2610   -2.9690    2.4630 c1        1 1MF     -0.110000
      8 CAL        -1.3080   -2.8200    1.0790 c1        1 1MF     -0.126250
      9 CBM        -2.1770   -1.9010    0.5090 c1        1 1MF     -0.032750
     10 CBG        -2.0960   -1.6020   -1.0200 c2        1 1MF     -0.025000
     11 NBU        -3.3670   -1.8450   -1.6230 n3        1 1MF     -0.262000
     12 CBD        -3.5920   -3.2980   -1.7320 c3        1 1MF     -0.068000
     13 CBA        -2.5990   -3.9020   -2.7550 c3        1 1MF     -0.193000
     14 CAZ        -2.9550   -5.3860   -3.0070 c3        1 1MF     -0.141000
     15 CBB        -1.9400   -6.2770   -2.3190 c3        1 1MF     -0.219000
     16 CBJ        -2.2360   -7.7290   -2.6520 c1        1 1MF      0.326000
     17 OAC        -1.5110   -8.3460   -3.4760 o         1 1MF     -0.594000
     18 OAA        -3.2420   -8.2970   -2.1490 os        1 1MF     -0.591000
     19 CBE        -3.3950   -1.2410   -2.9660 c3        1 1MF     -0.052000
     20 CBC        -2.5740    0.1060   -2.9550 c3        1 1MF     -0.137000
     21 CBS        -1.6080    0.1300   -4.1630 c2        1 1MF     -0.052000
     22 CAP        -1.3730   -1.0290   -4.8820 c2        1 1MF     -0.113000
     23 CAH        -0.5030   -1.0110   -5.9670 c1        1 1MF     -0.151000
     24 CAI         0.1330    0.1750   -6.3320 c1        1 1MF     -0.135500
     25 CAQ        -0.1020    1.3390   -5.6120 c1        1 1MF     -0.135500
     26 CBT        -0.9690    1.3230   -4.5290 c1        1 1MF      0.070000
     27 OBH        -1.1300    2.4980   -3.7240 o         1 1MF     -0.217000
     28 CBF         0.0080    3.3880   -3.7480 c3        1 1MF      0.027000
     29 CBL         0.5870    3.5250   -2.3150 c1        1 1MF     -0.132000
     30 CAO         1.2100    2.4370   -1.7120 c1        1 1MF     -0.135500
     31 CAW         1.6930    2.5450   -0.4050 c1        1 1MF     -0.135500
     32 CBQ         1.5520    3.7430    0.2940 c1        1 1MF     -0.032750
     33 CAV         0.9290    4.8300   -0.3110 c1        1 1MF     -0.126250
     34 CAN         0.4460    4.7220   -1.6170 c1        1 1MF     -0.134000
     35 CBR         1.9740    3.8230    1.7970 c1        1 1MF     -0.032750
     36 CAY         2.9130    4.7680    2.2070 c1        1 1MF     -0.135500
     37 CAS         3.3360    4.8000    3.5360 c1        1 1MF     -0.135500
     38 CBO         2.8200    3.8910    4.4520 c1        1 1MF     -0.032750
     39 CAR         1.8810    2.9480    4.0440 c1        1 1MF     -0.126250
     40 CAX         1.4570    2.9140    2.7140 c1        1 1MF     -0.126250
     41 OBI         3.2110    3.9590    5.8170 o         1 1MF     -0.181000
     42 CBN         4.3820    3.1700    6.0150 c1        1 1MF      0.066000
     43 CAJ         5.6310    3.6960    5.6980 c1        1 1MF     -0.135500
     44 CAF         6.7870    3.0080    6.0490 c1        1 1MF     -0.135500
     45 CAE         6.6980    1.7920    6.7170 c1        1 1MF     -0.135500
     46 CAG         5.4510    1.2640    7.0350 c1        1 1MF     -0.135500
     47 CAK         4.2920    1.9540    6.6840 c1        1 1MF     -0.161000
     48 H2         -3.5350   -0.7340    3.2730 ha        1 1MF      0.142000
     49 H3         -3.6130   -0.4820    0.9200 ha        1 1MF      0.128000
     50 H4         -0.6040   -3.5680    2.8670 ha        1 1MF      0.142000
     51 H5         -0.7320   -3.3600    0.5130 ha        1 1MF      0.146000
     52 H6         -1.8470   -0.6670   -1.1550 h4        1 1MF      0.070500
     53 H7         -1.4230   -2.1820   -1.4310 h4        1 1MF      0.070500
     54 H9         -4.5080   -3.4640   -2.0330 h1        1 1MF      0.085500
     55 H10        -3.4550   -3.7160   -0.8580 h1        1 1MF      0.085500
     56 H11        -2.6560   -3.4070   -3.5950 hc        1 1MF      0.068500
     57 H12        -1.6880   -3.8400   -2.4010 hc        1 1MF      0.068500
     58 H13        -3.8470   -5.5710   -2.6500 hc        1 1MF      0.082500
     59 H14        -2.9460   -5.5650   -3.9720 hc        1 1MF      0.082500
     60 H15        -1.9950   -6.1470   -1.3530 hc        1 1MF      0.058500
     61 H16        -1.0420   -6.0490   -2.6280 hc        1 1MF      0.058500
     62 H18        -4.3260   -1.0550   -3.2220 h1        1 1MF      0.065500
     63 H19        -3.0000   -1.8570   -3.6070 h1        1 1MF      0.065500
     64 H20        -3.1920    0.8670   -3.0150 hc        1 1MF      0.117000
     65 H21        -2.0630    0.1690   -2.1300 hc        1 1MF      0.117000
     66 H22        -1.8170   -1.8580   -4.6280 ha        1 1MF      0.138000
     67 H23        -0.3380   -1.8290   -6.4740 ha        1 1MF      0.121000
     68 H24         0.7110    0.1960   -7.1200 ha        1 1MF      0.136000
     69 H25         0.3450    2.1720   -5.8680 ha        1 1MF      0.136000
     70 H26         0.6970    3.0220   -4.3460 h1        1 1MF      0.086500
     71 H27        -0.2730    4.2730   -4.0760 h1        1 1MF      0.086500
     72 H28         1.3590    1.6140   -2.2220 ha        1 1MF      0.136000
     73 H29         2.0970    1.7680    0.0330 ha        1 1MF      0.136000
     74 H30         0.8130    5.6670    0.1870 ha        1 1MF      0.146000
     75 H31         0.0290    5.4970   -2.0510 ha        1 1MF      0.112000
     76 H32         3.3160    5.3680    1.5530 ha        1 1MF      0.136000
     77 H33         3.9950    5.4630    3.8220 ha        1 1MF      0.136000
     78 H34         1.5180    2.3090    4.6890 ha        1 1MF      0.146000
     79 H35         0.7440    2.3070    2.4470 ha        1 1MF      0.146000
     80 H36         5.6960    4.5520    5.2350 ha        1 1MF      0.136000
     81 H37         7.6630    3.3790    5.8250 ha        1 1MF      0.136000
     82 H38         7.5090    1.3510    7.0340 ha        1 1MF      0.136000
     83 H39         5.3890    0.4120    7.5040 ha        1 1MF      0.136000
     84 H40         3.4200    1.5850    6.9060 ha        1 1MF      0.218000
@<TRIPOS>BOND
     1    1    2 1   
     2    2    3 1   
     3    4    5 1   
     4    4    7 1   
     5    5    6 1   
     6    5   48 1   
     7    6   49 1   
     8    7   50 1   
     9    8    9 1   
    10    8   51 1   
    11   10   11 1   
    12   10   52 1   
    13   10   53 1   
    14   11   12 1   
    15   11   19 1   
    16   12   13 1   
    17   12   54 1   
    18   12   55 1   
    19   13   14 1   
    20   13   56 1   
    21   13   57 1   
    22   14   15 1   
    23   14   58 1   
    24   14   59 1   
    25   15   16 1   
    26   15   60 1   
    27   15   61 1   
    28   16   17 1   
    29   19   20 1   
    30   19   62 1   
    31   19   63 1   
    32   20   21 1   
    33   20   64 1   
    34   20   65 1   
    35   21   22 1   
    36   21   26 1   
    37   22   23 1   
    38   22   66 1   
    39   23   67 1   
    40   24   25 1   
    41   24   68 1   
    42   25   69 1   
    43   27   28 1   
    44   28   29 1   
    45   28   70 1   
    46   28   71 1   
    47   29   34 1   
    48   30   31 1   
    49   30   72 1   
    50   31   73 1   
    51   32   33 1   
    52   33   74 1   
    53   34   75 1   
    54   35   40 1   
    55   36   37 1   
    56   36   76 1   
    57   37   77 1   
    58   38   39 1   
    59   39   78 1   
    60   40   79 1   
    61   41   42 1   
    62   42   47 1   
    63   43   44 1   
    64   43   80 1   
    65   44   81 1   
    66   45   46 1   
    67   45   82 1   
    68   46   83 1   
    69   47   84 1   
@<TRIPOS>SUBSTRUCTURE
     1 1MF         1 TEMP              0 ****  ****    0 ROOT
