@<TRIPOS>MOLECULE
1MF
   84    88     1     0     0
SMALL
bcc


@<TRIPOS>ATOM
      1 OAD        10.0680   -2.9900   -2.7220 o         1 1MF     -0.841800
      2 CBK         9.5790   -3.0380   -1.5550 c         1 1MF      0.906200
      3 OAB        10.1100   -3.6810   -0.6030 o         1 1MF     -0.841800
      4 CBP         8.2950   -2.2750   -1.2820 ca        1 1MF     -0.124600
      5 CAU         7.7060   -2.2980   -0.0150 ca        1 1MF     -0.115500
      6 CAM         6.5480   -1.5670    0.2470 ca        1 1MF     -0.150000
      7 CAT         7.6880   -1.5240   -2.2950 ca        1 1MF     -0.115500
      8 CAL         6.5290   -0.7950   -2.0400 ca        1 1MF     -0.150000
      9 CBM         5.9560   -0.8000   -0.7620 ca        1 1MF     -0.109300
     10 CBG         4.7850    0.0940   -0.4790 c3        1 1MF      0.216100
     11 NBU         3.6930   -0.5190    0.2730 n3        1 1MF     -0.728600
     12 CBD         2.9810   -1.5000   -0.5420 c3        1 1MF      0.166800
     13 CBA         1.9180   -2.3290    0.1800 c3        1 1MF     -0.082400
     14 CAZ         0.5100   -1.8480   -0.1050 c3        1 1MF     -0.068400
     15 CBB        -0.5280   -2.6990    0.5920 c3        1 1MF     -0.178400
     16 CBJ        -1.8970   -2.0240    0.5430 c         1 1MF      0.897600
     17 OAC        -2.5160   -1.9230   -0.5580 o         1 1MF     -0.864800
     18 OAA        -2.3890   -1.5630    1.6210 o         1 1MF     -0.864800
     19 CBE         2.8090    0.4710    0.8740 c3        1 1MF      0.168800
     20 CBC         3.4360    1.2960    2.0070 c3        1 1MF     -0.034100
     21 CBS         3.8740    2.6530    1.5840 ca        1 1MF     -0.085300
     22 CAP         5.2270    2.9980    1.5750 ca        1 1MF     -0.101000
     23 CAH         5.6460    4.2720    1.1880 ca        1 1MF     -0.164000
     24 CAI         4.7080    5.2270    0.8060 ca        1 1MF     -0.114000
     25 CAQ         3.3480    4.9190    0.8170 ca        1 1MF     -0.209000
     26 CBT         2.9320    3.6410    1.2090 ca        1 1MF      0.126100
     27 OBH         1.6050    3.2650    1.3080 os        1 1MF     -0.318900
     28 CBF         0.6730    4.1060    0.6130 c3        1 1MF      0.180700
     29 CBL        -0.6620    3.4390    0.6080 ca        1 1MF     -0.105300
     30 CAO        -1.7590    4.1730    0.1380 ca        1 1MF     -0.128500
     31 CAW        -3.0220    3.5950    0.0960 ca        1 1MF     -0.116000
     32 CBQ        -3.2210    2.2750    0.5360 cp        1 1MF     -0.034000
     33 CAV        -2.1190    1.5440    1.0020 ca        1 1MF     -0.116000
     34 CAN        -0.8500    2.1220    1.0300 ca        1 1MF     -0.128500
     35 CBR        -4.5540    1.6730    0.4960 cp        1 1MF     -0.039000
     36 CAY        -4.7090    0.2870    0.3240 ca        1 1MF     -0.100000
     37 CAS        -5.9840   -0.2730    0.2660 ca        1 1MF     -0.150000
     38 CBO        -7.1060    0.5540    0.3780 ca        1 1MF      0.058100
     39 CAR        -6.9720    1.9350    0.5630 ca        1 1MF     -0.150000
     40 CAX        -5.6940    2.4810    0.6300 ca        1 1MF     -0.100000
     41 OBI        -8.4020    0.0280    0.4430 os        1 1MF     -0.258200
     42 CBN        -8.8950   -0.5610   -0.7090 ca        1 1MF      0.139100
     43 CAJ        -8.1930   -0.6590   -1.9180 ca        1 1MF     -0.176000
     44 CAF        -8.8060   -1.2680   -3.0100 ca        1 1MF     -0.104000
     45 CAE       -10.1020   -1.7730   -2.9070 ca        1 1MF     -0.179000
     46 CAG       -10.7930   -1.6730   -1.6990 ca        1 1MF     -0.104000
     47 CAK       -10.2020   -1.0700   -0.5940 ca        1 1MF     -0.176000
     48 H2          8.1850   -2.9020    0.7720 ha        1 1MF      0.144500
     49 H3          6.0940   -1.5910    1.2480 ha        1 1MF      0.112500
     50 H4          8.1520   -1.5240   -3.2930 ha        1 1MF      0.144500
     51 H5          6.0640   -0.2080   -2.8450 ha        1 1MF      0.112500
     52 H6          5.1750    0.9620    0.1320 h1        1 1MF      0.025700
     53 H7          4.4070    0.5240   -1.4560 h1        1 1MF      0.025700
     54 H9          2.5000   -1.0060   -1.4390 h1        1 1MF      0.033700
     55 H10         3.7730   -2.2030   -0.9310 h1        1 1MF      0.033700
     56 H11         2.0140   -3.3900   -0.1760 hc        1 1MF      0.039700
     57 H12         2.0990   -2.3440    1.2860 hc        1 1MF      0.039700
     58 H13         0.3950   -0.7810    0.2260 hc        1 1MF      0.038700
     59 H14         0.3140   -1.8650   -1.2100 hc        1 1MF      0.038700
     60 H15        -0.5970   -3.7000    0.0950 hc        1 1MF      0.027700
     61 H16        -0.2400   -2.8610    1.6610 hc        1 1MF      0.027700
     62 H18         2.3810    1.1810    0.1060 h1        1 1MF      0.043700
     63 H19         1.9420   -0.0910    1.3270 h1        1 1MF      0.043700
     64 H20         2.6460    1.4210    2.7990 hc        1 1MF      0.058200
     65 H21         4.2950    0.7420    2.4700 hc        1 1MF      0.058200
     66 H22         5.9760    2.2450    1.8670 ha        1 1MF      0.145000
     67 H23         6.7180    4.5140    1.1770 ha        1 1MF      0.126000
     68 H24         5.0350    6.2280    0.4920 ha        1 1MF      0.117000
     69 H25         2.6170    5.6830    0.5180 ha        1 1MF      0.127000
     70 H26         0.6120    5.0940    1.1470 h1        1 1MF      0.037200
     71 H27         1.0290    4.2710   -0.4400 h1        1 1MF      0.037200
     72 H28        -1.6180    5.2070   -0.2060 ha        1 1MF      0.132500
     73 H29        -3.8670    4.1760   -0.3010 ha        1 1MF      0.169500
     74 H30        -2.2450    0.4870    1.3350 ha        1 1MF      0.169500
     75 H31         0.0120    1.5280    1.3790 ha        1 1MF      0.132500
     76 H32        -3.8220   -0.3950    0.2440 ha        1 1MF      0.184000
     77 H33        -6.1000   -1.3600    0.1360 ha        1 1MF      0.141500
     78 H34        -7.8640    2.5660    0.6680 ha        1 1MF      0.141500
     79 H35        -5.5850    3.5620    0.8010 ha        1 1MF      0.184000
     80 H36        -7.1650   -0.2710   -1.9950 ha        1 1MF      0.152000
     81 H37        -8.2550   -1.3550   -3.9590 ha        1 1MF      0.124000
     82 H38       -10.5760   -2.2540   -3.7730 ha        1 1MF      0.119000
     83 H39       -11.8130   -2.0750   -1.6160 ha        1 1MF      0.124000
     84 H40       -10.7310   -0.9890    0.3650 ha        1 1MF      0.152000
@<TRIPOS>BOND
     1    1    2 1   
     2    2    3 1   
     3    2    4 1   
     4    4    5 ar  
     5    4    7 ar  
     6    5    6 ar  
     7    5   48 1   
     8    6    9 ar  
     9    6   49 1   
    10    7    8 ar  
    11    7   50 1   
    12    8    9 ar  
    13    8   51 1   
    14    9   10 1   
    15   10   11 1   
    16   10   52 1   
    17   10   53 1   
    18   11   12 1   
    19   11   19 1   
    20   12   13 1   
    21   12   54 1   
    22   12   55 1   
    23   13   14 1   
    24   13   56 1   
    25   13   57 1   
    26   14   15 1   
    27   14   58 1   
    28   14   59 1   
    29   15   16 1   
    30   15   60 1   
    31   15   61 1   
    32   16   17 1   
    33   16   18 1   
    34   19   20 1   
    35   19   62 1   
    36   19   63 1   
    37   20   21 1   
    38   20   64 1   
    39   20   65 1   
    40   21   22 ar  
    41   21   26 ar  
    42   22   23 ar  
    43   22   66 1   
    44   23   24 ar  
    45   23   67 1   
    46   24   25 ar  
    47   24   68 1   
    48   25   26 ar  
    49   25   69 1   
    50   26   27 1   
    51   27   28 1   
    52   28   29 1   
    53   28   70 1   
    54   28   71 1   
    55   29   30 ar  
    56   29   34 ar  
    57   30   31 ar  
    58   30   72 1   
    59   31   32 ar  
    60   31   73 1   
    61   32   33 ar  
    62   32   35 1   
    63   33   34 ar  
    64   33   74 1   
    65   34   75 1   
    66   35   36 ar  
    67   35   40 ar  
    68   36   37 ar  
    69   36   76 1   
    70   37   38 ar  
    71   37   77 1   
    72   38   39 ar  
    73   38   41 1   
    74   39   40 ar  
    75   39   78 1   
    76   40   79 1   
    77   41   42 1   
    78   42   43 ar  
    79   42   47 ar  
    80   43   44 ar  
    81   43   80 1   
    82   44   45 ar  
    83   44   81 1   
    84   45   46 ar  
    85   45   82 1   
    86   46   47 ar  
    87   46   83 1   
    88   47   84 1   
@<TRIPOS>SUBSTRUCTURE
     1 1MF         1 TEMP              0 ****  ****    0 ROOT
