@<TRIPOS>MOLECULE
1MF
   85    89     1     0     0
SMALL
bcc


@<TRIPOS>ATOM
      1 OAD         0.0450   -3.2980   -1.4490 o         1 1MF     -0.809800
      2 CBK         1.2230   -2.9070   -1.2310 c         1 1MF      0.907200
      3 OAB         1.9000   -3.1580   -0.1980 o         1 1MF     -0.809800
      4 CBP         1.8890   -2.0580   -2.3150 ca        1 1MF     -0.088600
      5 CAU         3.1900   -1.5740   -2.1380 ca        1 1MF     -0.107000
      6 CAM         3.7990   -0.8100   -3.1280 ca        1 1MF     -0.133000
      7 CAT         1.2010   -1.7620   -3.4980 ca        1 1MF     -0.107000
      8 CAL         1.8020   -0.9950   -4.4900 ca        1 1MF     -0.133000
      9 CBM         3.1070   -0.5180   -4.3110 ca        1 1MF     -0.208300
     10 CBG         3.7730    0.2600   -5.3880 c3        1 1MF      0.176100
     11 NBU         3.8380    1.7330   -5.0860 n4        1 1MF     -0.679400
     12 CBD         2.4670    2.3390   -5.1100 c3        1 1MF      0.117800
     13 CBA         2.3890    3.7150   -4.4570 c3        1 1MF     -0.107400
     14 CAZ         2.2000    4.8210   -5.4770 c3        1 1MF     -0.058400
     15 CBB         2.6320    6.1560   -4.9160 c3        1 1MF     -0.194400
     16 CBJ         4.1440    6.2660   -4.7150 c         1 1MF      0.915600
     17 OAC         4.9010    5.2880   -5.0180 o         1 1MF     -0.861800
     18 OAA         4.6040    7.3460   -4.2480 o         1 1MF     -0.861800
     19 CBE         4.7620    2.4330   -6.0330 c3        1 1MF      0.070800
     20 CBC         6.2410    2.1490   -5.7760 c3        1 1MF     -0.056100
     21 CBS         6.9670    1.6870   -6.9890 ca        1 1MF     -0.104300
     22 CAP         6.4660    0.6750   -7.8120 ca        1 1MF     -0.116000
     23 CAH         7.1700    0.2430   -8.9350 ca        1 1MF     -0.156000
     24 CAI         8.4020    0.8150   -9.2490 ca        1 1MF     -0.100000
     25 CAQ         8.9370    1.8130   -8.4390 ca        1 1MF     -0.188000
     26 CBT         8.2240    2.2460   -7.3120 ca        1 1MF      0.137100
     27 OBH         8.7330    3.1680   -6.4210 os        1 1MF     -0.326900
     28 CBF         9.5270    4.2230   -6.9980 c3        1 1MF      0.183700
     29 CBL         9.2200    5.4830   -6.2610 ca        1 1MF     -0.122300
     30 CAO        10.2560    6.3530   -5.9030 ca        1 1MF     -0.117000
     31 CAW         9.9710    7.5510   -5.2560 ca        1 1MF     -0.117000
     32 CBQ         8.6460    7.9070   -4.9540 cp        1 1MF     -0.040000
     33 CAV         7.6150    7.0210   -5.2990 ca        1 1MF     -0.117000
     34 CAN         7.9030    5.8200   -5.9440 ca        1 1MF     -0.117000
     35 CBR         8.3390    9.1700   -4.2850 cp        1 1MF     -0.036000
     36 CAY         7.1710    9.3000   -3.5120 ca        1 1MF     -0.104500
     37 CAS         6.8770   10.4990   -2.8680 ca        1 1MF     -0.148500
     38 CBO         7.7590   11.5780   -2.9950 ca        1 1MF      0.073100
     39 CAR         8.9180   11.4760   -3.7730 ca        1 1MF     -0.148500
     40 CAX         9.1970   10.2740   -4.4140 ca        1 1MF     -0.104500
     41 OBI         7.4980   12.7130   -2.2230 os        1 1MF     -0.253200
     42 CBN         7.3930   13.9160   -2.9050 ca        1 1MF      0.128100
     43 CAJ         7.1800   14.0200   -4.2850 ca        1 1MF     -0.171000
     44 CAF         7.0380   15.2830   -4.8550 ca        1 1MF     -0.105500
     45 CAE         7.1060   16.4290   -4.0630 ca        1 1MF     -0.169000
     46 CAG         7.3170   16.3150   -2.6880 ca        1 1MF     -0.105500
     47 CAK         7.4650   15.0640   -2.0960 ca        1 1MF     -0.171000
     48 H2          3.7130   -1.8210   -1.1980 ha        1 1MF      0.168500
     49 H3          4.8270   -0.4430   -2.9900 ha        1 1MF      0.110500
     50 H4          0.1770   -2.1560   -3.6150 ha        1 1MF      0.168500
     51 H5          1.2590   -0.7710   -5.4200 ha        1 1MF      0.110500
     52 H6          4.8370   -0.0950   -5.5180 hx        1 1MF      0.082200
     53 H7          3.2300    0.1430   -6.3670 hx        1 1MF      0.082200
     54 H9          2.1420    2.3910   -6.1870 hx        1 1MF      0.088200
     55 H10         1.7880    1.6180   -4.5660 hx        1 1MF      0.088200
     56 H11         1.5270    3.7110   -3.7400 hc        1 1MF      0.081200
     57 H12         3.3170    3.9440   -3.8600 hc        1 1MF      0.081200
     58 H13         2.8120    4.6060   -6.3940 hc        1 1MF      0.029200
     59 H14         1.1240    4.8620   -5.7910 hc        1 1MF      0.029200
     60 H15         2.3190    6.9730   -5.6140 hc        1 1MF      0.046700
     61 H16         2.1340    6.3420   -3.9300 hc        1 1MF      0.046700
     62 H18         4.5890    3.5580   -5.9040 hx        1 1MF      0.131700
     63 H19         4.4630    2.1400   -7.0760 hx        1 1MF      0.131700
     64 H20         6.3950    1.3880   -4.9620 hc        1 1MF      0.092200
     65 H21         6.7010    3.1130   -5.4000 hc        1 1MF      0.092200
     66 H22         5.4980    0.2080   -7.5730 ha        1 1MF      0.121000
     67 H23         6.7540   -0.5520   -9.5700 ha        1 1MF      0.132000
     68 H24         8.9590    0.4730  -10.1330 ha        1 1MF      0.131000
     69 H25         9.9150    2.2550   -8.6740 ha        1 1MF      0.139000
     70 H26         9.2900    4.3510   -8.0880 h1        1 1MF      0.044200
     71 H27        10.6020    3.9210   -6.8790 h1        1 1MF      0.044200
     72 H28        11.2990    6.0880   -6.1260 ha        1 1MF      0.140500
     73 H29        10.8000    8.2130   -4.9650 ha        1 1MF      0.170000
     74 H30         6.5510    7.2360   -5.0520 ha        1 1MF      0.170000
     75 H31         7.0680    5.1340   -6.1720 ha        1 1MF      0.140500
     76 H32         6.4560    8.4550   -3.4290 ha        1 1MF      0.165500
     77 H33         5.9650   10.5990   -2.2610 ha        1 1MF      0.144000
     78 H34         9.5900   12.3400   -3.8750 ha        1 1MF      0.144000
     79 H35        10.1010   10.1980   -5.0370 ha        1 1MF      0.165500
     80 H36         7.1240   13.1120   -4.9050 ha        1 1MF      0.151000
     81 H37         6.8670   15.3720   -5.9380 ha        1 1MF      0.127500
     82 H38         6.9920   17.4210   -4.5200 ha        1 1MF      0.126000
     83 H39         7.3690   17.2190   -2.0640 ha        1 1MF      0.127500
     84 H40         7.6280   14.9570   -1.0150 ha        1 1MF      0.151000
     85 HBU1        4.2110    1.8460   -4.1330 hn        1 1MF      0.449800
@<TRIPOS>BOND
     1    1    2 1   
     2    2    3 1   
     3    2    4 1   
     4    4    5 ar  
     5    4    7 ar  
     6    5    6 ar  
     7    5   48 1   
     8    6    9 ar  
     9    6   49 1   
    10    7    8 ar  
    11    7   50 1   
    12    8    9 ar  
    13    8   51 1   
    14    9   10 1   
    15   10   11 1   
    16   10   52 1   
    17   10   53 1   
    18   11   12 1   
    19   11   19 1   
    20   11   85 1   
    21   12   13 1   
    22   12   54 1   
    23   12   55 1   
    24   13   14 1   
    25   13   56 1   
    26   13   57 1   
    27   14   15 1   
    28   14   58 1   
    29   14   59 1   
    30   15   16 1   
    31   15   60 1   
    32   15   61 1   
    33   16   17 1   
    34   16   18 1   
    35   19   20 1   
    36   19   62 1   
    37   19   63 1   
    38   20   21 1   
    39   20   64 1   
    40   20   65 1   
    41   21   22 ar  
    42   21   26 ar  
    43   22   23 ar  
    44   22   66 1   
    45   23   24 ar  
    46   23   67 1   
    47   24   25 ar  
    48   24   68 1   
    49   25   26 ar  
    50   25   69 1   
    51   26   27 1   
    52   27   28 1   
    53   28   29 1   
    54   28   70 1   
    55   28   71 1   
    56   29   30 ar  
    57   29   34 ar  
    58   30   31 ar  
    59   30   72 1   
    60   31   32 ar  
    61   31   73 1   
    62   32   33 ar  
    63   32   35 1   
    64   33   34 ar  
    65   33   74 1   
    66   34   75 1   
    67   35   36 ar  
    68   35   40 ar  
    69   36   37 ar  
    70   36   76 1   
    71   37   38 ar  
    72   37   77 1   
    73   38   39 ar  
    74   38   41 1   
    75   39   40 ar  
    76   39   78 1   
    77   40   79 1   
    78   41   42 1   
    79   42   43 ar  
    80   42   47 ar  
    81   43   44 ar  
    82   43   80 1   
    83   44   45 ar  
    84   44   81 1   
    85   45   46 ar  
    86   45   82 1   
    87   46   47 ar  
    88   46   83 1   
    89   47   84 1   
@<TRIPOS>SUBSTRUCTURE
     1 1MF         1 TEMP              0 ****  ****    0 ROOT
