@<TRIPOS>MOLECULE
1MG
   39    37     1     0     0
SMALL
bcc


@<TRIPOS>ATOM
      1 P           2.6310   -2.2110    5.3020 p3        1 1MG      2.528000
      2 OP1         3.8850   -1.9260    6.0870 o         1 1MG     -1.234500
      3 OP2         1.4310   -2.1230    6.2200 os        1 1MG     -1.278000
      4 OP3         2.7110   -3.5710    4.7230 o         1 1MG     -1.234500
      5 O5'         2.4790   -1.1280    4.1140 os        1 1MG     -0.716000
      6 C5'         1.5540   -1.3920    3.0810 c3        1 1MG      0.079000
      7 C4'         1.3800   -0.1890    2.2690 c3        1 1MG     -0.060000
      8 O4'         1.2770   -0.5070    1.0050 os        1 1MG     -0.288000
      9 C3'        -0.0340    0.5800    2.6700 c3        1 1MG      0.020000
     10 O3'         0.1770    1.4520    3.8680 oh        1 1MG     -0.413000
     11 C2'        -0.3310    1.2680    1.6980 c3        1 1MG     -0.008000
     12 O2'         0.2440    2.6420    1.8400 oh        1 1MG     -0.345000
     13 C1'         0.3430    0.5070    0.4250 c3        1 1MG      0.123000
     14 N9         -0.5780   -0.0770   -0.3020 n3        1 1MG     -0.136000
     15 C8         -1.3920   -1.1550    0.0230 c1        1 1MG     -0.043000
     16 N7         -2.0190   -1.5750   -1.1200 n2        1 1MG     -0.102000
     17 C5         -1.6040   -0.7720   -2.1480 c1        1 1MG     -0.231000
     18 C6         -1.9510   -0.7530   -3.6040 c1        1 1MG      0.396000
     19 O6         -2.8740   -1.4250   -4.0100 o         1 1MG     -0.366000
     20 N1         -1.3440    0.2110   -4.4690 n3        1 1MG     -0.296000
     21 CM1        -1.6610    0.2180   -5.8570 c3        1 1MG     -0.081000
     22 C2         -0.4130    1.1600   -3.9410 c2        1 1MG      0.164000
     23 N2          0.2320    2.0760   -4.8080 n3        1 1MG     -0.305000
     24 N3         -0.0850    1.1470   -2.5250 n1        1 1MG     -0.197000
     25 C4         -0.7080    0.1590   -1.6340 c1        1 1MG      0.018000
     26 H5'         0.6650   -1.6600    3.4840 h1        1 1MG      0.037000
     27 H5''        1.8900   -2.1160    2.5210 h1        1 1MG      0.037000
     28 H4'         2.1240    0.4060    2.3970 h1        1 1MG      0.122000
     29 H3'        -0.7670   -0.1050    2.8570 h1        1 1MG      0.157000
     30 HO3'       -0.5020    1.3140    4.4700 ho        1 1MG      0.316000
     31 H2'        -1.3220    1.3120    1.5930 h1        1 1MG      0.108000
     32 HO2'       -0.4120    3.2620    1.7140 ho        1 1MG      0.230000
     33 H1'         0.8250    1.1240   -0.0980 h2        1 1MG      0.126000
     34 H8         -1.5230   -1.5360    0.9350 DU        1 1MG      0.252000
     35 HM11       -1.8340    1.1790   -6.1610 h1        1 1MG      0.085333
     36 HM12       -0.8810   -0.1720   -6.3850 h1        1 1MG      0.085333
     37 HM13       -2.4850   -0.3400   -6.0150 h1        1 1MG      0.085333
     38 HN21        0.1130    2.0060   -5.7450 hn        1 1MG      0.182500
     39 HN22        0.7590    2.7120   -4.4720 hn        1 1MG      0.182500
@<TRIPOS>BOND
     1    1    2 1   
     2    1    4 1   
     3    1    5 1   
     4    5    6 1   
     5    6    7 1   
     6    6   26 1   
     7    6   27 1   
     8    7    8 1   
     9    7    9 1   
    10    7   28 1   
    11    8   13 1   
    12    9   10 1   
    13    9   11 1   
    14    9   29 1   
    15   10   30 1   
    16   11   12 1   
    17   11   13 1   
    18   11   31 1   
    19   12   32 1   
    20   13   14 1   
    21   13   33 1   
    22   14   15 1   
    23   14   25 1   
    24   15   16 1   
    25   16   17 1   
    26   17   25 1   
    27   18   19 1   
    28   18   20 1   
    29   20   21 1   
    30   20   22 1   
    31   21   35 1   
    32   21   36 1   
    33   21   37 1   
    34   22   23 1   
    35   22   24 1   
    36   23   38 1   
    37   23   39 1   
@<TRIPOS>SUBSTRUCTURE
     1 1MG         1 TEMP              0 ****  ****    0 ROOT
