@<TRIPOS>MOLECULE
1MG
   39    41     1     0     0
SMALL
bcc


@<TRIPOS>ATOM
      1 P          -0.0610   -1.2330   -4.8640 p5        1 1MG      1.335900
      2 OP1        -1.2240   -2.0480   -4.3800 o         1 1MG     -0.929500
      3 OP2         0.0150   -0.8740   -6.3130 o         1 1MG     -0.929500
      4 OP3         1.2480   -1.5590   -4.1690 o         1 1MG     -0.929500
      5 O5'        -0.3630    0.2970   -4.0750 os        1 1MG     -0.553200
      6 C5'        -0.4860    0.2020   -2.7180 c3        1 1MG      0.229400
      7 C4'         0.8250    0.6510   -2.0250 c3        1 1MG      0.052100
      8 O4'         0.5230    1.3940   -0.8150 os        1 1MG     -0.431600
      9 C3'         1.7580   -0.5160   -1.6520 c3        1 1MG      0.131100
     10 O3'         2.9610   -0.4530   -2.3810 oh        1 1MG     -0.686800
     11 C2'         2.0770   -0.3370   -0.1510 c3        1 1MG      0.103100
     12 O2'         3.3870    0.1000    0.1380 oh        1 1MG     -0.618800
     13 C1'         1.0800    0.7730    0.3270 c3        1 1MG      0.215800
     14 N9          0.0040    0.2680    1.1780 na        1 1MG     -0.181900
     15 C8         -1.2390   -0.2680    0.7760 cc        1 1MG      0.446400
     16 N7         -2.0350   -0.6050    1.8140 nd        1 1MG     -0.629000
     17 C5         -1.2960   -0.2790    2.9520 cd        1 1MG      0.185800
     18 C6         -1.6240   -0.4190    4.3530 c         1 1MG      0.649000
     19 O6         -2.6750   -0.8780    4.8370 o         1 1MG     -0.641500
     20 N1         -0.6000    0.0200    5.2520 n         1 1MG     -0.407300
     21 CM1        -0.8410   -0.0430    6.6670 c3        1 1MG      0.073300
     22 C2          0.6180    0.5690    4.7670 cd        1 1MG      0.610800
     23 N2          1.5460    1.0730    5.7410 nh        1 1MG     -0.866800
     24 N3          0.9480    0.6920    3.4720 nc        1 1MG     -0.622100
     25 C4         -0.0190    0.2760    2.5720 cc        1 1MG      0.067800
     26 H5'        -0.7420   -0.8510   -2.4060 h1        1 1MG     -0.001800
     27 H5''       -1.3000    0.8990   -2.3570 h1        1 1MG     -0.001800
     28 H4'         1.3600    1.3830   -2.6890 h1        1 1MG      0.082700
     29 H3'         1.2550   -1.5080   -1.8370 h1        1 1MG      0.118700
     30 HO3'        2.7390   -0.8140   -3.2760 ho        1 1MG      0.517000
     31 H2'         1.9470   -1.2960    0.4150 h1        1 1MG      0.067700
     32 HO2'        3.7710    0.4460   -0.6790 ho        1 1MG      0.431000
     33 H1'         1.6200    1.5740    0.9130 h2        1 1MG      0.085700
     34 H8         -1.4800   -0.3730   -0.2990 h5        1 1MG      0.115100
     35 HM11       -0.1010   -0.7300    7.1590 h1        1 1MG      0.046033
     36 HM12       -0.7550    0.9770    7.1310 h1        1 1MG      0.046033
     37 HM13       -1.8750   -0.4390    6.8570 h1        1 1MG      0.046033
     38 HN21        2.3700    1.4430    5.3080 hn        1 1MG      0.387800
     39 HN22        1.7800    0.3740    6.4170 hn        1 1MG      0.387800
@<TRIPOS>BOND
     1    1    2 1   
     2    1    3 1   
     3    1    4 1   
     4    1    5 1   
     5    5    6 1   
     6    6    7 1   
     7    6   26 1   
     8    6   27 1   
     9    7    8 1   
    10    7    9 1   
    11    7   28 1   
    12    8   13 1   
    13    9   10 1   
    14    9   11 1   
    15    9   29 1   
    16   10   30 1   
    17   11   12 1   
    18   11   13 1   
    19   11   31 1   
    20   12   32 1   
    21   13   14 1   
    22   13   33 1   
    23   14   15 1   
    24   14   25 1   
    25   15   16 2   
    26   15   34 1   
    27   16   17 1   
    28   17   18 1   
    29   17   25 2   
    30   18   19 2   
    31   18   20 1   
    32   20   21 1   
    33   20   22 1   
    34   21   35 1   
    35   21   36 1   
    36   21   37 1   
    37   22   23 1   
    38   22   24 2   
    39   23   38 1   
    40   23   39 1   
    41   24   25 1   
@<TRIPOS>SUBSTRUCTURE
     1 1MG         1 TEMP              0 ****  ****    0 ROOT
