@<TRIPOS>MOLECULE
1MH
   21    18     1     0     0
SMALL
bcc


@<TRIPOS>ATOM
      1 N          -2.6880   -0.8230    0.5540 n3        1 1MH     -0.886800
      2 CA         -1.3270   -0.5000    0.9510 c3        1 1MH      0.019500
      3 C          -1.2820   -0.2190    2.4400 c         1 1MH      0.886600
      4 O          -0.7140   -1.0130    3.2020 o         1 1MH     -0.840800
      5 CB         -0.8660    0.7080    0.2050 c3        1 1MH     -0.051300
      6 C6          0.5340    0.4330   -0.4080 c1        1 1MH     -0.062100
      7 C7          1.6550    0.8200    0.2510 c1        1 1MH      0.318300
      8 N8          2.9000    0.5980   -0.3130 n1        1 1MH     -0.481800
      9 C9          3.0020   -0.0080   -1.5260 c1        1 1MH     -0.095500
     10 C10         1.8740   -0.4010   -2.1970 c1        1 1MH     -0.095500
     11 C11         0.6410   -0.1850   -1.6450 c1        1 1MH     -0.056500
     12 O1         -1.9600    0.7960    2.9380 o         1 1MH     -0.840800
     13 H1         -2.8120   -0.6180   -0.3840 hn        1 1MH      0.331800
     14 H2         -3.2540   -0.3520    1.0350 hn        1 1MH      0.331800
     15 H4         -0.6990   -1.3140    0.7320 h1        1 1MH      0.048700
     16 H5         -1.5200    0.9160   -0.5290 hc        1 1MH      0.048200
     17 H6         -0.8170    1.4170    0.7750 hc        1 1MH      0.048200
     18 H7          1.5900    1.2320    1.0690 ha        1 1MH      0.175500
     19 H8          3.9230   -0.1690   -1.9390 ha        1 1MH      0.068000
     20 H9          1.9560   -0.8670   -3.1020 ha        1 1MH      0.068000
     21 H10        -0.1350   -0.4520   -2.1080 ha        1 1MH      0.067500
@<TRIPOS>BOND
     1    1    2 1   
     2    1   13 1   
     3    1   14 1   
     4    2    3 1   
     5    2    5 1   
     6    2   15 1   
     7    3    4 1   
     8    3   12 1   
     9    5    6 1   
    10    5   16 1   
    11    5   17 1   
    12    6   11 3   
    13    7    8 3   
    14    7   18 1   
    15    9   10 3   
    16    9   19 1   
    17   10   20 1   
    18   11   21 1   
@<TRIPOS>SUBSTRUCTURE
     1 1MH         1 TEMP              0 ****  ****    0 ROOT
