@<TRIPOS>MOLECULE
1MH
   21    21     1     0     0
SMALL
bcc


@<TRIPOS>ATOM
      1 N          -1.2160    1.6760   -0.6690 n3        1 1MH     -0.890800
      2 CA         -1.3190    0.2450   -0.4140 c3        1 1MH      0.020500
      3 C          -2.7740   -0.2530   -0.1080 c         1 1MH      0.888600
      4 O          -3.7130    0.5900   -0.1820 o         1 1MH     -0.839300
      5 CB         -0.4120   -0.2260    0.7290 c3        1 1MH     -0.032100
      6 C6          1.0320   -0.1590    0.3950 ca        1 1MH     -0.144600
      7 C7          1.7510   -1.3320    0.0660 ca        1 1MH      0.379200
      8 N8          3.0630   -1.3530   -0.2310 nb        1 1MH     -0.684000
      9 C9          3.7180   -0.1750   -0.2140 ca        1 1MH      0.359200
     10 C10         3.0990    1.0480    0.0920 ca        1 1MH     -0.257300
     11 C11         1.7380    1.0510    0.4000 ca        1 1MH     -0.086000
     12 O1         -2.9230   -1.4720    0.1770 o         1 1MH     -0.839300
     13 H1         -1.8940    1.8990   -1.3790 hn        1 1MH      0.331800
     14 H2         -1.5130    2.1640    0.1600 hn        1 1MH      0.331800
     15 H4         -0.9960   -0.2810   -1.3580 h1        1 1MH      0.046700
     16 H5         -0.6090    0.3890    1.6480 hc        1 1MH      0.062200
     17 H6         -0.7110   -1.2860    0.9610 hc        1 1MH      0.062200
     18 H7          1.2320   -2.3080    0.0370 h4        1 1MH      0.024100
     19 H8          4.7920   -0.2200   -0.4610 h4        1 1MH     -0.001900
     20 H9          3.6770    1.9810    0.0820 ha        1 1MH      0.123000
     21 H10         1.2140    1.9900    0.6280 ha        1 1MH      0.148000
@<TRIPOS>BOND
     1    1    2 1   
     2    1   13 1   
     3    1   14 1   
     4    2    3 1   
     5    2    5 1   
     6    2   15 1   
     7    3    4 1   
     8    3   12 1   
     9    5    6 1   
    10    5   16 1   
    11    5   17 1   
    12    6    7 ar  
    13    6   11 ar  
    14    7    8 ar  
    15    7   18 1   
    16    8    9 ar  
    17    9   10 ar  
    18    9   19 1   
    19   10   11 ar  
    20   10   20 1   
    21   11   21 1   
@<TRIPOS>SUBSTRUCTURE
     1 1MH         1 TEMP              0 ****  ****    0 ROOT
