@<TRIPOS>MOLECULE
1MJ
   17    12     1     0     0
SMALL
bcc


@<TRIPOS>ATOM
      1 C01         0.0140   -0.0010   -2.5190 c1        1 1MJ     -0.191000
      2 C02         1.3950   -0.0010   -2.5190 c1        1 1MJ     -0.058000
      3 N03         1.8180   -0.0010   -1.2190 n2        1 1MJ     -0.208000
      4 C04         0.6990   -0.0010   -0.4040 c1        1 1MJ     -0.074000
      5 C05        -0.4110   -0.0010   -1.2080 c1        1 1MJ     -0.004000
      6 N06        -1.6740   -0.0010   -0.6440 n1        1 1MJ     -0.103000
      7 C07        -1.8160   -0.0010    0.7120 c1        1 1MJ     -0.035000
      8 C08        -0.6930   -0.0010    1.5290 c1        1 1MJ     -0.219000
      9 C09         0.5560   -0.0010    0.9730 c2        1 1MJ     -0.055000
     10 C10        -0.7820    0.0030    3.0390 c1        1 1MJ      0.229000
     11 O11        -1.8700    0.0070    3.5840 o         1 1MJ     -0.287000
     12 H1         -0.5600   -0.0010   -3.3090 DU        1 1MJ      0.199667
     13 H2          1.9680   -0.0010   -3.3090 DU        1 1MJ      0.199667
     14 H3          2.6860   -0.0010   -0.9390 DU        1 1MJ      0.199667
     15 H4         -2.7080   -0.0010    1.1090 ha        1 1MJ      0.181000
     16 H5          1.3450   -0.0010    1.5470 ha        1 1MJ      0.138000
     17 H7          0.0320    0.0010    3.5770 ha        1 1MJ      0.088000
@<TRIPOS>BOND
     1    1    2 1   
     2    1    5 1   
     3    2    3 1   
     4    3    4 1   
     5    4    9 1   
     6    5    6 1   
     7    7    8 1   
     8    7   15 1   
     9    8    9 1   
    10    9   16 1   
    11   10   11 1   
    12   10   17 1   
@<TRIPOS>SUBSTRUCTURE
     1 1MJ         1 TEMP              0 ****  ****    0 ROOT
