@<TRIPOS>MOLECULE
1MJ
   17    18     1     0     0
SMALL
bcc


@<TRIPOS>ATOM
      1 C01         2.6740    0.6760   -0.0020 cc        1 1MJ     -0.300800
      2 C02         3.0080   -0.6760   -0.0010 cd        1 1MJ     -0.085100
      3 N03         1.8610   -1.4690    0.0010 na        1 1MJ     -0.181400
      4 C04         0.7480   -0.6300    0.0000 ca        1 1MJ     -0.184500
      5 C05         1.2260    0.7530   -0.0010 ca        1 1MJ      0.430100
      6 N06         0.3860    1.8170   -0.0020 nb        1 1MJ     -0.629000
      7 C07        -0.9180    1.5380   -0.0010 ca        1 1MJ      0.414200
      8 C08        -1.4740    0.2240    0.0000 ca        1 1MJ     -0.308900
      9 C09        -0.6290   -0.8840    0.0010 ca        1 1MJ     -0.034000
     10 C10        -2.9320    0.0590    0.0010 c         1 1MJ      0.582500
     11 O11        -3.4950   -1.0390    0.0020 o         1 1MJ     -0.534100
     12 H1          3.3540    1.5230   -0.0030 ha        1 1MJ      0.173000
     13 H2          3.9990   -1.1390   -0.0010 h4        1 1MJ      0.171000
     14 H3          1.8330   -2.4540    0.0020 hn        1 1MJ      0.305700
     15 H4         -1.5920    2.4150   -0.0020 h4        1 1MJ      0.022100
     16 H5         -1.0430   -1.9040    0.0020 ha        1 1MJ      0.158000
     17 H7         -3.5150    1.0080   -0.0000 h4        1 1MJ      0.001200
@<TRIPOS>BOND
     1    1    2 2   
     2    1    5 1   
     3    1   12 1   
     4    2    3 1   
     5    2   13 1   
     6    3    4 1   
     7    3   14 1   
     8    4    5 ar  
     9    4    9 ar  
    10    5    6 ar  
    11    6    7 ar  
    12    7    8 ar  
    13    7   15 1   
    14    8    9 ar  
    15    8   10 1   
    16    9   16 1   
    17   10   11 2   
    18   10   17 1   
@<TRIPOS>SUBSTRUCTURE
     1 1MJ         1 TEMP              0 ****  ****    0 ROOT
