@<TRIPOS>MOLECULE
1ML
   75    78     1     0     0
SMALL
bcc


@<TRIPOS>ATOM
      1 C01         2.4850    0.4100   -0.0930 ca        1 1ML     -0.104600
      2 C02         1.2980    1.1470   -0.1200 ca        1 1ML     -0.124000
      3 C03         0.8390    1.7780    1.0370 ca        1 1ML      0.055100
      4 C04         1.5550    1.6970    2.2380 ca        1 1ML     -0.157000
      5 C05         2.7440    0.9790    2.2650 ca        1 1ML     -0.121000
      6 C06         3.2230    0.3230    1.1090 ca        1 1ML      0.060600
      7 O07        -0.2870    2.6110    1.0260 os        1 1ML     -0.254200
      8 C08        -1.5080    2.0070    0.7810 ca        1 1ML      0.121100
      9 C09        -1.6870    0.6530    0.4700 ca        1 1ML     -0.155000
     10 C10        -2.9650    0.1640    0.2370 ca        1 1ML     -0.132500
     11 C11        -4.0930    1.0150    0.3110 ca        1 1ML      0.008600
     12 C12        -3.8960    2.3750    0.6280 ca        1 1ML     -0.132500
     13 C13        -2.6180    2.8650    0.8620 ca        1 1ML     -0.155000
     14 C14         2.8880   -0.3070   -1.3790 c         1 1ML      0.913200
     15 O15         1.9910   -0.9910   -1.9490 o         1 1ML     -0.825800
     16 O16         4.0710   -0.1930   -1.8020 o         1 1ML     -0.825800
     17 N17         4.4490   -0.4050    1.1960 n         1 1ML     -0.390000
     18 C18         4.3650   -1.8470    1.3820 c3        1 1ML      0.122700
     19 C19         3.4510   -2.2220    2.5550 c3        1 1ML     -0.118600
     20 C20         3.9230   -2.6450    0.1550 c3        1 1ML     -0.118600
     21 C21         5.6170    0.2120    0.7320 c         1 1ML      0.706100
     22 C23         6.7610   -0.6260    0.1640 c3        1 1ML     -0.121700
     23 O22         5.7490    1.4470    0.8390 o         1 1ML     -0.605100
     24 C24         7.2210    0.0220   -1.1370 c3        1 1ML     -0.080900
     25 C25         8.4210   -0.7030   -1.7040 c3        1 1ML     -0.067900
     26 C26         9.5630   -0.7600   -0.6990 c3        1 1ML     -0.069700
     27 C27         9.0970   -1.4120    0.5950 c3        1 1ML     -0.067900
     28 C28         7.8960   -0.6940    1.1740 c3        1 1ML     -0.080900
     29 C29        10.7470   -1.5050   -1.2740 c3        1 1ML     -0.087100
     30 N30        -5.3620    0.4630    0.0430 n         1 1ML     -0.458100
     31 C31        -6.5960    1.0210    0.3140 c         1 1ML      0.677700
     32 O32        -6.7500    2.1630    0.7920 o         1 1ML     -0.601100
     33 C33        -7.7820    0.1780   -0.0320 ca        1 1ML     -0.173600
     34 C34        -8.8880    0.8080   -0.6220 ca        1 1ML     -0.060000
     35 C35       -10.0210    0.0770   -0.9520 ca        1 1ML     -0.189500
     36 C36       -10.0520   -1.3040   -0.6760 ca        1 1ML      0.138100
     37 C37        -8.9590   -1.9380   -0.0720 ca        1 1ML     -0.189500
     38 C38        -7.8270   -1.1880    0.2470 ca        1 1ML     -0.060000
     39 O39       -11.2210   -1.9420   -1.0400 os        1 1ML     -0.327900
     40 C40       -11.2770   -3.3410   -0.7910 c3        1 1ML      0.113700
     41 H1          0.7280    1.2030   -1.0610 ha        1 1ML      0.159000
     42 H2          1.1840    2.2100    3.1350 ha        1 1ML      0.128000
     43 H3          3.3200    0.9310    3.2020 ha        1 1ML      0.127000
     44 H4         -0.8180   -0.0220    0.3950 ha        1 1ML      0.159000
     45 H5         -3.0810   -0.9010   -0.0160 ha        1 1ML      0.145500
     46 H6         -4.7540    3.0630    0.6980 ha        1 1ML      0.145500
     47 H7         -2.4640    3.9260    1.1060 ha        1 1ML      0.159000
     48 H9          5.4100   -2.1880    1.6650 h1        1 1ML      0.031700
     49 H10         2.3970   -1.9220    2.3460 hc        1 1ML      0.045700
     50 H11         3.4900   -3.3290    2.6970 hc        1 1ML      0.045700
     51 H12         3.7830   -1.7250    3.4980 hc        1 1ML      0.045700
     52 H13         2.8400   -2.4690   -0.0640 hc        1 1ML      0.045700
     53 H14         4.4900   -2.3330   -0.7580 hc        1 1ML      0.045700
     54 H15         4.0890   -3.7310    0.3470 hc        1 1ML      0.045700
     55 H16         6.4200   -1.6690   -0.0820 hc        1 1ML      0.068700
     56 H17         6.3630   -0.0000   -1.8670 hc        1 1ML      0.063700
     57 H18         7.4750    1.0970   -0.9450 hc        1 1ML      0.063700
     58 H19         8.1300   -1.7460   -1.9960 hc        1 1ML      0.032200
     59 H20         8.7680   -0.1790   -2.6320 hc        1 1ML      0.032200
     60 H21         9.8800    0.2960   -0.4660 hc        1 1ML      0.046700
     61 H22         8.8340   -2.4840    0.3950 hc        1 1ML      0.032200
     62 H23         9.9340   -1.4030    1.3410 hc        1 1ML      0.032200
     63 H24         8.1830    0.3490    1.4730 hc        1 1ML      0.063700
     64 H25         7.5490   -1.2290    2.0960 hc        1 1ML      0.063700
     65 H26        11.1010   -1.0080   -2.2080 hc        1 1ML      0.025700
     66 H27        11.5890   -1.5260   -0.5410 hc        1 1ML      0.025700
     67 H28        10.4670   -2.5580   -1.5190 hc        1 1ML      0.025700
     68 H29        -5.3510   -0.4490   -0.3580 hn        1 1ML      0.314500
     69 H30        -8.8490    1.8930   -0.8130 ha        1 1ML      0.148000
     70 H31       -10.8920    0.5560   -1.4190 ha        1 1ML      0.145000
     71 H32        -8.9800   -3.0120    0.1560 ha        1 1ML      0.145000
     72 H33        -6.9770   -1.6900    0.7370 ha        1 1ML      0.148000
     73 H34       -10.4750   -3.8760   -1.3540 h1        1 1ML      0.044700
     74 H35       -11.1940   -3.5500    0.3030 h1        1 1ML      0.044700
     75 H36       -12.2890   -3.6330   -1.1720 h1        1 1ML      0.044700
@<TRIPOS>BOND
     1    1    2 ar  
     2    1    6 ar  
     3    1   14 1   
     4    2    3 ar  
     5    2   41 1   
     6    3    4 ar  
     7    3    7 1   
     8    4    5 ar  
     9    4   42 1   
    10    5    6 ar  
    11    5   43 1   
    12    6   17 1   
    13    7    8 1   
    14    8    9 ar  
    15    8   13 ar  
    16    9   10 ar  
    17    9   44 1   
    18   10   11 ar  
    19   10   45 1   
    20   11   12 ar  
    21   11   30 1   
    22   12   13 ar  
    23   12   46 1   
    24   13   47 1   
    25   14   15 1   
    26   14   16 1   
    27   17   18 1   
    28   17   21 1   
    29   18   19 1   
    30   18   20 1   
    31   18   48 1   
    32   19   49 1   
    33   19   50 1   
    34   19   51 1   
    35   20   52 1   
    36   20   53 1   
    37   20   54 1   
    38   21   22 1   
    39   21   23 2   
    40   22   24 1   
    41   22   28 1   
    42   22   55 1   
    43   24   25 1   
    44   24   56 1   
    45   24   57 1   
    46   25   26 1   
    47   25   58 1   
    48   25   59 1   
    49   26   27 1   
    50   26   29 1   
    51   26   60 1   
    52   27   28 1   
    53   27   61 1   
    54   27   62 1   
    55   28   63 1   
    56   28   64 1   
    57   29   65 1   
    58   29   66 1   
    59   29   67 1   
    60   30   31 1   
    61   30   68 1   
    62   31   32 2   
    63   31   33 1   
    64   33   34 ar  
    65   33   38 ar  
    66   34   35 ar  
    67   34   69 1   
    68   35   36 ar  
    69   35   70 1   
    70   36   37 ar  
    71   36   39 1   
    72   37   38 ar  
    73   37   71 1   
    74   38   72 1   
    75   39   40 1   
    76   40   73 1   
    77   40   74 1   
    78   40   75 1   
@<TRIPOS>SUBSTRUCTURE
     1 1ML         1 TEMP              0 ****  ****    0 ROOT
