@<TRIPOS>MOLECULE
1ML
   75    78     1     0     0
SMALL
bcc


@<TRIPOS>ATOM
      1 C01        -0.2340    0.3350    0.5870 ca        1 1ML     -0.104600
      2 C02         1.1550    0.3320    0.4270 ca        1 1ML     -0.124000
      3 C03         1.9860    0.1410    1.5320 ca        1 1ML      0.055100
      4 C04         1.4550   -0.0590    2.8120 ca        1 1ML     -0.157000
      5 C05         0.0740   -0.0730    2.9720 ca        1 1ML     -0.121000
      6 C06        -0.7870    0.1290    1.8710 ca        1 1ML      0.060600
      7 O07         3.3750    0.0260    1.3970 os        1 1ML     -0.254200
      8 C08         4.0590    1.1590    0.9920 ca        1 1ML      0.121100
      9 C09         3.4600    2.3710    0.6260 ca        1 1ML     -0.155000
     10 C10         4.2550    3.4380    0.2290 ca        1 1ML     -0.132500
     11 C11         5.6640    3.3180    0.1880 ca        1 1ML      0.008600
     12 C12         6.2520    2.0920    0.5600 ca        1 1ML     -0.132500
     13 C13         5.4570    1.0240    0.9600 ca        1 1ML     -0.155000
     14 C14        -1.0770    0.6170   -0.6550 c         1 1ML      0.913200
     15 O15        -0.7390    1.6150   -1.3520 o         1 1ML     -0.825800
     16 O16        -2.0510   -0.1390   -0.9200 o         1 1ML     -0.825800
     17 N17        -2.1980    0.1100    2.0960 n         1 1ML     -0.390000
     18 C18        -2.8760    1.3910    2.2330 c3        1 1ML      0.122700
     19 C19        -2.1960    2.2920    3.2710 c3        1 1ML     -0.118600
     20 C20        -3.0440    2.1900    0.9410 c3        1 1ML     -0.118600
     21 C21        -2.8970   -1.0670    1.8000 c         1 1ML      0.706100
     22 C23        -4.3590   -1.0080    1.3620 c3        1 1ML     -0.121700
     23 O22        -2.3410   -2.1720    1.9540 o         1 1ML     -0.605100
     24 C24        -4.5250   -1.9140    0.1470 c3        1 1ML     -0.080900
     25 C25        -5.9750   -1.9800   -0.2800 c3        1 1ML     -0.067900
     26 C26        -6.8710   -2.4410    0.8610 c3        1 1ML     -0.069700
     27 C27        -6.7020   -1.5280    2.0680 c3        1 1ML     -0.067900
     28 C28        -5.2550   -1.4550    2.5070 c3        1 1ML     -0.080900
     29 C29        -8.3180   -2.4820    0.4240 c3        1 1ML     -0.087100
     30 N30         6.4140    4.4310   -0.2450 ns        1 1ML     -0.458100
     31 C31         7.7740    4.6320   -0.1100 c         1 1ML      0.677700
     32 O32         8.5540    3.7880    0.3750 o         1 1ML     -0.601100
     33 C33         8.2920    5.9410   -0.6160 ca        1 1ML     -0.173600
     34 C34         9.5060    5.9410   -1.3180 ca        1 1ML     -0.060000
     35 C35        10.0410    7.1280   -1.7980 ca        1 1ML     -0.189500
     36 C36         9.3550    8.3360   -1.5630 ca        1 1ML      0.138100
     37 C37         8.1500    8.3470   -0.8490 ca        1 1ML     -0.189500
     38 C38         7.6250    7.1440   -0.3790 ca        1 1ML     -0.060000
     39 O39         9.9660    9.4600   -2.0800 os        1 1ML     -0.327900
     40 C40         9.2900   10.6950   -1.8730 c3        1 1ML      0.113700
     41 H1          1.5750    0.4990   -0.5770 ha        1 1ML      0.159000
     42 H2          2.1240   -0.2200    3.6670 ha        1 1ML      0.128000
     43 H3         -0.3470   -0.2500    3.9730 ha        1 1ML      0.127000
     44 H4          2.3630    2.4780    0.6400 ha        1 1ML      0.159000
     45 H5          3.7620    4.3780   -0.0640 ha        1 1ML      0.145500
     46 H6          7.3460    1.9680    0.5440 ha        1 1ML      0.145500
     47 H7          5.9150    0.0670    1.2480 ha        1 1ML      0.159000
     48 H9         -3.9090    1.1570    2.6380 h1        1 1ML      0.031700
     49 H10        -2.8020    3.2220    3.3890 hc        1 1ML      0.045700
     50 H11        -1.1680    2.5730    2.9370 hc        1 1ML      0.045700
     51 H12        -2.1210    1.7810    4.2600 hc        1 1ML      0.045700
     52 H13        -3.4420    1.5470    0.1150 hc        1 1ML      0.045700
     53 H14        -2.0590    2.5890    0.5900 hc        1 1ML      0.045700
     54 H15        -3.7420    3.0400    1.1240 hc        1 1ML      0.045700
     55 H16        -4.6490    0.0320    1.0470 hc        1 1ML      0.068700
     56 H17        -4.1500   -2.9410    0.3980 hc        1 1ML      0.063700
     57 H18        -3.8850   -1.5110   -0.6860 hc        1 1ML      0.063700
     58 H19        -6.0770   -2.6900   -1.1420 hc        1 1ML      0.032200
     59 H20        -6.3120   -0.9710   -0.6330 hc        1 1ML      0.032200
     60 H21        -6.5540   -3.4810    1.1600 hc        1 1ML      0.046700
     61 H22        -7.0690   -0.5010    1.8080 hc        1 1ML      0.032200
     62 H23        -7.3320   -1.9080    2.9140 hc        1 1ML      0.032200
     63 H24        -5.1600   -0.7370    3.3630 hc        1 1ML      0.063700
     64 H25        -4.9140   -2.4620    2.8660 hc        1 1ML      0.063700
     65 H26        -8.6660   -1.4660    0.1180 hc        1 1ML      0.025700
     66 H27        -8.9690   -2.8410    1.2580 hc        1 1ML      0.025700
     67 H28        -8.4410   -3.1730   -0.4450 hc        1 1ML      0.025700
     68 H29         5.8830    5.1620   -0.6650 hn        1 1ML      0.314500
     69 H30        10.0360    4.9870   -1.4750 ha        1 1ML      0.148500
     70 H31        10.9890    7.1440   -2.3540 ha        1 1ML      0.145000
     71 H32         7.6150    9.2860   -0.6530 ha        1 1ML      0.145000
     72 H33         6.6860    7.1610    0.1960 ha        1 1ML      0.148500
     73 H34         8.2800   10.6770   -2.3500 h1        1 1ML      0.044700
     74 H35         9.2040   10.9190   -0.7820 h1        1 1ML      0.044700
     75 H36         9.9520   11.4420   -2.3790 h1        1 1ML      0.044700
@<TRIPOS>BOND
     1    1    2 ar  
     2    1    6 ar  
     3    1   14 1   
     4    2    3 ar  
     5    2   41 1   
     6    3    4 ar  
     7    3    7 1   
     8    4    5 ar  
     9    4   42 1   
    10    5    6 ar  
    11    5   43 1   
    12    6   17 1   
    13    7    8 1   
    14    8    9 ar  
    15    8   13 ar  
    16    9   10 ar  
    17    9   44 1   
    18   10   11 ar  
    19   10   45 1   
    20   11   12 ar  
    21   11   30 1   
    22   12   13 ar  
    23   12   46 1   
    24   13   47 1   
    25   14   15 1   
    26   14   16 1   
    27   17   18 1   
    28   17   21 1   
    29   18   19 1   
    30   18   20 1   
    31   18   48 1   
    32   19   49 1   
    33   19   50 1   
    34   19   51 1   
    35   20   52 1   
    36   20   53 1   
    37   20   54 1   
    38   21   22 1   
    39   21   23 2   
    40   22   24 1   
    41   22   28 1   
    42   22   55 1   
    43   24   25 1   
    44   24   56 1   
    45   24   57 1   
    46   25   26 1   
    47   25   58 1   
    48   25   59 1   
    49   26   27 1   
    50   26   29 1   
    51   26   60 1   
    52   27   28 1   
    53   27   61 1   
    54   27   62 1   
    55   28   63 1   
    56   28   64 1   
    57   29   65 1   
    58   29   66 1   
    59   29   67 1   
    60   30   31 1   
    61   30   68 1   
    62   31   32 2   
    63   31   33 1   
    64   33   34 ar  
    65   33   38 ar  
    66   34   35 ar  
    67   34   69 1   
    68   35   36 ar  
    69   35   70 1   
    70   36   37 ar  
    71   36   39 1   
    72   37   38 ar  
    73   37   71 1   
    74   38   72 1   
    75   39   40 1   
    76   40   73 1   
    77   40   74 1   
    78   40   75 1   
@<TRIPOS>SUBSTRUCTURE
     1 1ML         1 TEMP              0 ****  ****    0 ROOT
