@<TRIPOS>MOLECULE
1ML
   77    80     1     0     0
SMALL
bcc


@<TRIPOS>ATOM
      1 C01         0.5990    1.2900    0.8730 ca        1 1ML     -0.145600
      2 C02         1.9600    1.2030    1.1710 ca        1 1ML     -0.118000
      3 C03         2.3650    0.5730    2.3480 ca        1 1ML      0.058100
      4 C04         1.4350    0.0030    3.2260 ca        1 1ML     -0.092000
      5 C05         0.0820    0.0800    2.9160 ca        1 1ML     -0.114000
      6 C06        -0.3660    0.7370    1.7470 ca        1 1ML      0.106600
      7 O07         3.7190    0.3710    2.6440 os        1 1ML     -0.219200
      8 C08         4.5480    1.4650    2.5420 ca        1 1ML      0.181100
      9 C09         4.1040    2.7970    2.5540 ca        1 1ML     -0.154500
     10 C10         5.0250    3.8320    2.4600 ca        1 1ML     -0.069500
     11 C11         6.3960    3.5350    2.3520 ca        1 1ML     -0.102400
     12 C12         6.8440    2.1980    2.3680 ca        1 1ML     -0.069500
     13 C13         5.9240    1.1660    2.4630 ca        1 1ML     -0.154500
     14 C14         0.2240    2.0140   -0.3650 c         1 1ML      0.652700
     15 O15        -0.2980    1.3370   -1.4180 oh        1 1ML     -0.569100
     16 O16         0.3800    3.2220   -0.5610 o         1 1ML     -0.508000
     17 N17        -1.7590    0.8360    1.4620 n         1 1ML     -0.420000
     18 C18        -2.5170    1.8310    2.2140 c3        1 1ML      0.108700
     19 C19        -1.9680    3.2490    2.0380 c3        1 1ML     -0.117100
     20 C20        -2.6160    1.5310    3.7120 c3        1 1ML     -0.117100
     21 C21        -2.3270   -0.0860    0.5760 c         1 1ML      0.679100
     22 C23        -3.8250   -0.1010    0.3080 c3        1 1ML     -0.117700
     23 O22        -1.5610   -0.8800   -0.0080 o         1 1ML     -0.618100
     24 C24        -4.5590   -0.7730    1.4600 c3        1 1ML     -0.073900
     25 C25        -6.0460   -0.8440    1.1810 c3        1 1ML     -0.075400
     26 C26        -6.3330   -1.5730   -0.1240 c3        1 1ML     -0.067700
     27 C27        -5.5830   -0.9140   -1.2730 c3        1 1ML     -0.075400
     28 C28        -4.0960   -0.8470   -0.9960 c3        1 1ML     -0.073900
     29 C29        -7.8190   -1.5970   -0.4030 c3        1 1ML     -0.091100
     30 N30         7.3690    4.6210    2.2350 n4        1 1ML     -0.539200
     31 C31         8.2280    4.4970    0.9750 c         1 1ML      0.591700
     32 O32         9.3090    3.9560    1.1780 o         1 1ML     -0.452100
     33 C33         7.7050    5.0640   -0.2530 ca        1 1ML     -0.256600
     34 C34         8.6420    5.3100   -1.2840 ca        1 1ML     -0.020000
     35 C35         8.2330    5.8360   -2.4940 ca        1 1ML     -0.194500
     36 C36         6.8620    6.1170   -2.7040 ca        1 1ML      0.220100
     37 C37         5.9200    5.8620   -1.6870 ca        1 1ML     -0.194500
     38 C38         6.3450    5.3410   -0.4750 ca        1 1ML     -0.020000
     39 O39         6.5590    6.6300   -3.9290 os        1 1ML     -0.294900
     40 C40         5.1820    6.9070   -4.2040 c3        1 1ML      0.102700
     41 H1          2.7040    1.6320    0.4810 ha        1 1ML      0.155000
     42 H2          1.7780   -0.5130    4.1360 ha        1 1ML      0.166000
     43 H3         -0.6510   -0.3840    3.5980 ha        1 1ML      0.164000
     44 H4          3.0270    3.0250    2.6380 ha        1 1ML      0.184500
     45 H5          4.6610    4.8730    2.4780 ha        1 1ML      0.161500
     46 H6          7.9200    1.9620    2.2930 ha        1 1ML      0.161500
     47 H7          6.2530    0.1140    2.4740 ha        1 1ML      0.184500
     48 H9         -3.5710    1.8280    1.8030 h1        1 1ML      0.072700
     49 H10        -0.9860    3.3640    2.5560 hc        1 1ML      0.049533
     50 H11        -2.6930    3.9700    2.4850 hc        1 1ML      0.049533
     51 H12        -1.8280    3.5020    0.9580 hc        1 1ML      0.049533
     52 H13        -1.6230    1.6470    4.2100 hc        1 1ML      0.049533
     53 H14        -3.3300    2.2560    4.1730 hc        1 1ML      0.049533
     54 H15        -2.9900    0.4960    3.8990 hc        1 1ML      0.049533
     55 H16        -4.2020    0.9530    0.1820 hc        1 1ML      0.073700
     56 H17        -4.1530   -1.8100    1.6030 hc        1 1ML      0.054950
     57 H18        -4.3840   -0.2040    2.4100 hc        1 1ML      0.054950
     58 H19        -6.5560   -1.3770    2.0250 hc        1 1ML      0.047450
     59 H20        -6.4710    0.1930    1.1300 hc        1 1ML      0.047450
     60 H21        -5.9660   -2.6340   -0.0250 hc        1 1ML      0.053700
     61 H22        -5.9860    0.1190   -1.4400 hc        1 1ML      0.047450
     62 H23        -5.7550   -1.4990   -2.2140 hc        1 1ML      0.047450
     63 H24        -3.6690   -1.8820   -0.9270 hc        1 1ML      0.054950
     64 H25        -3.5730   -0.3240   -1.8380 hc        1 1ML      0.054950
     65 H26        -8.3620   -2.1020    0.4320 hc        1 1ML      0.038367
     66 H27        -8.2190   -0.5600   -0.5090 hc        1 1ML      0.038367
     67 H28        -8.0260   -2.1540   -1.3490 hc        1 1ML      0.038367
     68 H29         7.9910    4.5830    3.0550 hn        1 1ML      0.458300
     69 H30         9.7080    5.0750   -1.1150 ha        1 1ML      0.152000
     70 H31         8.9540    6.0360   -3.3040 ha        1 1ML      0.176000
     71 H32         4.8510    6.0640   -1.8510 ha        1 1ML      0.176000
     72 H33         5.5860    5.1220    0.2940 ha        1 1ML      0.152000
     73 H34         4.7950    7.6820   -3.5000 h1        1 1ML      0.066033
     74 H35         5.2130    7.2990   -5.2530 h1        1 1ML      0.066033
     75 H36         4.5780    5.9700   -4.1460 h1        1 1ML      0.066033
     76 H171       -0.3950    0.3910   -1.2060 ho        1 1ML      0.465000
     77 H302        6.8800    5.5210    2.2240 hn        1 1ML      0.458300
@<TRIPOS>BOND
     1    1    2 ar  
     2    1    6 ar  
     3    1   14 1   
     4    2    3 ar  
     5    2   41 1   
     6    3    4 ar  
     7    3    7 1   
     8    4    5 ar  
     9    4   42 1   
    10    5    6 ar  
    11    5   43 1   
    12    6   17 1   
    13    7    8 1   
    14    8    9 ar  
    15    8   13 ar  
    16    9   10 ar  
    17    9   44 1   
    18   10   11 ar  
    19   10   45 1   
    20   11   12 ar  
    21   11   30 1   
    22   12   13 ar  
    23   12   46 1   
    24   13   47 1   
    25   14   15 1   
    26   14   16 2   
    27   15   76 1   
    28   17   18 1   
    29   17   21 1   
    30   18   19 1   
    31   18   20 1   
    32   18   48 1   
    33   19   49 1   
    34   19   50 1   
    35   19   51 1   
    36   20   52 1   
    37   20   53 1   
    38   20   54 1   
    39   21   22 1   
    40   21   23 2   
    41   22   24 1   
    42   22   28 1   
    43   22   55 1   
    44   24   25 1   
    45   24   56 1   
    46   24   57 1   
    47   25   26 1   
    48   25   58 1   
    49   25   59 1   
    50   26   27 1   
    51   26   29 1   
    52   26   60 1   
    53   27   28 1   
    54   27   61 1   
    55   27   62 1   
    56   28   63 1   
    57   28   64 1   
    58   29   65 1   
    59   29   66 1   
    60   29   67 1   
    61   30   31 1   
    62   30   68 1   
    63   30   77 1   
    64   31   32 2   
    65   31   33 1   
    66   33   34 ar  
    67   33   38 ar  
    68   34   35 ar  
    69   34   69 1   
    70   35   36 ar  
    71   35   70 1   
    72   36   37 ar  
    73   36   39 1   
    74   37   38 ar  
    75   37   71 1   
    76   38   72 1   
    77   39   40 1   
    78   40   73 1   
    79   40   74 1   
    80   40   75 1   
@<TRIPOS>SUBSTRUCTURE
     1 1ML         1 TEMP              0 ****  ****    0 ROOT
