@<TRIPOS>MOLECULE
1ML
   75    78     1     0     0
SMALL
bcc


@<TRIPOS>ATOM
      1 C01        -0.2340    0.3310    0.5860 ca        1 1ML     -0.104600
      2 C02         1.1550    0.3260    0.4280 ca        1 1ML     -0.124000
      3 C03         1.9840    0.1430    1.5360 ca        1 1ML      0.055100
      4 C04         1.4520   -0.0480    2.8160 ca        1 1ML     -0.156000
      5 C05         0.0710   -0.0610    2.9750 ca        1 1ML     -0.121000
      6 C06        -0.7890    0.1330    1.8710 ca        1 1ML      0.060600
      7 O07         3.3740    0.0260    1.4040 os        1 1ML     -0.254200
      8 C08         4.0590    1.1590    0.9970 ca        1 1ML      0.121100
      9 C09         3.4610    2.3680    0.6230 ca        1 1ML     -0.155000
     10 C10         4.2560    3.4340    0.2250 ca        1 1ML     -0.132500
     11 C11         5.6660    3.3160    0.1920 ca        1 1ML      0.008600
     12 C12         6.2530    2.0920    0.5730 ca        1 1ML     -0.132500
     13 C13         5.4580    1.0250    0.9730 ca        1 1ML     -0.155000
     14 C14        -1.0740    0.6040   -0.6580 c         1 1ML      0.913200
     15 O15        -0.7360    1.5970   -1.3620 o         1 1ML     -0.825800
     16 O16        -2.0490   -0.1540   -0.9200 o         1 1ML     -0.825800
     17 N17        -2.2000    0.1170    2.0940 n         1 1ML     -0.390000
     18 C18        -2.8780    1.4000    2.2210 c3        1 1ML      0.122700
     19 C19        -2.1980    2.3080    3.2520 c3        1 1ML     -0.118600
     20 C20        -3.0440    2.1880    0.9220 c3        1 1ML     -0.118600
     21 C21        -2.8990   -1.0620    1.8060 c         1 1ML      0.706100
     22 C23        -4.3610   -1.0060    1.3650 c3        1 1ML     -0.121700
     23 O22        -2.3440   -2.1660    1.9680 o         1 1ML     -0.605100
     24 C24        -4.5250   -1.9200    0.1570 c3        1 1ML     -0.080900
     25 C25        -5.9750   -1.9890   -0.2720 c3        1 1ML     -0.067900
     26 C26        -6.8720   -2.4420    0.8710 c3        1 1ML     -0.069700
     27 C27        -6.7050   -1.5210    2.0720 c3        1 1ML     -0.067900
     28 C28        -5.2580   -1.4450    2.5120 c3        1 1ML     -0.080900
     29 C29        -8.3190   -2.4860    0.4320 c3        1 1ML     -0.087100
     30 N30         6.4170    4.4270   -0.2430 n         1 1ML     -0.458100
     31 C31         7.7760    4.6300   -0.1020 c         1 1ML      0.677700
     32 O32         8.5550    3.7890    0.3890 o         1 1ML     -0.601100
     33 C33         8.2950    5.9380   -0.6100 ca        1 1ML     -0.173600
     34 C34         9.5120    5.9370   -1.3080 ca        1 1ML     -0.060000
     35 C35        10.0480    7.1230   -1.7890 ca        1 1ML     -0.189500
     36 C36         9.3600    8.3310   -1.5600 ca        1 1ML      0.138100
     37 C37         8.1530    8.3430   -0.8510 ca        1 1ML     -0.189500
     38 C38         7.6260    7.1410   -0.3790 ca        1 1ML     -0.060000
     39 O39         9.9720    9.4550   -2.0780 os        1 1ML     -0.327900
     40 C40         9.2940   10.6890   -1.8780 c3        1 1ML      0.113700
     41 H1          1.5770    0.4870   -0.5760 ha        1 1ML      0.159000
     42 H2          2.1200   -0.2030    3.6740 ha        1 1ML      0.128000
     43 H3         -0.3520   -0.2310    3.9770 ha        1 1ML      0.127000
     44 H4          2.3630    2.4740    0.6310 ha        1 1ML      0.159500
     45 H5          3.7640    4.3720   -0.0750 ha        1 1ML      0.145500
     46 H6          7.3480    1.9690    0.5620 ha        1 1ML      0.145500
     47 H7          5.9150    0.0700    1.2680 ha        1 1ML      0.159500
     48 H9         -3.9120    1.1680    2.6260 h1        1 1ML      0.031700
     49 H10        -2.1250    1.8040    4.2450 hc        1 1ML      0.045700
     50 H11        -2.8040    3.2380    3.3620 hc        1 1ML      0.045700
     51 H12        -1.1700    2.5850    2.9180 hc        1 1ML      0.045700
     52 H13        -3.7430    3.0390    1.0990 hc        1 1ML      0.045700
     53 H14        -3.4410    1.5390    0.1010 hc        1 1ML      0.045700
     54 H15        -2.0590    2.5850    0.5700 hc        1 1ML      0.045700
     55 H16        -4.6510    0.0320    1.0430 hc        1 1ML      0.068700
     56 H17        -4.1510   -2.9450    0.4150 hc        1 1ML      0.063700
     57 H18        -3.8840   -1.5230   -0.6790 hc        1 1ML      0.063700
     58 H19        -6.0750   -2.7040   -1.1290 hc        1 1ML      0.032200
     59 H20        -6.3110   -0.9820   -0.6330 hc        1 1ML      0.032200
     60 H21        -6.5560   -3.4790    1.1770 hc        1 1ML      0.046700
     61 H22        -7.0720   -0.4950    1.8050 hc        1 1ML      0.032200
     62 H23        -7.3350   -1.8950    2.9200 hc        1 1ML      0.032200
     63 H24        -4.9170   -2.4490    2.8790 hc        1 1ML      0.063700
     64 H25        -5.1640   -0.7210    3.3630 hc        1 1ML      0.063700
     65 H26        -8.4400   -3.1830   -0.4320 hc        1 1ML      0.025700
     66 H27        -8.9700   -2.8380    1.2680 hc        1 1ML      0.025700
     67 H28        -8.6660   -1.4720    0.1180 hc        1 1ML      0.025700
     68 H29         5.8870    5.1560   -0.6660 hn        1 1ML      0.314500
     69 H30        10.0430    4.9830   -1.4600 ha        1 1ML      0.148500
     70 H31        10.9970    7.1380   -2.3420 ha        1 1ML      0.145000
     71 H32         7.6160    9.2820   -0.6590 ha        1 1ML      0.145000
     72 H33         6.6850    7.1600    0.1920 ha        1 1ML      0.148500
     73 H34         9.9580   11.4360   -2.3830 h1        1 1ML      0.044700
     74 H35         9.2040   10.9170   -0.7880 h1        1 1ML      0.044700
     75 H36         8.2860   10.6690   -2.3580 h1        1 1ML      0.044700
@<TRIPOS>BOND
     1    1    2 ar  
     2    1    6 ar  
     3    1   14 1   
     4    2    3 ar  
     5    2   41 1   
     6    3    4 ar  
     7    3    7 1   
     8    4    5 ar  
     9    4   42 1   
    10    5    6 ar  
    11    5   43 1   
    12    6   17 1   
    13    7    8 1   
    14    8    9 ar  
    15    8   13 ar  
    16    9   10 ar  
    17    9   44 1   
    18   10   11 ar  
    19   10   45 1   
    20   11   12 ar  
    21   11   30 1   
    22   12   13 ar  
    23   12   46 1   
    24   13   47 1   
    25   14   15 1   
    26   14   16 1   
    27   17   18 1   
    28   17   21 1   
    29   18   19 1   
    30   18   20 1   
    31   18   48 1   
    32   19   49 1   
    33   19   50 1   
    34   19   51 1   
    35   20   52 1   
    36   20   53 1   
    37   20   54 1   
    38   21   22 1   
    39   21   23 2   
    40   22   24 1   
    41   22   28 1   
    42   22   55 1   
    43   24   25 1   
    44   24   56 1   
    45   24   57 1   
    46   25   26 1   
    47   25   58 1   
    48   25   59 1   
    49   26   27 1   
    50   26   29 1   
    51   26   60 1   
    52   27   28 1   
    53   27   61 1   
    54   27   62 1   
    55   28   63 1   
    56   28   64 1   
    57   29   65 1   
    58   29   66 1   
    59   29   67 1   
    60   30   31 1   
    61   30   68 1   
    62   31   32 2   
    63   31   33 1   
    64   33   34 ar  
    65   33   38 ar  
    66   34   35 ar  
    67   34   69 1   
    68   35   36 ar  
    69   35   70 1   
    70   36   37 ar  
    71   36   39 1   
    72   37   38 ar  
    73   37   71 1   
    74   38   72 1   
    75   39   40 1   
    76   40   73 1   
    77   40   74 1   
    78   40   75 1   
@<TRIPOS>SUBSTRUCTURE
     1 1ML         1 TEMP              0 ****  ****    0 ROOT
