@<TRIPOS>MOLECULE
1ML
   75    69     1     0     0
SMALL
bcc


@<TRIPOS>ATOM
      1 C01        -1.0960   -2.1970   -1.1070 c1        1 1ML     -0.091000
      2 C02         0.2990   -2.1630   -1.0620 c2        1 1ML     -0.123000
      3 C03         0.9700   -2.6030    0.0730 c1        1 1ML      0.007000
      4 C04         0.2460   -3.0800    1.1680 c1        1 1ML     -0.138500
      5 C05        -1.1440   -3.1140    1.1220 c1        1 1ML     -0.138500
      6 C06        -1.8150   -2.6720   -0.0160 c1        1 1ML      0.075000
      7 O07         2.3940   -2.7640    0.0400 os        1 1ML     -0.168000
      8 C08         3.0180   -1.4860    0.0460 c2        1 1ML      0.074000
      9 C09         2.8970   -0.6630    1.1610 c2        1 1ML     -0.156000
     10 C10         3.6440    0.5150    1.2450 c1        1 1ML     -0.142000
     11 C11         4.5080    0.8640    0.2160 c1        1 1ML      0.017000
     12 C12         4.6290    0.0410   -0.8990 c1        1 1ML     -0.125000
     13 C13         3.8830   -1.1350   -0.9840 c1        1 1ML     -0.150000
     14 C14        -1.8200   -1.8400   -2.3920 c1        1 1ML      0.360000
     15 O15        -2.1870   -2.7520   -3.1830 os        1 1ML     -0.576000
     16 O16        -2.0530   -0.6320   -2.6700 o         1 1ML     -0.542000
     17 N17        -3.2730   -2.6580   -0.0410 n2        1 1ML     -0.281000
     18 C18        -4.0190   -3.7930    0.4740 c3        1 1ML      0.042000
     19 C19        -3.9320   -3.8090    1.9890 c3        1 1ML     -0.225000
     20 C20        -3.4290   -5.0840   -0.0830 c3        1 1ML     -0.225000
     21 C21        -3.9830   -1.4780   -0.5250 c2        1 1ML      0.326000
     22 C23        -5.5040   -1.4470   -0.5100 c3        1 1ML     -0.114000
     23 O22        -3.3580   -0.5060   -0.9070 o         1 1ML     -0.378000
     24 C24        -6.0850   -1.2340   -1.9360 c3        1 1ML     -0.164000
     25 C25        -7.5950   -1.0890   -1.9470 c3        1 1ML     -0.145000
     26 C26        -8.0890   -0.0330   -0.9960 c3        1 1ML     -0.102000
     27 C27        -7.5600   -0.1970    0.3910 c3        1 1ML     -0.145000
     28 C28        -6.0460   -0.3300    0.4340 c3        1 1ML     -0.164000
     29 C29        -7.6560    1.3610   -1.5320 c3        1 1ML     -0.206000
     30 N30         5.1800    2.1390    0.2460 n         1 1ML     -0.312000
     31 C31         6.5930    2.1990    0.4730 c2        1 1ML      0.351000
     32 O32         7.2230    1.1770    0.6400 o         1 1ML     -0.363000
     33 C33         7.2930    3.5470    0.5630 c2        1 1ML     -0.153000
     34 C34         7.2920    4.2430    1.7570 c2        1 1ML     -0.070000
     35 C35         8.0510    5.4010    1.8870 c1        1 1ML     -0.213000
     36 C36         8.8060    5.8560    0.8220 c1        1 1ML      0.093000
     37 C37         8.8070    5.1570   -0.3770 c1        1 1ML     -0.167000
     38 C38         8.0530    4.0040   -0.5070 c1        1 1ML     -0.050000
     39 O39         9.5040    7.0880    0.9240 os        1 1ML     -0.211000
     40 C40        10.8090    6.9650    1.4630 c3        1 1ML     -0.076000
     41 H1          0.8030   -1.8290   -1.8270 ha        1 1ML      0.163000
     42 H2          0.7170   -3.4160    1.9550 ha        1 1ML      0.127500
     43 H3         -1.6480   -3.4470    1.8850 ha        1 1ML      0.127500
     44 H4          2.3110   -0.9280    1.9060 ha        1 1ML      0.177000
     45 H5          3.5580    1.0930    2.0290 ha        1 1ML      0.130000
     46 H6          5.2260    0.2990   -1.6370 ha        1 1ML      0.163000
     47 H7          3.9700   -1.7170   -1.7720 ha        1 1ML      0.144000
     48 H9         -4.9510   -3.7200    0.2040 h1        1 1ML      0.115000
     49 H10        -4.8330   -3.8900    2.3660 hc        1 1ML      0.077167
     50 H11        -3.3860   -4.5720    2.2770 hc        1 1ML      0.077167
     51 H12        -3.5220   -2.9780    2.3000 hc        1 1ML      0.077167
     52 H13        -3.4420   -5.0530   -1.0620 hc        1 1ML      0.077167
     53 H14        -2.5060   -5.1820    0.2280 hc        1 1ML      0.077167
     54 H15        -3.9620   -5.8480    0.2280 hc        1 1ML      0.077167
     55 H16        -5.7090   -2.3350   -0.1690 hc        1 1ML      0.095000
     56 H17        -5.6890   -0.4240   -2.3210 hc        1 1ML      0.109500
     57 H18        -5.8410   -1.9950   -2.4890 hc        1 1ML      0.109500
     58 H19        -7.8820   -0.8570   -2.8530 hc        1 1ML      0.069750
     59 H20        -7.9930   -1.9430   -1.7010 hc        1 1ML      0.069750
     60 H21        -9.0630   -0.0700   -0.9660 hc        1 1ML      0.064000
     61 H22        -7.8230    0.5830    0.9220 hc        1 1ML      0.069750
     62 H23        -7.9570   -0.9960    0.7860 hc        1 1ML      0.069750
     63 H24        -5.7760   -0.5350    1.3500 hc        1 1ML      0.109500
     64 H25        -5.6480    0.5230    0.1720 hc        1 1ML      0.109500
     65 H26        -7.1330    1.2480   -2.3550 hc        1 1ML      0.071333
     66 H27        -7.1130    1.8110   -0.8620 hc        1 1ML      0.071333
     67 H28        -8.4540    1.9010   -1.7220 hc        1 1ML      0.071333
     68 H29         4.7120    2.8970    0.1290 hn        1 1ML      0.229000
     69 H30         6.7580    3.9220    2.5090 ha        1 1ML      0.140000
     70 H31         8.0940    5.8590    2.7440 ha        1 1ML      0.139000
     71 H32         9.3420    5.4780   -1.1300 ha        1 1ML      0.151000
     72 H33         8.0540    3.5120   -1.3520 ha        1 1ML      0.157000
     73 H34        11.4250    7.5430    0.9620 h1        1 1ML      0.083667
     74 H35        11.1050    6.0330    1.3920 h1        1 1ML      0.083667
     75 H36        10.8000    7.2360    2.4100 h1        1 1ML      0.083667
@<TRIPOS>BOND
     1    1    2 1   
     2    1    6 1   
     3    2    3 1   
     4    2   41 1   
     5    3    7 1   
     6    4    5 1   
     7    4   42 1   
     8    5   43 1   
     9    7    8 1   
    10    8    9 1   
    11    8   13 1   
    12    9   10 1   
    13    9   44 1   
    14   10   45 1   
    15   11   12 1   
    16   11   30 1   
    17   12   46 1   
    18   13   47 1   
    19   14   16 1   
    20   17   18 1   
    21   17   21 1   
    22   18   19 1   
    23   18   20 1   
    24   18   48 1   
    25   19   49 1   
    26   19   50 1   
    27   19   51 1   
    28   20   52 1   
    29   20   53 1   
    30   20   54 1   
    31   21   22 1   
    32   21   23 1   
    33   22   24 1   
    34   22   28 1   
    35   22   55 1   
    36   24   25 1   
    37   24   56 1   
    38   24   57 1   
    39   25   26 1   
    40   25   58 1   
    41   25   59 1   
    42   26   27 1   
    43   26   29 1   
    44   26   60 1   
    45   27   28 1   
    46   27   61 1   
    47   27   62 1   
    48   28   63 1   
    49   28   64 1   
    50   29   65 1   
    51   29   66 1   
    52   29   67 1   
    53   30   31 1   
    54   30   68 1   
    55   31   32 1   
    56   31   33 1   
    57   33   34 1   
    58   33   38 1   
    59   34   35 1   
    60   34   69 1   
    61   35   70 1   
    62   36   37 1   
    63   36   39 1   
    64   37   71 1   
    65   38   72 1   
    66   39   40 1   
    67   40   73 1   
    68   40   74 1   
    69   40   75 1   
@<TRIPOS>SUBSTRUCTURE
     1 1ML         1 TEMP              0 ****  ****    0 ROOT
