@<TRIPOS>MOLECULE
1MM
   43    44     1     0     0
SMALL
bcc


@<TRIPOS>ATOM
      1 C4          0.5230   -2.8610   -0.2120 ca        1 1MM     -0.082000
      2 C5          1.8790   -2.9210   -0.4770 ca        1 1MM     -0.048000
      3 C6          2.8040   -2.2860    0.3870 ca        1 1MM      0.007000
      4 C1          2.3130   -1.6160    1.4860 ca        1 1MM     -0.100000
      5 C2          0.9100   -1.5390    1.7880 ca        1 1MM     -0.886000
      6 C3          0.0350   -2.1710    0.9220 ca        1 1MM      0.057000
      7 S7          0.5660   -0.7180    3.1790 s6        1 1MM      2.075700
      8 N8         -1.4600    3.2020    4.0080 n         1 1MM     -0.606000
      9 C9         -0.9000    3.5390    5.1930 c         1 1MM      0.660100
     10 N10        -1.5770    4.6110    6.0630 n4        1 1MM     -0.656500
     11 C2'        -1.5780    5.9530    5.4020 ca        1 1MM      0.780900
     12 N1'        -0.7300    6.8780    5.9190 nb        1 1MM     -0.731000
     13 C6'        -0.7760    8.1190    5.2850 ca        1 1MM      0.755300
     14 N5'        -1.5890    8.4160    4.2380 nb        1 1MM     -0.666000
     15 C4'        -2.4100    7.3840    3.8100 ca        1 1MM      0.929300
     16 N3'        -2.4450    6.1070    4.3480 nb        1 1MM     -0.828000
     17 O7A         0.0440    0.5330    3.0140 o         1 1MM     -0.535700
     18 O7B         0.2860   -1.4760    4.2640 o         1 1MM     -0.579300
     19 O9          0.1050    3.0480    5.7210 o         1 1MM     -0.500100
     20 C11         3.0770   -0.9040    2.5100 c2        1 1MM      0.515200
     21 O12         4.3760   -0.7920    2.5610 os        1 1MM     -0.228900
     22 C13         4.9840   -0.0710    3.6760 c3        1 1MM      0.120700
     23 O11         2.3420   -0.3490    3.4420 os        1 1MM     -0.390800
     24 O4'        -3.2050    7.7330    2.7650 os        1 1MM     -0.361100
     25 C5'        -4.1870    6.7920    2.3010 c3        1 1MM      0.114700
     26 C7'         0.1290    9.1940    5.8280 c3        1 1MM     -0.158400
     27 H4         -0.2000   -3.3610   -0.8850 ha        1 1MM      0.194000
     28 H5          2.2570   -3.4660   -1.3620 ha        1 1MM      0.197000
     29 H6          3.8880   -2.3360    0.1780 ha        1 1MM      0.196000
     30 H3         -1.0560   -2.1550    1.0990 ha        1 1MM      0.173000
     31 HN8        -0.9820    2.5060    3.4660 hn        1 1MM      0.376500
     32 H10        -2.5460    4.3440    6.2790 hn        1 1MM      0.493800
     33 H131        4.7060   -0.5780    4.6300 h1        1 1MM      0.105033
     34 H132        6.0760   -0.1730    3.4360 h1        1 1MM      0.105033
     35 H133        4.6370    0.9890    3.6520 h1        1 1MM      0.105033
     36 H5'1       -4.6980    7.3790    1.4910 h1        1 1MM      0.075033
     37 H5'2       -3.6880    5.8850    1.8880 h1        1 1MM      0.075033
     38 H5'3       -4.8990    6.5330    3.1190 h1        1 1MM      0.075033
     39 H7'1       -0.3260    9.6020    6.7680 hc        1 1MM      0.100367
     40 H7'2        0.2450   10.0290    5.0910 hc        1 1MM      0.100367
     41 H7'3        1.1370    8.7720    6.0690 hc        1 1MM      0.100367
     42 H82        -2.2400    3.6740    3.6130 hn        1 1MM      0.376500
     43 H102       -1.0320    4.6630    6.9440 hn        1 1MM      0.493800
@<TRIPOS>BOND
     1    1    2 ar  
     2    1    6 ar  
     3    1   27 1   
     4    2    3 ar  
     5    2   28 1   
     6    3    4 ar  
     7    3   29 1   
     8    4    5 ar  
     9    4   20 2   
    10    5    6 ar  
    11    5    7 2   
    12    6   30 1   
    13    7   17 1   
    14    7   18 2   
    15    7   23 1   
    16    8    9 1   
    17    8   31 1   
    18    8   42 1   
    19    9   10 1   
    20    9   19 2   
    21   10   11 1   
    22   10   32 1   
    23   10   43 1   
    24   11   12 ar  
    25   11   16 ar  
    26   12   13 ar  
    27   13   14 ar  
    28   13   26 1   
    29   14   15 ar  
    30   15   16 ar  
    31   15   24 1   
    32   20   21 1   
    33   20   23 1   
    34   21   22 1   
    35   22   33 1   
    36   22   34 1   
    37   22   35 1   
    38   24   25 1   
    39   25   36 1   
    40   25   37 1   
    41   25   38 1   
    42   26   39 1   
    43   26   40 1   
    44   26   41 1   
@<TRIPOS>SUBSTRUCTURE
     1 1MM         1 TEMP              0 ****  ****    0 ROOT
