@<TRIPOS>MOLECULE
1MM
   41    36     1     0     0
SMALL
bcc


@<TRIPOS>ATOM
      1 C4          5.0120    1.5410   -2.0590 c1        1 1MM     -0.088750
      2 C5          5.9980    1.3490   -1.0910 c1        1 1MM     -0.088750
      3 C6          5.7200    0.6090    0.0400 c1        1 1MM     -0.088750
      4 C1          4.4560    0.0530    0.2160 c1        1 1MM      0.008000
      5 C2          3.4710    0.2440   -0.7500 c1        1 1MM     -0.763000
      6 C3          3.7490    0.9860   -1.8830 c1        1 1MM     -0.088750
      7 S7          1.8280   -0.5150   -0.5380 s4        1 1MM      2.074800
      8 N8          0.6770    0.6560   -0.3310 n2        1 1MM     -0.867000
      9 C9         -0.7380    0.3050   -0.3950 c2        1 1MM      0.443000
     10 N10        -1.7250    1.1840    0.1820 n         1 1MM     -0.319000
     11 C2'        -3.1320    0.8490    0.0910 c2        1 1MM      0.214000
     12 N1'        -4.0220    1.7840   -0.2830 n2        1 1MM     -0.273000
     13 C6'        -5.3400    1.4850   -0.3300 c1        1 1MM      0.107000
     14 N5'        -5.7610    0.2530   -0.0040 n1        1 1MM     -0.285000
     15 C4'        -4.8640   -0.6920    0.3740 c1        1 1MM      0.198000
     16 N3'        -3.5550   -0.3940    0.4210 n1        1 1MM     -0.203000
     17 O7A         1.5040   -1.3740   -1.6450 o         1 1MM     -0.513400
     18 O7B         1.8220   -1.4450    0.5490 o         1 1MM     -0.513400
     19 O9         -1.0880   -0.7160   -0.9570 o         1 1MM     -0.291000
     20 C11         4.1510   -0.7310    1.4500 c2        1 1MM      0.340000
     21 O12         4.6590   -2.0330    1.6000 os        1 1MM     -0.249000
     22 C13         4.8200   -2.4260    2.9410 c3        1 1MM     -0.066000
     23 O11         3.4530   -0.2500    2.3160 o         1 1MM     -0.365000
     24 O4'        -5.3170   -2.0110    0.7400 os        1 1MM     -0.160000
     25 C5'        -6.1740   -2.6340   -0.2500 c3        1 1MM     -0.066000
     26 C7'        -6.3640    2.5640   -0.7590 c3        1 1MM     -0.166000
     27 H4          5.2080    2.0620   -2.8560 ha        1 1MM      0.156750
     28 H5          6.8870    1.7400   -1.2140 ha        1 1MM      0.156750
     29 H6          6.4160    0.4740    0.7220 ha        1 1MM      0.156750
     30 H3          3.0640    1.1180   -2.5560 ha        1 1MM      0.156750
     31 HN8         0.9270    1.5030   -0.0960 hn        1 1MM      0.270000
     32 H10        -1.4690    1.9690    0.5600 hn        1 1MM      0.262000
     33 H131        3.9480   -2.6670    3.3170 h1        1 1MM      0.099333
     34 H132        5.4220   -3.2030    2.9850 h1        1 1MM      0.099333
     35 H133        5.2050   -1.6820    3.4550 h1        1 1MM      0.099333
     36 H5'1       -7.1130   -2.4000   -0.0650 h1        1 1MM      0.096333
     37 H5'2       -5.9280   -2.3160   -1.1400 h1        1 1MM      0.096333
     38 H5'3       -6.0640   -3.6180   -0.2090 h1        1 1MM      0.096333
     39 H7'1       -7.2790    2.2100   -0.6520 hc        1 1MM      0.107667
     40 H7'2       -6.2120    2.8040   -1.7030 hc        1 1MM      0.107667
     41 H7'3       -6.2540    3.3660   -0.1930 hc        1 1MM      0.107667
@<TRIPOS>BOND
     1    1    6 1   
     2    1   27 1   
     3    2    3 1   
     4    2   28 1   
     5    3   29 1   
     6    4    5 1   
     7    4   20 1   
     8    5    7 1   
     9    6   30 1   
    10    7   17 1   
    11    7   18 1   
    12    8    9 1   
    13    8   31 1   
    14    9   10 1   
    15    9   19 1   
    16   10   11 1   
    17   10   32 1   
    18   11   12 1   
    19   11   16 1   
    20   12   13 1   
    21   13   26 1   
    22   14   15 1   
    23   15   24 1   
    24   20   21 1   
    25   20   23 1   
    26   21   22 1   
    27   22   33 1   
    28   22   34 1   
    29   22   35 1   
    30   24   25 1   
    31   25   36 1   
    32   25   37 1   
    33   25   38 1   
    34   26   39 1   
    35   26   40 1   
    36   26   41 1   
@<TRIPOS>SUBSTRUCTURE
     1 1MM         1 TEMP              0 ****  ****    0 ROOT
