@<TRIPOS>MOLECULE
1MM
   41    42     1     0     0
SMALL
bcc


@<TRIPOS>ATOM
      1 C4         -3.0740    2.1680   -2.3870 ca        1 1MM     -0.129000
      2 C5         -3.7750    1.1360   -3.0040 ca        1 1MM     -0.076000
      3 C6         -3.8890   -0.1020   -2.3690 ca        1 1MM     -0.109000
      4 C1         -3.3000   -0.3040   -1.1200 ca        1 1MM     -0.008600
      5 C2         -2.6130    0.7360   -0.4680 ca        1 1MM     -0.330500
      6 C3         -2.5030    1.9650   -1.1300 ca        1 1MM     -0.020000
      7 S7         -1.9550    0.6340    1.0990 sy        1 1MM      1.517900
      8 N8         -0.6230   -0.3100    0.8740 n         1 1MM     -0.671300
      9 C9          0.6040    0.0750    0.2980 c         1 1MM      0.822100
     10 N10         1.6370   -0.8900    0.2720 n         1 1MM     -0.550400
     11 C2'         3.0000   -0.5710    0.1260 ca        1 1MM      0.828900
     12 N1'         3.8230   -1.5930   -0.3310 nb        1 1MM     -0.802000
     13 C6'         5.1500   -1.2700   -0.4340 ca        1 1MM      0.717300
     14 N5'         5.7020   -0.0550   -0.1360 nb        1 1MM     -0.746000
     15 C4'         4.7910    0.8770    0.3150 ca        1 1MM      0.895300
     16 N3'         3.4390    0.6920    0.4800 nb        1 1MM     -0.789000
     17 O7A        -1.6280    1.9190    1.5430 o         1 1MM     -0.629300
     18 O7B        -2.8400   -0.0960    1.9130 o         1 1MM     -0.629300
     19 O9          0.7230    1.2140   -0.1910 o         1 1MM     -0.563100
     20 C11        -3.3930   -1.6560   -0.5210 c         1 1MM      0.645700
     21 O12        -4.6190   -2.2360   -0.6670 os        1 1MM     -0.416900
     22 C13        -4.7900   -3.5260   -0.0700 c3        1 1MM      0.124700
     23 O11        -2.4990   -2.3050    0.0330 o         1 1MM     -0.559000
     24 O4'         5.3670    2.0880    0.6150 os        1 1MM     -0.408100
     25 C5'         4.5000    3.1360    1.0690 c3        1 1MM      0.121700
     26 C7'         6.0780   -2.3550   -0.9280 c3        1 1MM     -0.141400
     27 H4         -2.9700    3.1450   -2.8840 ha        1 1MM      0.150000
     28 H5         -4.2380    1.2900   -3.9910 ha        1 1MM      0.146000
     29 H6         -4.4480   -0.9230   -2.8460 ha        1 1MM      0.157000
     30 H3         -1.9500    2.7910   -0.6420 ha        1 1MM      0.179000
     31 HN8        -0.7170   -1.2790    1.1150 hn        1 1MM      0.355500
     32 H10         1.3990   -1.8590    0.2430 hn        1 1MM      0.351500
     33 H131       -4.1010   -4.2590   -0.5530 h1        1 1MM      0.058033
     34 H132       -4.5870   -3.4660    1.0260 h1        1 1MM      0.058033
     35 H133       -5.8620   -3.7660   -0.2800 h1        1 1MM      0.058033
     36 H5'1        3.7320    3.3760    0.2960 h1        1 1MM      0.061033
     37 H5'2        4.0160    2.8530    2.0340 h1        1 1MM      0.061033
     38 H5'3        5.2130    3.9880    1.2100 h1        1 1MM      0.061033
     39 H7'1        5.7560   -2.6840   -1.9470 hc        1 1MM      0.069700
     40 H7'2        7.1330   -1.9910   -0.9800 hc        1 1MM      0.069700
     41 H7'3        6.0290   -3.2290   -0.2330 hc        1 1MM      0.069700
@<TRIPOS>BOND
     1    1    2 ar  
     2    1    6 ar  
     3    1   27 1   
     4    2    3 ar  
     5    2   28 1   
     6    3    4 ar  
     7    3   29 1   
     8    4    5 ar  
     9    4   20 1   
    10    5    6 ar  
    11    5    7 1   
    12    6   30 1   
    13    7    8 1   
    14    7   17 2   
    15    7   18 2   
    16    8    9 1   
    17    8   31 1   
    18    9   10 1   
    19    9   19 2   
    20   10   11 1   
    21   10   32 1   
    22   11   12 ar  
    23   11   16 ar  
    24   12   13 ar  
    25   13   14 ar  
    26   13   26 1   
    27   14   15 ar  
    28   15   16 ar  
    29   15   24 1   
    30   20   21 1   
    31   20   23 2   
    32   21   22 1   
    33   22   33 1   
    34   22   34 1   
    35   22   35 1   
    36   24   25 1   
    37   25   36 1   
    38   25   37 1   
    39   25   38 1   
    40   26   39 1   
    41   26   40 1   
    42   26   41 1   
@<TRIPOS>SUBSTRUCTURE
     1 1MM         1 TEMP              0 ****  ****    0 ROOT
