@<TRIPOS>MOLECULE
1MM
   42    42     1     0     0
SMALL
bcc


@<TRIPOS>ATOM
      1 C4          0.6390    0.4000    0.0530 ca        1 1MM     -0.135000
      2 C5          1.9910    0.0710    0.1050 ca        1 1MM      0.004000
      3 C6          2.5760   -0.2750    1.3340 ca        1 1MM     -0.103000
      4 C1          1.8080   -0.3080    2.4880 ca        1 1MM      0.020400
      5 C2          0.4090   -0.0550    2.4530 ca        1 1MM     -0.517500
      6 C3         -0.1350    0.3430    1.2080 ca        1 1MM      0.043000
      7 S7         -0.5950   -0.2480    3.6730 s4        1 1MM      1.655300
      8 N8         -0.1860    1.6300    4.9490 nt        1 1MM     -0.716000
      9 C9         -0.5000    2.8650    4.2170 c         1 1MM      0.750100
     10 N10        -0.4850    4.0670    4.9020 ns        1 1MM     -0.532400
     11 C2'        -0.9380    5.2950    4.3290 ca        1 1MM      0.797900
     12 N1'        -0.2740    6.4320    4.7400 nb        1 1MM     -0.779000
     13 C6'        -0.7510    7.6070    4.2070 ca        1 1MM      0.729300
     14 N5'        -1.7930    7.7080    3.3290 nb        1 1MM     -0.714000
     15 C4'        -2.3790    6.5040    2.9980 ca        1 1MM      0.901300
     16 N3'        -2.0070    5.2580    3.4610 nb        1 1MM     -0.789000
     17 O7A        -1.9080    0.0110    3.4430 o         1 1MM     -0.423900
     18 O7B        -0.2080   -1.0870    4.6700 o         1 1MM     -0.423900
     19 O9         -0.7550    2.7080    3.0100 o         1 1MM     -0.547100
     20 C11         2.4940   -0.5280    3.7870 c         1 1MM      0.631700
     21 O12         3.4830   -1.4480    3.7520 os        1 1MM     -0.392900
     22 C13         4.1890   -1.6890    4.9830 c3        1 1MM      0.121700
     23 O11         2.2520    0.0830    4.8360 o         1 1MM     -0.569000
     24 O4'        -3.4230    6.6410    2.1230 os        1 1MM     -0.390100
     25 C5'        -4.1330    5.4570    1.7370 c3        1 1MM      0.119700
     26 C7'        -0.0760    8.8850    4.6400 c3        1 1MM     -0.148400
     27 H4          0.1750    0.7060   -0.9010 ha        1 1MM      0.183000
     28 H5          2.6100    0.0940   -0.8090 ha        1 1MM      0.179000
     29 H6          3.6540   -0.5170    1.3850 ha        1 1MM      0.188000
     30 H3         -1.2080    0.6210    1.1560 ha        1 1MM      0.189000
     31 HN8        -0.7450    1.5430    5.7840 hn        1 1MM      0.323000
     32 H10        -0.0220    4.1420    5.7850 hn        1 1MM      0.361500
     33 H131        3.4720   -2.0400    5.7630 h1        1 1MM      0.074033
     34 H132        4.7010   -0.7530    5.3100 h1        1 1MM      0.074033
     35 H133        4.9190   -2.4870    4.6970 h1        1 1MM      0.074033
     36 H5'1       -4.9140    5.8670    1.0450 h1        1 1MM      0.064033
     37 H5'2       -3.4550    4.7490    1.2040 h1        1 1MM      0.064033
     38 H5'3       -4.6000    4.9720    2.6260 h1        1 1MM      0.064033
     39 H7'1       -0.6350    9.3000    5.5170 hc        1 1MM      0.081367
     40 H7'2        0.9830    8.6970    4.9410 hc        1 1MM      0.081367
     41 H7'3       -0.0940    9.6380    3.8130 hc        1 1MM      0.081367
     42 H82         0.7940    1.5930    5.2040 hn        1 1MM      0.323000
@<TRIPOS>BOND
     1    1    2 ar  
     2    1    6 ar  
     3    1   27 1   
     4    2    3 ar  
     5    2   28 1   
     6    3    4 ar  
     7    3   29 1   
     8    4    5 ar  
     9    4   20 1   
    10    5    6 ar  
    11    5    7 1   
    12    6   30 1   
    13    7   17 1   
    14    7   18 1   
    15    8    9 1   
    16    8   31 1   
    17    8   42 1   
    18    9   10 1   
    19    9   19 2   
    20   10   11 1   
    21   10   32 1   
    22   11   12 ar  
    23   11   16 ar  
    24   12   13 ar  
    25   13   14 ar  
    26   13   26 1   
    27   14   15 ar  
    28   15   16 ar  
    29   15   24 1   
    30   20   21 1   
    31   20   23 2   
    32   21   22 1   
    33   22   33 1   
    34   22   34 1   
    35   22   35 1   
    36   24   25 1   
    37   25   36 1   
    38   25   37 1   
    39   25   38 1   
    40   26   39 1   
    41   26   40 1   
    42   26   41 1   
@<TRIPOS>SUBSTRUCTURE
     1 1MM         1 TEMP              0 ****  ****    0 ROOT
