@<TRIPOS>MOLECULE
1MM
   42    42     1     0     0
SMALL
bcc


@<TRIPOS>ATOM
      1 C4          0.6080    0.4250    0.0320 ca        1 1MM     -0.135000
      2 C5          1.9630    0.1070    0.0650 ca        1 1MM      0.004000
      3 C6          2.5660   -0.2440    1.2830 ca        1 1MM     -0.103000
      4 C1          1.8130   -0.2900    2.4470 ca        1 1MM      0.020400
      5 C2          0.4120   -0.0480    2.4310 ca        1 1MM     -0.517500
      6 C3         -0.1510    0.3540    1.1960 ca        1 1MM      0.043000
      7 S7         -0.5750   -0.2570    3.6620 s4        1 1MM      1.655300
      8 N8         -0.1650    1.6150    4.9470 n         1 1MM     -0.716000
      9 C9         -0.4940    2.8530    4.2270 c         1 1MM      0.750100
     10 N10        -0.4750    4.0510    4.9190 n         1 1MM     -0.532400
     11 C2'        -0.9400    5.2810    4.3590 ca        1 1MM      0.797900
     12 N1'        -0.2740    6.4170    4.7670 nb        1 1MM     -0.780000
     13 C6'        -0.7630    7.5940    4.2470 ca        1 1MM      0.729300
     14 N5'        -1.8170    7.6960    3.3840 nb        1 1MM     -0.713000
     15 C4'        -2.4040    6.4910    3.0550 ca        1 1MM      0.901300
     16 N3'        -2.0200    5.2440    3.5060 nb        1 1MM     -0.789000
     17 O7A        -1.8930   -0.0060    3.4500 o         1 1MM     -0.423400
     18 O7B        -0.1700   -1.1000    4.6480 o         1 1MM     -0.423400
     19 O9         -0.7620    2.7030    3.0230 o         1 1MM     -0.547100
     20 C11         2.5170   -0.5150    3.7360 c         1 1MM      0.631700
     21 O12         3.5130   -1.4250    3.6820 os        1 1MM     -0.392900
     22 C13         4.2360   -1.6700    4.9020 c3        1 1MM      0.121700
     23 O11         2.2830    0.0870    4.7920 o         1 1MM     -0.569000
     24 O4'        -3.4600    6.6290    2.1950 os        1 1MM     -0.390100
     25 C5'        -4.1710    5.4440    1.8130 c3        1 1MM      0.119700
     26 C7'        -0.0810    8.8690    4.6770 c3        1 1MM     -0.148400
     27 H4          0.1300    0.7350   -0.9140 ha        1 1MM      0.183000
     28 H5          2.5700    0.1400   -0.8570 ha        1 1MM      0.179000
     29 H6          3.6460   -0.4780    1.3200 ha        1 1MM      0.188000
     30 H3         -1.2270    0.6240    1.1590 ha        1 1MM      0.189000
     31 HN8         0.8180    1.5820    5.1930 hn        1 1MM      0.323000
     32 H10        -0.0010    4.1220    5.7960 hn        1 1MM      0.361500
     33 H131        4.9690   -2.4600    4.6010 h1        1 1MM      0.074033
     34 H132        3.5320   -2.0340    5.6880 h1        1 1MM      0.074033
     35 H133        4.7430   -0.7320    5.2300 h1        1 1MM      0.074033
     36 H5'1       -3.4980    4.7420    1.2670 h1        1 1MM      0.064033
     37 H5'2       -4.9630    5.8560    1.1340 h1        1 1MM      0.064033
     38 H5'3       -4.6240    4.9530    2.7060 h1        1 1MM      0.064033
     39 H7'1       -0.4430    9.1380    5.7020 hc        1 1MM      0.080700
     40 H7'2       -0.3220    9.7080    3.9780 hc        1 1MM      0.080700
     41 H7'3        1.0270    8.7270    4.7100 hc        1 1MM      0.080700
     42 H82        -0.7160    1.5190    5.7870 hn        1 1MM      0.323000
@<TRIPOS>BOND
     1    1    2 ar  
     2    1    6 ar  
     3    1   27 1   
     4    2    3 ar  
     5    2   28 1   
     6    3    4 ar  
     7    3   29 1   
     8    4    5 ar  
     9    4   20 1   
    10    5    6 ar  
    11    5    7 1   
    12    6   30 1   
    13    7   17 1   
    14    7   18 1   
    15    8    9 1   
    16    8   31 1   
    17    8   42 1   
    18    9   10 1   
    19    9   19 2   
    20   10   11 1   
    21   10   32 1   
    22   11   12 ar  
    23   11   16 ar  
    24   12   13 ar  
    25   13   14 ar  
    26   13   26 1   
    27   14   15 ar  
    28   15   16 ar  
    29   15   24 1   
    30   20   21 1   
    31   20   23 2   
    32   21   22 1   
    33   22   33 1   
    34   22   34 1   
    35   22   35 1   
    36   24   25 1   
    37   25   36 1   
    38   25   37 1   
    39   25   38 1   
    40   26   39 1   
    41   26   40 1   
    42   26   41 1   
@<TRIPOS>SUBSTRUCTURE
     1 1MM         1 TEMP              0 ****  ****    0 ROOT
