@<TRIPOS>MOLECULE
1MN
   50    53     1     0     0
SMALL
bcc


@<TRIPOS>ATOM
      1 C3          0.0690   -0.3380    0.0840 ca        1 1MN     -0.110000
      2 C2          1.4590   -0.2450    0.0360 ca        1 1MN     -0.105000
      3 C1          2.1630    0.2520    1.1360 ca        1 1MN     -0.018900
      4 BR1         4.0300    0.3800    1.0750 br        1 1MN     -0.084100
      5 C4          1.4710    0.6530    2.2810 ca        1 1MN     -0.105000
      6 C5          0.0810    0.5610    2.3230 ca        1 1MN     -0.110000
      7 C6         -0.6300    0.0620    1.2270 ca        1 1MN     -0.099300
      8 C7         -2.1380   -0.0210    1.2920 c3        1 1MN      0.130000
      9 N1         -2.8040    0.7910    0.2860 n         1 1MN     -0.460800
     10 C8         -2.6860    2.2170    0.4330 c3        1 1MN      0.070300
     11 C9         -3.1830    0.2360   -0.9290 c         1 1MN      0.666500
     12 O1         -3.5660    0.9540   -1.8730 o         1 1MN     -0.628500
     13 C10        -3.2130   -1.2880   -1.0920 c3        1 1MN      0.077100
     14 C11        -4.6650   -1.7620   -1.1740 c3        1 1MN     -0.053100
     15 C12        -4.8100   -3.0120   -1.9670 ca        1 1MN     -0.089300
     16 C13        -4.0750   -4.1560   -1.6350 ca        1 1MN     -0.122000
     17 C14        -4.2380   -5.3330   -2.3620 ca        1 1MN     -0.130500
     18 C15        -5.1370   -5.3780   -3.4290 ca        1 1MN     -0.127000
     19 C16        -5.8700   -4.2410   -3.7660 ca        1 1MN     -0.130500
     20 C17        -5.7080   -3.0620   -3.0400 ca        1 1MN     -0.122000
     21 O2         -2.4740   -1.9990   -0.1030 os        1 1MN     -0.406600
     22 C18        -2.6520   -1.4880    1.2200 c3        1 1MN      0.181400
     23 C19        -1.9540   -2.3910    2.1880 ca        1 1MN     -0.074300
     24 C20        -1.0450   -3.3650    1.7660 ca        1 1MN     -0.111500
     25 C21        -0.4330   -4.2050    2.6960 ca        1 1MN     -0.104000
     26 C22        -0.7260   -4.0750    4.0550 ca        1 1MN     -0.020900
     27 BR2         0.0970   -5.1990    5.3060 br        1 1MN     -0.084100
     28 C23        -1.6390   -3.1050    4.4820 ca        1 1MN     -0.104000
     29 C24        -2.2520   -2.2700    3.5510 ca        1 1MN     -0.111500
     30 H1         -0.4850   -0.7450   -0.7790 ha        1 1MN      0.142000
     31 H2          1.9930   -0.5650   -0.8730 ha        1 1MN      0.149500
     32 H3          2.0150    1.0440    3.1560 ha        1 1MN      0.149500
     33 H4         -0.4540    0.8820    3.2310 ha        1 1MN      0.142000
     34 H5         -2.4640    0.3820    2.3020 h1        1 1MN      0.067700
     35 H6         -1.6070    2.5290    0.4710 h1        1 1MN      0.052033
     36 H7         -3.1860    2.5270    1.3890 h1        1 1MN      0.052033
     37 H8         -3.1870    2.7330   -0.4300 h1        1 1MN      0.052033
     38 H9         -2.6670   -1.5390   -2.0500 h1        1 1MN      0.112700
     39 H10        -5.0610   -1.9400   -0.1380 hc        1 1MN      0.069200
     40 H11        -5.2780   -0.9410   -1.6390 hc        1 1MN      0.069200
     41 H12        -3.3600   -4.1130   -0.7970 ha        1 1MN      0.140000
     42 H13        -3.6560   -6.2270   -2.0950 ha        1 1MN      0.132000
     43 H14        -5.2660   -6.3070   -4.0020 ha        1 1MN      0.131000
     44 H15        -6.5770   -4.2720   -4.6080 ha        1 1MN      0.132000
     45 H16        -6.2870   -2.1670   -3.3130 ha        1 1MN      0.140000
     46 H17        -3.7560   -1.4850    1.4660 h1        1 1MN      0.061700
     47 H18        -0.8150   -3.4690    0.6930 ha        1 1MN      0.146000
     48 H19         0.2830   -4.9660    2.3470 ha        1 1MN      0.149000
     49 H20        -1.8810   -2.9980    5.5510 ha        1 1MN      0.149000
     50 H21        -2.9750   -1.5130    3.8920 ha        1 1MN      0.146000
@<TRIPOS>BOND
     1    1    2 ar  
     2    1    7 ar  
     3    1   30 1   
     4    2    3 ar  
     5    2   31 1   
     6    3    4 1   
     7    3    5 ar  
     8    5    6 ar  
     9    5   32 1   
    10    6    7 ar  
    11    6   33 1   
    12    7    8 1   
    13    8    9 1   
    14    8   22 1   
    15    8   34 1   
    16    9   10 1   
    17    9   11 1   
    18   10   35 1   
    19   10   36 1   
    20   10   37 1   
    21   11   12 2   
    22   11   13 1   
    23   13   14 1   
    24   13   21 1   
    25   13   38 1   
    26   14   15 1   
    27   14   39 1   
    28   14   40 1   
    29   15   16 ar  
    30   15   20 ar  
    31   16   17 ar  
    32   16   41 1   
    33   17   18 ar  
    34   17   42 1   
    35   18   19 ar  
    36   18   43 1   
    37   19   20 ar  
    38   19   44 1   
    39   20   45 1   
    40   21   22 1   
    41   22   23 1   
    42   22   46 1   
    43   23   24 ar  
    44   23   29 ar  
    45   24   25 ar  
    46   24   47 1   
    47   25   26 ar  
    48   25   48 1   
    49   26   27 1   
    50   26   28 ar  
    51   28   29 ar  
    52   28   49 1   
    53   29   50 1   
@<TRIPOS>SUBSTRUCTURE
     1 1MN         1 TEMP              0 ****  ****    0 ROOT
