@<TRIPOS>MOLECULE
1MN
   50    43     1     0     0
SMALL
bcc


@<TRIPOS>ATOM
      1 C3          2.4300    0.6760    0.1380 c1        1 1MN     -0.104000
      2 C2          3.8280    0.6990    0.1310 c1        1 1MN     -0.105000
      3 C1          4.5290    0.9160    1.3160 c1        1 1MN     -0.160000
      4 BR1         6.4470    0.9260    1.3080 br        1 1MN      0.056000
      5 C4          3.8330    1.1110    2.5140 c1        1 1MN     -0.122000
      6 C5          2.4400    1.0880    2.5220 c1        1 1MN     -0.122000
      7 C6          1.7360    0.8700    1.3290 c1        1 1MN     -0.093000
      8 C7          0.0370    0.9820    1.3140 c2        1 1MN      0.045000
      9 N1         -0.2870    1.8850    0.5040 n3        1 1MN     -0.316000
     10 C8         -0.3430    3.2820    0.9440 c3        1 1MN     -0.087000
     11 C9         -0.0350    1.5740   -0.8840 c1        1 1MN      0.274000
     12 O1          0.3230    2.4550   -1.6560 o         1 1MN     -0.357000
     13 C10        -0.7600    0.2330   -1.4520 c2        1 1MN      0.015000
     14 C11        -2.0570    0.3940   -1.5350 c3        1 1MN     -0.139000
     15 C12        -2.5390   -0.0210   -2.9350 c1        1 1MN     -0.086000
     16 C13        -3.5140   -0.9880   -3.0680 c1        1 1MN     -0.122000
     17 C14        -4.0130   -1.3080   -4.3300 c1        1 1MN     -0.122000
     18 C15        -3.5280   -0.6540   -5.4560 c1        1 1MN     -0.122000
     19 C16        -2.5460    0.3200   -5.3250 c1        1 1MN     -0.122000
     20 C17        -2.0490    0.6390   -4.0680 c1        1 1MN     -0.126000
     21 O2         -0.2570   -0.7550   -0.3040 os        1 1MN     -0.259000
     22 C18        -0.4960   -0.3200    1.0160 c3        1 1MN      0.062000
     23 C19         0.1590   -1.3770    2.0250 c2        1 1MN     -0.067000
     24 C20         0.9930   -2.3730    1.5390 c2        1 1MN     -0.093000
     25 C21         1.4820   -3.3660    2.4070 c1        1 1MN     -0.104000
     26 C22         1.1300   -3.3500    3.7470 c1        1 1MN     -0.160000
     27 BR2         1.9810   -4.5700    4.9760 br        1 1MN      0.056000
     28 C23         0.2870   -2.3420    4.2370 c1        1 1MN     -0.105000
     29 C24        -0.1960   -1.3610    3.3790 c1        1 1MN     -0.128000
     30 H1          1.9390    0.5240   -0.6960 ha        1 1MN      0.149000
     31 H2          4.3090    0.5650   -0.6960 ha        1 1MN      0.149000
     32 H3          4.3220    1.2620    3.3400 ha        1 1MN      0.135333
     33 H4          1.9580    1.2240    3.3520 ha        1 1MN      0.135333
     34 H5         -0.2730    1.2520    2.2330 h4        1 1MN      0.108000
     35 H6         -1.1370    3.7240    0.5440 h1        1 1MN      0.091333
     36 H7          0.4770    3.7530    0.6530 h1        1 1MN      0.091333
     37 H8         -0.4090    3.3130    1.9380 h1        1 1MN      0.091333
     38 H9         -0.5300   -0.0840   -2.3570 h4        1 1MN      0.155000
     39 H10        -2.4980   -0.1620   -0.8600 hc        1 1MN      0.105500
     40 H11        -2.2780    1.3270   -1.3810 hc        1 1MN      0.105500
     41 H12        -3.8560   -1.4490   -2.2770 ha        1 1MN      0.135333
     42 H13        -4.6930   -1.9820   -4.4220 ha        1 1MN      0.135333
     43 H14        -3.8750   -0.8770   -6.3310 ha        1 1MN      0.135333
     44 H15        -2.2040    0.7820   -6.1190 ha        1 1MN      0.135333
     45 H16        -1.3770    1.3050   -3.9780 ha        1 1MN      0.161000
     46 H17        -1.4600   -0.3020    1.1660 h1        1 1MN      0.101000
     47 H18         1.2420   -2.3840    0.5850 ha        1 1MN      0.158000
     48 H19         2.0680   -4.0640    2.0670 ha        1 1MN      0.151000
     49 H20         0.0380   -2.3300    5.1860 ha        1 1MN      0.149000
     50 H21        -0.7780   -0.6640    3.7190 ha        1 1MN      0.134000
@<TRIPOS>BOND
     1    1    7 1   
     2    1   30 1   
     3    2    3 1   
     4    2   31 1   
     5    3    4 1   
     6    5    6 1   
     7    5   32 1   
     8    6   33 1   
     9    8    9 1   
    10    8   22 1   
    11    8   34 1   
    12    9   10 1   
    13    9   11 1   
    14   10   35 1   
    15   10   36 1   
    16   10   37 1   
    17   11   12 1   
    18   13   14 1   
    19   13   21 1   
    20   13   38 1   
    21   14   15 1   
    22   14   39 1   
    23   14   40 1   
    24   15   20 1   
    25   16   17 1   
    26   16   41 1   
    27   17   42 1   
    28   18   19 1   
    29   18   43 1   
    30   19   44 1   
    31   20   45 1   
    32   21   22 1   
    33   22   23 1   
    34   22   46 1   
    35   23   24 1   
    36   23   29 1   
    37   24   25 1   
    38   24   47 1   
    39   25   48 1   
    40   26   27 1   
    41   26   28 1   
    42   28   49 1   
    43   29   50 1   
@<TRIPOS>SUBSTRUCTURE
     1 1MN         1 TEMP              0 ****  ****    0 ROOT
