@<TRIPOS>MOLECULE
1MN
   50    53     1     0     0
SMALL
bcc


@<TRIPOS>ATOM
      1 C3         -0.5700    2.0380    0.3430 ca        1 1MN     -0.110000
      2 C2         -1.7460    2.3740    1.0100 ca        1 1MN     -0.105000
      3 C1         -2.9660    2.3520    0.3280 ca        1 1MN     -0.018900
      4 BR1        -4.5490    2.8020    1.2210 br        1 1MN     -0.084100
      5 C4         -3.0010    1.9930   -1.0220 ca        1 1MN     -0.105000
      6 C5         -1.8210    1.6630   -1.6870 ca        1 1MN     -0.110000
      7 C6         -0.5970    1.6790   -1.0080 ca        1 1MN     -0.099300
      8 C7          0.6700    1.3250   -1.7510 c3        1 1MN      0.130000
      9 N1          1.6360    2.4120   -1.7940 n         1 1MN     -0.460800
     10 C8          1.2730    3.5620   -2.5780 c3        1 1MN      0.070300
     11 C9          2.6430    2.4960   -0.8420 c         1 1MN      0.666500
     12 O1          3.3480    3.5190   -0.7410 o         1 1MN     -0.628500
     13 C10         2.9520    1.2860    0.0470 c3        1 1MN      0.077100
     14 C11         4.2980    0.6850   -0.3630 c3        1 1MN     -0.053100
     15 C12         4.9860    0.0080    0.7690 ca        1 1MN     -0.089300
     16 C13         4.3420   -1.0050    1.4900 ca        1 1MN     -0.122000
     17 C14         5.0020   -1.6570    2.5300 ca        1 1MN     -0.130500
     18 C15         6.3110   -1.3030    2.8580 ca        1 1MN     -0.127000
     19 C16         6.9570   -0.2930    2.1450 ca        1 1MN     -0.130500
     20 C17         6.2980    0.3610    1.1050 ca        1 1MN     -0.122000
     21 O2          1.9190    0.3060    0.0860 os        1 1MN     -0.406600
     22 C18         1.3410    0.0360   -1.1940 c3        1 1MN      0.181400
     23 C19         0.3780   -1.1020   -1.0610 ca        1 1MN     -0.074300
     24 C20        -0.0580   -1.5600    0.1850 ca        1 1MN     -0.111500
     25 C21        -0.9370   -2.6390    0.2700 ca        1 1MN     -0.104000
     26 C22        -1.3840   -3.2700   -0.8940 ca        1 1MN     -0.020900
     27 BR2        -2.5660   -4.7180   -0.7840 br        1 1MN     -0.084100
     28 C23        -0.9460   -2.8190   -2.1430 ca        1 1MN     -0.104000
     29 C24        -0.0670   -1.7420   -2.2250 ca        1 1MN     -0.111500
     30 H1          0.3900    2.0410    0.8850 ha        1 1MN      0.142000
     31 H2         -1.7050    2.6540    2.0750 ha        1 1MN      0.149500
     32 H3         -3.9560    1.9700   -1.5700 ha        1 1MN      0.149500
     33 H4         -1.8610    1.3840   -2.7510 ha        1 1MN      0.142000
     34 H5          0.3900    1.0980   -2.8270 h1        1 1MN      0.067700
     35 H6          0.2900    3.9850   -2.2360 h1        1 1MN      0.052033
     36 H7          2.0650    4.3520   -2.4870 h1        1 1MN      0.052033
     37 H8          1.1800    3.2540   -3.6540 h1        1 1MN      0.052033
     38 H9          2.9990    1.6520    1.1160 h1        1 1MN      0.112700
     39 H10         4.1410   -0.0580   -1.1910 hc        1 1MN      0.069200
     40 H11         4.9460    1.5130   -0.7630 hc        1 1MN      0.069200
     41 H12         3.3050   -1.2750    1.2320 ha        1 1MN      0.140000
     42 H13         4.4900   -2.4510    3.0910 ha        1 1MN      0.132000
     43 H14         6.8320   -1.8190    3.6780 ha        1 1MN      0.131000
     44 H15         7.9880   -0.0100    2.4030 ha        1 1MN      0.132000
     45 H16         6.8120    1.1590    0.5480 ha        1 1MN      0.140000
     46 H17         2.1610   -0.2700   -1.9090 h1        1 1MN      0.061700
     47 H18         0.2970   -1.0640    1.1030 ha        1 1MN      0.146000
     48 H19        -1.2730   -2.9860    1.2590 ha        1 1MN      0.149000
     49 H20        -1.2890   -3.3110   -3.0670 ha        1 1MN      0.149000
     50 H21         0.2810   -1.3970   -3.2100 ha        1 1MN      0.146000
@<TRIPOS>BOND
     1    1    2 ar  
     2    1    7 ar  
     3    1   30 1   
     4    2    3 ar  
     5    2   31 1   
     6    3    4 1   
     7    3    5 ar  
     8    5    6 ar  
     9    5   32 1   
    10    6    7 ar  
    11    6   33 1   
    12    7    8 1   
    13    8    9 1   
    14    8   22 1   
    15    8   34 1   
    16    9   10 1   
    17    9   11 1   
    18   10   35 1   
    19   10   36 1   
    20   10   37 1   
    21   11   12 2   
    22   11   13 1   
    23   13   14 1   
    24   13   21 1   
    25   13   38 1   
    26   14   15 1   
    27   14   39 1   
    28   14   40 1   
    29   15   16 ar  
    30   15   20 ar  
    31   16   17 ar  
    32   16   41 1   
    33   17   18 ar  
    34   17   42 1   
    35   18   19 ar  
    36   18   43 1   
    37   19   20 ar  
    38   19   44 1   
    39   20   45 1   
    40   21   22 1   
    41   22   23 1   
    42   22   46 1   
    43   23   24 ar  
    44   23   29 ar  
    45   24   25 ar  
    46   24   47 1   
    47   25   26 ar  
    48   25   48 1   
    49   26   27 1   
    50   26   28 ar  
    51   28   29 ar  
    52   28   49 1   
    53   29   50 1   
@<TRIPOS>SUBSTRUCTURE
     1 1MN         1 TEMP              0 ****  ****    0 ROOT
