@<TRIPOS>MOLECULE
1MN
   50    53     1     0     0
SMALL
bcc


@<TRIPOS>ATOM
      1 C3          0.0770   -0.3420    0.1020 ca        1 1MN     -0.110000
      2 C2          1.4670   -0.2530    0.0640 ca        1 1MN     -0.105000
      3 C1          2.1650    0.2420    1.1700 ca        1 1MN     -0.018900
      4 Br1         4.0330    0.3640    1.1230 br        1 1MN     -0.084100
      5 C4          1.4650    0.6440    2.3110 ca        1 1MN     -0.105000
      6 C5          0.0740    0.5560    2.3420 ca        1 1MN     -0.110000
      7 C6         -0.6290    0.0590    1.2400 ca        1 1MN     -0.099300
      8 C7         -2.1380   -0.0190    1.2940 c3        1 1MN      0.130000
      9 N1         -2.7940    0.7950    0.2830 n         1 1MN     -0.460800
     10 C8         -2.6740    2.2210    0.4320 c3        1 1MN      0.070300
     11 C9         -3.1660    0.2420   -0.9350 c         1 1MN      0.666500
     12 O1         -3.5400    0.9620   -1.8810 o         1 1MN     -0.628500
     13 C10        -3.1990   -1.2820   -1.0990 c3        1 1MN      0.077100
     14 C11        -4.6520   -1.7510   -1.1920 c3        1 1MN     -0.053100
     15 C12        -4.7940   -3.0010   -1.9870 ca        1 1MN     -0.089300
     16 C13        -4.0650   -4.1480   -1.6480 ca        1 1MN     -0.122000
     17 C14        -4.2260   -5.3240   -2.3780 ca        1 1MN     -0.130500
     18 C15        -5.1150   -5.3660   -3.4520 ca        1 1MN     -0.127000
     19 C16        -5.8420   -4.2260   -3.7950 ca        1 1MN     -0.130500
     20 C17        -5.6830   -3.0470   -3.0680 ca        1 1MN     -0.122000
     21 O2         -2.4690   -1.9960   -0.1050 os        1 1MN     -0.406600
     22 C18        -2.6560   -1.4850    1.2170 c3        1 1MN      0.181400
     23 C19        -1.9670   -2.3900    2.1890 ca        1 1MN     -0.074300
     24 C20        -1.0580   -3.3670    1.7740 ca        1 1MN     -0.111500
     25 C21        -0.4550   -4.2090    2.7070 ca        1 1MN     -0.104000
     26 C22        -0.7580   -4.0800    4.0650 ca        1 1MN     -0.020900
     27 Br2         0.0530   -5.2070    5.3210 br        1 1MN     -0.084100
     28 C23        -1.6710   -3.1070    4.4850 ca        1 1MN     -0.104000
     29 C24        -2.2750   -2.2700    3.5510 ca        1 1MN     -0.111500
     30 H1         -0.4710   -0.7460   -0.7650 ha        1 1MN      0.142000
     31 H2          2.0070   -0.5730   -0.8410 ha        1 1MN      0.149500
     32 H3          2.0040    1.0320    3.1890 ha        1 1MN      0.149500
     33 H4         -0.4660    0.8780    3.2460 ha        1 1MN      0.142000
     34 H5         -2.4700    0.3840    2.3010 h1        1 1MN      0.067700
     35 H6         -3.1670    2.7390   -0.4330 h1        1 1MN      0.052033
     36 H7         -3.1800    2.5310    1.3850 h1        1 1MN      0.052033
     37 H8         -1.5940    2.5290    0.4790 h1        1 1MN      0.052033
     38 H9         -2.6460   -1.5340   -2.0530 h1        1 1MN      0.112700
     39 H10        -5.2580   -0.9290   -1.6620 hc        1 1MN      0.069200
     40 H11        -5.0550   -1.9290   -0.1590 hc        1 1MN      0.069200
     41 H12        -3.3580   -4.1080   -0.8040 ha        1 1MN      0.140000
     42 H13        -3.6500   -6.2200   -2.1050 ha        1 1MN      0.132000
     43 H14        -5.2430   -6.2950   -4.0260 ha        1 1MN      0.131000
     44 H15        -6.5420   -4.2550   -4.6430 ha        1 1MN      0.132000
     45 H16        -6.2560   -2.1510   -3.3460 ha        1 1MN      0.140000
     46 H17        -3.7620   -1.4790    1.4540 h1        1 1MN      0.061700
     47 H18        -0.8200   -3.4710    0.7030 ha        1 1MN      0.146000
     48 H19         0.2620   -4.9720    2.3640 ha        1 1MN      0.149000
     49 H20        -1.9210   -3.0000    5.5520 ha        1 1MN      0.149000
     50 H21        -2.9980   -1.5110    3.8860 ha        1 1MN      0.146000
@<TRIPOS>BOND
     1    1    2 ar  
     2    1    7 ar  
     3    1   30 1   
     4    2    3 ar  
     5    2   31 1   
     6    3    4 1   
     7    3    5 ar  
     8    5    6 ar  
     9    5   32 1   
    10    6    7 ar  
    11    6   33 1   
    12    7    8 1   
    13    8    9 1   
    14    8   22 1   
    15    8   34 1   
    16    9   10 1   
    17    9   11 1   
    18   10   35 1   
    19   10   36 1   
    20   10   37 1   
    21   11   12 2   
    22   11   13 1   
    23   13   14 1   
    24   13   21 1   
    25   13   38 1   
    26   14   15 1   
    27   14   39 1   
    28   14   40 1   
    29   15   16 ar  
    30   15   20 ar  
    31   16   17 ar  
    32   16   41 1   
    33   17   18 ar  
    34   17   42 1   
    35   18   19 ar  
    36   18   43 1   
    37   19   20 ar  
    38   19   44 1   
    39   20   45 1   
    40   21   22 1   
    41   22   23 1   
    42   22   46 1   
    43   23   24 ar  
    44   23   29 ar  
    45   24   25 ar  
    46   24   47 1   
    47   25   26 ar  
    48   25   48 1   
    49   26   27 1   
    50   26   28 ar  
    51   28   29 ar  
    52   28   49 1   
    53   29   50 1   
@<TRIPOS>SUBSTRUCTURE
     1 1MN         1 TEMP              0 ****  ****    0 ROOT
