@<TRIPOS>MOLECULE
1MN
   50    53     1     0     0
SMALL
bcc


@<TRIPOS>ATOM
      1 C3          0.0700   -0.3310    0.0990 ca        1 1MN     -0.110000
      2 C2          1.4600   -0.2340    0.0560 ca        1 1MN     -0.105000
      3 C1          2.1600    0.2580    1.1610 ca        1 1MN     -0.018900
      4 BR1         4.0270    0.3890    1.1080 br        1 1MN     -0.084100
      5 C4          1.4620    0.6510    2.3070 ca        1 1MN     -0.105000
      6 C5          0.0720    0.5570    2.3440 ca        1 1MN     -0.110000
      7 C6         -0.6330    0.0620    1.2420 ca        1 1MN     -0.099300
      8 C7         -2.1410   -0.0240    1.3020 c3        1 1MN      0.130000
      9 N1         -2.8060    0.7930    0.2990 n         1 1MN     -0.460800
     10 C8         -2.6910    2.2190    0.4550 c3        1 1MN      0.070300
     11 C9         -3.1800    0.2440   -0.9210 c         1 1MN      0.666500
     12 O1         -3.5610    0.9680   -1.8610 o         1 1MN     -0.628500
     13 C10        -3.2070   -1.2790   -1.0930 c3        1 1MN      0.077100
     14 C11        -4.6580   -1.7540   -1.1820 c3        1 1MN     -0.053100
     15 C12        -4.7980   -3.0010   -1.9830 ca        1 1MN     -0.089300
     16 C13        -4.0640   -4.1460   -1.6510 ca        1 1MN     -0.122000
     17 C14        -4.2230   -5.3190   -2.3860 ca        1 1MN     -0.130500
     18 C15        -5.1160   -5.3600   -3.4570 ca        1 1MN     -0.127000
     19 C16        -5.8480   -4.2210   -3.7930 ca        1 1MN     -0.130500
     20 C17        -5.6900   -3.0450   -3.0600 ca        1 1MN     -0.122000
     21 O2         -2.4690   -1.9940   -0.1060 os        1 1MN     -0.406600
     22 C18        -2.6530   -1.4920    1.2190 c3        1 1MN      0.181400
     23 C19        -1.9550   -2.3990    2.1840 ca        1 1MN     -0.074300
     24 C20        -1.0440   -3.3690    1.7590 ca        1 1MN     -0.111500
     25 C21        -0.4320   -4.2130    2.6850 ca        1 1MN     -0.104000
     26 C22        -0.7300   -4.0930    4.0450 ca        1 1MN     -0.020900
     27 BR2         0.0910   -5.2230    5.2910 br        1 1MN     -0.084100
     28 C23        -1.6460   -3.1270    4.4740 ca        1 1MN     -0.104000
     29 C24        -2.2580   -2.2870    3.5470 ca        1 1MN     -0.111500
     30 H1         -0.4800   -0.7330   -0.7670 ha        1 1MN      0.142000
     31 H2          1.9970   -0.5480   -0.8520 ha        1 1MN      0.149500
     32 H3          2.0030    1.0380    3.1850 ha        1 1MN      0.149500
     33 H4         -0.4650    0.8720    3.2510 ha        1 1MN      0.142000
     34 H5         -2.4710    0.3720    2.3130 h1        1 1MN      0.067700
     35 H6         -3.1900    2.7390   -0.4060 h1        1 1MN      0.052033
     36 H7         -1.6130    2.5320    0.4990 h1        1 1MN      0.052033
     37 H8         -3.1960    2.5210    1.4120 h1        1 1MN      0.052033
     38 H9         -2.6570   -1.5220   -2.0510 h1        1 1MN      0.112700
     39 H10        -5.0560   -1.9380   -0.1490 hc        1 1MN      0.069200
     40 H11        -5.2700   -0.9320   -1.6450 hc        1 1MN      0.069200
     41 H12        -3.3530   -4.1070   -0.8100 ha        1 1MN      0.140000
     42 H13        -3.6420   -6.2150   -2.1190 ha        1 1MN      0.132000
     43 H14        -5.2420   -6.2860   -4.0350 ha        1 1MN      0.131000
     44 H15        -6.5510   -4.2490   -4.6380 ha        1 1MN      0.132000
     45 H16        -6.2690   -2.1490   -3.3330 ha        1 1MN      0.140000
     46 H17        -3.7580   -1.4920    1.4620 h1        1 1MN      0.061700
     47 H18        -0.8100   -3.4660    0.6860 ha        1 1MN      0.146000
     48 H19         0.2860   -4.9710    2.3340 ha        1 1MN      0.149000
     49 H20        -1.8920   -3.0260    5.5430 ha        1 1MN      0.149000
     50 H21        -2.9830   -1.5340    3.8900 ha        1 1MN      0.146000
@<TRIPOS>BOND
     1    1    2 ar  
     2    1    7 ar  
     3    1   30 1   
     4    2    3 ar  
     5    2   31 1   
     6    3    4 1   
     7    3    5 ar  
     8    5    6 ar  
     9    5   32 1   
    10    6    7 ar  
    11    6   33 1   
    12    7    8 1   
    13    8    9 1   
    14    8   22 1   
    15    8   34 1   
    16    9   10 1   
    17    9   11 1   
    18   10   35 1   
    19   10   36 1   
    20   10   37 1   
    21   11   12 2   
    22   11   13 1   
    23   13   14 1   
    24   13   21 1   
    25   13   38 1   
    26   14   15 1   
    27   14   39 1   
    28   14   40 1   
    29   15   16 ar  
    30   15   20 ar  
    31   16   17 ar  
    32   16   41 1   
    33   17   18 ar  
    34   17   42 1   
    35   18   19 ar  
    36   18   43 1   
    37   19   20 ar  
    38   19   44 1   
    39   20   45 1   
    40   21   22 1   
    41   22   23 1   
    42   22   46 1   
    43   23   24 ar  
    44   23   29 ar  
    45   24   25 ar  
    46   24   47 1   
    47   25   26 ar  
    48   25   48 1   
    49   26   27 1   
    50   26   28 ar  
    51   28   29 ar  
    52   28   49 1   
    53   29   50 1   
@<TRIPOS>SUBSTRUCTURE
     1 1MN         1 TEMP              0 ****  ****    0 ROOT
