@<TRIPOS>MOLECULE
1MO
   50    53     1     0     0
SMALL
bcc


@<TRIPOS>ATOM
      1 C3          0.0780   -0.3460    0.1030 ca        1 1MO     -0.101000
      2 C2          1.4680   -0.2560    0.0610 ca        1 1MO     -0.126500
      3 C1          2.1580    0.2490    1.1680 ca        1 1MO      0.025400
      4 CL1         3.8530    0.3630    1.1250 cl        1 1MO     -0.090400
      5 C4          1.4640    0.6610    2.3090 ca        1 1MO     -0.126500
      6 C5          0.0730    0.5700    2.3380 ca        1 1MO     -0.101000
      7 C6         -0.6280    0.0630    1.2380 ca        1 1MO     -0.110300
      8 C7         -2.1360   -0.0170    1.2920 c3        1 1MO      0.131000
      9 N1         -2.7930    0.7970    0.2800 n         1 1MO     -0.460800
     10 C8         -2.6710    2.2230    0.4260 c3        1 1MO      0.070300
     11 C9         -3.1650    0.2410   -0.9360 c         1 1MO      0.666500
     12 O1         -3.5390    0.9600   -1.8840 o         1 1MO     -0.629500
     13 C10        -3.1990   -1.2830   -1.0980 c3        1 1MO      0.078100
     14 C11        -4.6520   -1.7520   -1.1890 c3        1 1MO     -0.053100
     15 C12        -4.7960   -3.0030   -1.9820 ca        1 1MO     -0.088300
     16 C13        -4.0680   -4.1500   -1.6400 ca        1 1MO     -0.122000
     17 C14        -4.2300   -5.3270   -2.3680 ca        1 1MO     -0.131000
     18 C15        -5.1190   -5.3700   -3.4420 ca        1 1MO     -0.128000
     19 C16        -5.8440   -4.2300   -3.7880 ca        1 1MO     -0.131000
     20 C17        -5.6840   -3.0500   -3.0620 ca        1 1MO     -0.122000
     21 O2         -2.4690   -1.9950   -0.1030 os        1 1MO     -0.406600
     22 C18        -2.6550   -1.4820    1.2180 c3        1 1MO      0.183400
     23 C19        -1.9660   -2.3860    2.1910 ca        1 1MO     -0.086300
     24 C20        -1.0500   -3.3570    1.7760 ca        1 1MO     -0.102500
     25 C21        -0.4450   -4.2000    2.7070 ca        1 1MO     -0.125500
     26 C22        -0.7600   -4.0700    4.0620 ca        1 1MO      0.023400
     27 CL2        -0.0240   -5.0920    5.2030 cl        1 1MO     -0.090400
     28 C23        -1.6790   -3.1040    4.4890 ca        1 1MO     -0.125500
     29 C24        -2.2800   -2.2690    3.5520 ca        1 1MO     -0.102500
     30 H1         -0.4710   -0.7570   -0.7600 ha        1 1MO      0.142000
     31 H2          2.0150   -0.5810   -0.8360 ha        1 1MO      0.149500
     32 H3          2.0080    1.0560    3.1800 ha        1 1MO      0.149500
     33 H4         -0.4690    0.8980    3.2380 ha        1 1MO      0.142000
     34 H5         -2.4690    0.3880    2.2990 h1        1 1MO      0.067700
     35 H6         -3.1620    2.7390   -0.4420 h1        1 1MO      0.051700
     36 H7         -1.5920    2.5300    0.4750 h1        1 1MO      0.051700
     37 H8         -3.1800    2.5350    1.3780 h1        1 1MO      0.051700
     38 H9         -2.6470   -1.5360   -2.0520 h1        1 1MO      0.112700
     39 H10        -5.2590   -0.9300   -1.6600 hc        1 1MO      0.069200
     40 H11        -5.0550   -1.9270   -0.1560 hc        1 1MO      0.069200
     41 H12        -3.3610   -4.1080   -0.7960 ha        1 1MO      0.140000
     42 H13        -3.6550   -6.2230   -2.0930 ha        1 1MO      0.132000
     43 H14        -5.2470   -6.3000   -4.0150 ha        1 1MO      0.131000
     44 H15        -6.5440   -4.2600   -4.6360 ha        1 1MO      0.132000
     45 H16        -6.2570   -2.1540   -3.3420 ha        1 1MO      0.140000
     46 H17        -3.7600   -1.4750    1.4560 h1        1 1MO      0.060700
     47 H18        -0.8080   -3.4550    0.7050 ha        1 1MO      0.145500
     48 H19         0.2760   -4.9610    2.3730 ha        1 1MO      0.150000
     49 H20        -1.9280   -3.0060    5.5560 ha        1 1MO      0.150000
     50 H21        -3.0090   -1.5140    3.8850 ha        1 1MO      0.145500
@<TRIPOS>BOND
     1    1    2 ar  
     2    1    7 ar  
     3    1   30 1   
     4    2    3 ar  
     5    2   31 1   
     6    3    4 1   
     7    3    5 ar  
     8    5    6 ar  
     9    5   32 1   
    10    6    7 ar  
    11    6   33 1   
    12    7    8 1   
    13    8    9 1   
    14    8   22 1   
    15    8   34 1   
    16    9   10 1   
    17    9   11 1   
    18   10   35 1   
    19   10   36 1   
    20   10   37 1   
    21   11   12 2   
    22   11   13 1   
    23   13   14 1   
    24   13   21 1   
    25   13   38 1   
    26   14   15 1   
    27   14   39 1   
    28   14   40 1   
    29   15   16 ar  
    30   15   20 ar  
    31   16   17 ar  
    32   16   41 1   
    33   17   18 ar  
    34   17   42 1   
    35   18   19 ar  
    36   18   43 1   
    37   19   20 ar  
    38   19   44 1   
    39   20   45 1   
    40   21   22 1   
    41   22   23 1   
    42   22   46 1   
    43   23   24 ar  
    44   23   29 ar  
    45   24   25 ar  
    46   24   47 1   
    47   25   26 ar  
    48   25   48 1   
    49   26   27 1   
    50   26   28 ar  
    51   28   29 ar  
    52   28   49 1   
    53   29   50 1   
@<TRIPOS>SUBSTRUCTURE
     1 1MO         1 TEMP              0 ****  ****    0 ROOT
