@<TRIPOS>MOLECULE
1MO
   50    53     1     0     0
SMALL
bcc


@<TRIPOS>ATOM
      1 C3          0.0700   -0.3410    0.0840 ca        1 1MO     -0.101000
      2 C2          1.4590   -0.2470    0.0310 ca        1 1MO     -0.126500
      3 C1          2.1570    0.2590    1.1320 ca        1 1MO      0.025400
      4 CL1         3.8510    0.3780    1.0750 cl        1 1MO     -0.090400
      5 C4          1.4710    0.6680    2.2790 ca        1 1MO     -0.126500
      6 C5          0.0810    0.5730    2.3200 ca        1 1MO     -0.101000
      7 C6         -0.6280    0.0650    1.2260 ca        1 1MO     -0.110300
      8 C7         -2.1350   -0.0190    1.2920 c3        1 1MO      0.131000
      9 N1         -2.8030    0.7930    0.2860 n         1 1MO     -0.460800
     10 C8         -2.6850    2.2190    0.4320 c3        1 1MO      0.070300
     11 C9         -3.1840    0.2370   -0.9280 c         1 1MO      0.666500
     12 O1         -3.5680    0.9540   -1.8720 o         1 1MO     -0.629500
     13 C10        -3.2150   -1.2880   -1.0890 c3        1 1MO      0.078100
     14 C11        -4.6680   -1.7600   -1.1690 c3        1 1MO     -0.053100
     15 C12        -4.8140   -3.0120   -1.9610 ca        1 1MO     -0.088300
     16 C13        -4.0790   -4.1560   -1.6280 ca        1 1MO     -0.122000
     17 C14        -4.2440   -5.3330   -2.3550 ca        1 1MO     -0.131000
     18 C15        -5.1440   -5.3780   -3.4200 ca        1 1MO     -0.128000
     19 C16        -5.8760   -4.2410   -3.7580 ca        1 1MO     -0.131000
     20 C17        -5.7130   -3.0610   -3.0330 ca        1 1MO     -0.122000
     21 O2         -2.4740   -1.9980   -0.1020 os        1 1MO     -0.407600
     22 C18        -2.6510   -1.4860    1.2220 c3        1 1MO      0.183400
     23 C19        -1.9510   -2.3890    2.1890 ca        1 1MO     -0.086300
     24 C20        -1.0360   -3.3570    1.7650 ca        1 1MO     -0.102500
     25 C21        -0.4200   -4.1980    2.6910 ca        1 1MO     -0.125500
     26 C22        -0.7240   -4.0690    4.0490 ca        1 1MO      0.023400
     27 CL2         0.0250   -5.0900    5.1830 cl        1 1MO     -0.090400
     28 C23        -1.6420   -3.1070    4.4830 ca        1 1MO     -0.125500
     29 C24        -2.2540   -2.2730    3.5520 ca        1 1MO     -0.102500
     30 H1         -0.4860   -0.7540   -0.7750 ha        1 1MO      0.142000
     31 H2          1.9990   -0.5700   -0.8720 ha        1 1MO      0.149500
     32 H3          2.0210    1.0640    3.1460 ha        1 1MO      0.149500
     33 H4         -0.4550    0.8980    3.2250 ha        1 1MO      0.142000
     34 H5         -2.4610    0.3840    2.3020 h1        1 1MO      0.067700
     35 H6         -3.1830    2.7340   -0.4320 h1        1 1MO      0.051700
     36 H7         -3.1860    2.5300    1.3870 h1        1 1MO      0.051700
     37 H8         -1.6060    2.5290    0.4720 h1        1 1MO      0.051700
     38 H9         -2.6710   -1.5390   -2.0480 h1        1 1MO      0.112700
     39 H10        -5.0610   -1.9380   -0.1320 hc        1 1MO      0.069200
     40 H11        -5.2800   -0.9400   -1.6340 hc        1 1MO      0.069200
     41 H12        -3.3640   -4.1130   -0.7910 ha        1 1MO      0.140000
     42 H13        -3.6630   -6.2280   -2.0860 ha        1 1MO      0.132000
     43 H14        -5.2740   -6.3080   -3.9920 ha        1 1MO      0.131000
     44 H15        -6.5840   -4.2720   -4.5990 ha        1 1MO      0.132000
     45 H16        -6.2920   -2.1660   -3.3070 ha        1 1MO      0.140000
     46 H17        -3.7540   -1.4820    1.4690 h1        1 1MO      0.060700
     47 H18        -0.8020   -3.4540    0.6920 ha        1 1MO      0.145500
     48 H19         0.3010   -4.9560    2.3500 ha        1 1MO      0.150000
     49 H20        -1.8830   -3.0100    5.5530 ha        1 1MO      0.150000
     50 H21        -2.9820   -1.5210    3.8910 ha        1 1MO      0.145500
@<TRIPOS>BOND
     1    1    2 ar  
     2    1    7 ar  
     3    1   30 1   
     4    2    3 ar  
     5    2   31 1   
     6    3    4 1   
     7    3    5 ar  
     8    5    6 ar  
     9    5   32 1   
    10    6    7 ar  
    11    6   33 1   
    12    7    8 1   
    13    8    9 1   
    14    8   22 1   
    15    8   34 1   
    16    9   10 1   
    17    9   11 1   
    18   10   35 1   
    19   10   36 1   
    20   10   37 1   
    21   11   12 2   
    22   11   13 1   
    23   13   14 1   
    24   13   21 1   
    25   13   38 1   
    26   14   15 1   
    27   14   39 1   
    28   14   40 1   
    29   15   16 ar  
    30   15   20 ar  
    31   16   17 ar  
    32   16   41 1   
    33   17   18 ar  
    34   17   42 1   
    35   18   19 ar  
    36   18   43 1   
    37   19   20 ar  
    38   19   44 1   
    39   20   45 1   
    40   21   22 1   
    41   22   23 1   
    42   22   46 1   
    43   23   24 ar  
    44   23   29 ar  
    45   24   25 ar  
    46   24   47 1   
    47   25   26 ar  
    48   25   48 1   
    49   26   27 1   
    50   26   28 ar  
    51   28   29 ar  
    52   28   49 1   
    53   29   50 1   
@<TRIPOS>SUBSTRUCTURE
     1 1MO         1 TEMP              0 ****  ****    0 ROOT
