@<TRIPOS>MOLECULE
1MO
   50    43     1     0     0
SMALL
bcc


@<TRIPOS>ATOM
      1 C3          2.3910    0.7690    0.1110 c1        1 1MO     -0.095000
      2 C2          3.8230    0.7340    0.0820 c1        1 1MO     -0.126000
      3 C1          4.5400    0.9000    1.2550 c1        1 1MO     -0.054000
      4 CL1         6.2570    0.9440    1.2200 cl        1 1MO     -0.012000
      5 C4          3.8780    1.0990    2.4450 c1        1 1MO     -0.124167
      6 C5          2.4700    1.1330    2.4750 c1        1 1MO     -0.124167
      7 C6          1.7390    0.9650    1.2910 c1        1 1MO     -0.104000
      8 C7          0.0590    1.0380    1.3200 c2        1 1MO      0.046000
      9 N1         -0.3020    1.9210    0.5110 n3        1 1MO     -0.316000
     10 C8         -0.3450    3.2800    0.9170 c3        1 1MO     -0.087000
     11 C9         -0.0750    1.5900   -0.9030 c1        1 1MO      0.274000
     12 O1          0.2720    2.4230   -1.6610 o         1 1MO     -0.358000
     13 C10        -0.7860    0.2480   -1.4350 c2        1 1MO      0.016000
     14 C11        -2.0590    0.3900   -1.4890 c3        1 1MO     -0.139000
     15 C12        -2.5770   -0.0840   -2.9150 c1        1 1MO     -0.085000
     16 C13        -3.4970   -1.1120   -3.0100 c1        1 1MO     -0.124167
     17 C14        -3.9890   -1.4830   -4.2420 c1        1 1MO     -0.124167
     18 C15        -3.5520   -0.8120   -5.4120 c1        1 1MO     -0.124167
     19 C16        -2.6430    0.2040   -5.3200 c1        1 1MO     -0.124167
     20 C17        -2.1450    0.5810   -4.0780 c1        1 1MO     -0.126000
     21 O2         -0.2370   -0.7370   -0.2690 os        1 1MO     -0.259000
     22 C18        -0.4590   -0.2930    1.0490 c3        1 1MO      0.064000
     23 C19         0.2240   -1.3150    2.0530 c2        1 1MO     -0.079000
     24 C20         1.1040   -2.2530    1.5790 c2        1 1MO     -0.084000
     25 C21         1.5980   -3.2530    2.4400 c1        1 1MO     -0.125000
     26 C22         1.1940   -3.2870    3.7640 c1        1 1MO     -0.054000
     27 CL2         1.8520   -4.4580    4.8330 cl        1 1MO     -0.012000
     28 C23         0.3060   -2.3400    4.2410 c1        1 1MO     -0.126000
     29 C24        -0.1820   -1.3520    3.3930 c1        1 1MO     -0.119000
     30 H1          1.8810    0.6520   -0.7140 ha        1 1MO      0.149000
     31 H2          4.2720    0.5950   -0.7280 ha        1 1MO      0.149000
     32 H3          4.3810    1.2160    3.2650 ha        1 1MO      0.135333
     33 H4          2.0330    1.2650    3.2670 ha        1 1MO      0.135333
     34 H5         -0.2080    1.2870    2.1550 h4        1 1MO      0.107000
     35 H6          0.5720    3.6970    0.7990 h1        1 1MO      0.091000
     36 H7         -0.6270    3.3400    1.9370 h1        1 1MO      0.091000
     37 H8         -0.9900    3.7560    0.3730 h1        1 1MO      0.091000
     38 H9         -0.5830   -0.0620   -2.3110 h4        1 1MO      0.155000
     39 H10        -2.2850    1.3150   -1.3540 hc        1 1MO      0.105500
     40 H11        -2.4720   -0.1460   -0.8070 hc        1 1MO      0.105500
     41 H12        -3.8100   -1.5970   -2.1690 ha        1 1MO      0.135333
     42 H13        -4.6370   -2.2060   -4.3110 ha        1 1MO      0.135333
     43 H14        -3.8880   -1.0660   -6.2510 ha        1 1MO      0.135333
     44 H15        -2.3240    0.6910   -6.1740 ha        1 1MO      0.135333
     45 H16        -1.5320    1.2650   -4.0170 ha        1 1MO      0.161000
     46 H17        -1.4820   -0.2880    1.2270 h1        1 1MO      0.100000
     47 H18         1.4090   -2.2250    0.5750 ha        1 1MO      0.158000
     48 H19         2.2380   -3.9250    2.0990 ha        1 1MO      0.151000
     49 H20         0.0330   -2.3650    5.1400 ha        1 1MO      0.149000
     50 H21        -0.8430   -0.6410    3.7540 ha        1 1MO      0.134000
@<TRIPOS>BOND
     1    1    7 1   
     2    1   30 1   
     3    2    3 1   
     4    2   31 1   
     5    3    4 1   
     6    5    6 1   
     7    5   32 1   
     8    6   33 1   
     9    8    9 1   
    10    8   22 1   
    11    8   34 1   
    12    9   10 1   
    13    9   11 1   
    14   10   35 1   
    15   10   36 1   
    16   10   37 1   
    17   11   12 1   
    18   13   14 1   
    19   13   21 1   
    20   13   38 1   
    21   14   15 1   
    22   14   39 1   
    23   14   40 1   
    24   15   20 1   
    25   16   17 1   
    26   16   41 1   
    27   17   42 1   
    28   18   19 1   
    29   18   43 1   
    30   19   44 1   
    31   20   45 1   
    32   21   22 1   
    33   22   23 1   
    34   22   46 1   
    35   23   24 1   
    36   23   29 1   
    37   24   25 1   
    38   24   47 1   
    39   25   48 1   
    40   26   27 1   
    41   26   28 1   
    42   28   49 1   
    43   29   50 1   
@<TRIPOS>SUBSTRUCTURE
     1 1MO         1 TEMP              0 ****  ****    0 ROOT
