@<TRIPOS>MOLECULE
1MO
   50    53     1     0     0
SMALL
bcc


@<TRIPOS>ATOM
      1 C3         -1.3470    1.6760    0.7480 ca        1 1MO     -0.101000
      2 C2         -2.4730    1.8790    1.5430 ca        1 1MO     -0.126500
      3 C1         -3.7430    1.8550    0.9580 ca        1 1MO      0.025400
      4 CL1        -5.1210    2.1030    1.9210 cl        1 1MO     -0.090400
      5 C4         -3.8870    1.6270   -0.4140 ca        1 1MO     -0.126500
      6 C5         -2.7530    1.4290   -1.2000 ca        1 1MO     -0.101000
      7 C6         -1.4780    1.4480   -0.6250 ca        1 1MO     -0.110300
      8 C7         -0.2650    1.2380   -1.5020 c3        1 1MO      0.131000
      9 N1          0.6370    2.3800   -1.5210 n         1 1MO     -0.460800
     10 C8          0.1460    3.5730   -2.1560 c3        1 1MO      0.070300
     11 C9          1.7190    2.4360   -0.6540 c         1 1MO      0.666500
     12 O1          2.3780    3.4850   -0.5140 o         1 1MO     -0.629500
     13 C10         2.1690    1.1690    0.0840 c3        1 1MO      0.078100
     14 C11         3.5020    0.6910   -0.4960 c3        1 1MO     -0.053100
     15 C12         4.3220   -0.0470    0.5030 ca        1 1MO     -0.088300
     16 C13         3.7980   -1.1600    1.1730 ca        1 1MO     -0.122000
     17 C14         4.5820   -1.8640    2.0840 ca        1 1MO     -0.131000
     18 C15         5.8950   -1.4640    2.3340 ca        1 1MO     -0.128000
     19 C16         6.4210   -0.3560    1.6720 ca        1 1MO     -0.131000
     20 C17         5.6390    0.3520    0.7600 ca        1 1MO     -0.122000
     21 O2          1.1950    0.1300    0.1150 os        1 1MO     -0.407600
     22 C18         0.5180   -0.0550   -1.1310 c3        1 1MO      0.183400
     23 C19        -0.3690   -1.2550   -1.0280 ca        1 1MO     -0.086300
     24 C20        -0.6740   -1.8440    0.2030 ca        1 1MO     -0.102500
     25 C21        -1.4840   -2.9770    0.2610 ca        1 1MO     -0.125500
     26 C22        -1.9900   -3.5240   -0.9210 ca        1 1MO      0.023400
     27 CL2        -2.9800   -4.9040   -0.8580 cl        1 1MO     -0.090400
     28 C23        -1.6870   -2.9460   -2.1590 ca        1 1MO     -0.125500
     29 C24        -0.8750   -1.8170   -2.2080 ca        1 1MO     -0.102500
     30 H1         -0.3440    1.6790    1.2060 ha        1 1MO      0.142000
     31 H2         -2.3600    2.0580    2.6230 ha        1 1MO      0.149500
     32 H3         -4.8870    1.6050   -0.8730 ha        1 1MO      0.149500
     33 H4         -2.8720    1.2510   -2.2800 ha        1 1MO      0.142000
     34 H5         -0.6280    1.0950   -2.5680 h1        1 1MO      0.067700
     35 H6         -0.8250    3.9020   -1.6950 h1        1 1MO      0.051700
     36 H7          0.8990    4.3990   -2.0530 h1        1 1MO      0.051700
     37 H8         -0.0250    3.3620   -3.2460 h1        1 1MO      0.051700
     38 H9          2.2930    1.4380    1.1750 h1        1 1MO      0.112700
     39 H10         3.3080    0.0190   -1.3750 hc        1 1MO      0.069200
     40 H11         4.0670    1.5890   -0.8670 hc        1 1MO      0.069200
     41 H12         2.7580   -1.4670    0.9770 ha        1 1MO      0.140000
     42 H13         4.1640   -2.7370    2.6060 ha        1 1MO      0.132000
     43 H14         6.5140   -2.0220    3.0530 ha        1 1MO      0.131000
     44 H15         7.4550   -0.0360    1.8690 ha        1 1MO      0.132000
     45 H16         6.0580    1.2280    0.2430 ha        1 1MO      0.140000
     46 H17         1.2860   -0.2440   -1.9400 h1        1 1MO      0.060700
     47 H18        -0.2700   -1.4080    1.1310 ha        1 1MO      0.145500
     48 H19        -1.7220   -3.4340    1.2330 ha        1 1MO      0.150000
     49 H20        -2.0840   -3.3810   -3.0890 ha        1 1MO      0.150000
     50 H21        -0.6290   -1.3650   -3.1810 ha        1 1MO      0.145500
@<TRIPOS>BOND
     1    1    2 ar  
     2    1    7 ar  
     3    1   30 1   
     4    2    3 ar  
     5    2   31 1   
     6    3    4 1   
     7    3    5 ar  
     8    5    6 ar  
     9    5   32 1   
    10    6    7 ar  
    11    6   33 1   
    12    7    8 1   
    13    8    9 1   
    14    8   22 1   
    15    8   34 1   
    16    9   10 1   
    17    9   11 1   
    18   10   35 1   
    19   10   36 1   
    20   10   37 1   
    21   11   12 2   
    22   11   13 1   
    23   13   14 1   
    24   13   21 1   
    25   13   38 1   
    26   14   15 1   
    27   14   39 1   
    28   14   40 1   
    29   15   16 ar  
    30   15   20 ar  
    31   16   17 ar  
    32   16   41 1   
    33   17   18 ar  
    34   17   42 1   
    35   18   19 ar  
    36   18   43 1   
    37   19   20 ar  
    38   19   44 1   
    39   20   45 1   
    40   21   22 1   
    41   22   23 1   
    42   22   46 1   
    43   23   24 ar  
    44   23   29 ar  
    45   24   25 ar  
    46   24   47 1   
    47   25   26 ar  
    48   25   48 1   
    49   26   27 1   
    50   26   28 ar  
    51   28   29 ar  
    52   28   49 1   
    53   29   50 1   
@<TRIPOS>SUBSTRUCTURE
     1 1MO         1 TEMP              0 ****  ****    0 ROOT
