@<TRIPOS>MOLECULE
1MO
   50    53     1     0     0
SMALL
bcc


@<TRIPOS>ATOM
      1 C3          0.0830   -0.3580    0.0830 ca        1 1MO     -0.101000
      2 C2          1.4730   -0.2740    0.0340 ca        1 1MO     -0.126500
      3 C1          2.1710    0.2330    1.1350 ca        1 1MO      0.025400
      4 Cl1         3.8670    0.3390    1.0830 cl        1 1MO     -0.090400
      5 C4          1.4850    0.6540    2.2780 ca        1 1MO     -0.126500
      6 C5          0.0940    0.5690    2.3140 ca        1 1MO     -0.101000
      7 C6         -0.6150    0.0610    1.2210 ca        1 1MO     -0.110300
      8 C7         -2.1230   -0.0120    1.2830 c3        1 1MO      0.131000
      9 N1         -2.7820    0.7990    0.2700 n         1 1MO     -0.460800
     10 C8         -2.6530    2.2250    0.4080 c3        1 1MO      0.070300
     11 C9         -3.1630    0.2390   -0.9420 c         1 1MO      0.666500
     12 O1         -3.5390    0.9540   -1.8910 o         1 1MO     -0.629500
     13 C10        -3.2050   -1.2860   -1.0950 c3        1 1MO      0.078100
     14 C11        -4.6610   -1.7480   -1.1760 c3        1 1MO     -0.053100
     15 C12        -4.8150   -3.0030   -1.9610 ca        1 1MO     -0.088300
     16 C13        -4.0900   -4.1520   -1.6170 ca        1 1MO     -0.122000
     17 C14        -4.2620   -5.3320   -2.3370 ca        1 1MO     -0.131000
     18 C15        -5.1580   -5.3770   -3.4060 ca        1 1MO     -0.128000
     19 C16        -5.8790   -4.2350   -3.7550 ca        1 1MO     -0.131000
     20 C17        -5.7090   -3.0520   -3.0360 ca        1 1MO     -0.122000
     21 O2         -2.4730   -1.9970   -0.1010 os        1 1MO     -0.406600
     22 C18        -2.6490   -1.4760    1.2190 c3        1 1MO      0.183400
     23 C19        -1.9590   -2.3780    2.1930 ca        1 1MO     -0.086300
     24 C20        -1.0500   -3.3550    1.7780 ca        1 1MO     -0.102500
     25 C21        -0.4440   -4.1950    2.7100 ca        1 1MO     -0.125500
     26 C22        -0.7500   -4.0570    4.0670 ca        1 1MO      0.023400
     27 Cl2        -0.0130   -5.0760    5.2090 cl        1 1MO     -0.090400
     28 C23        -1.6630   -3.0850    4.4930 ca        1 1MO     -0.125500
     29 C24        -2.2660   -2.2520    3.5550 ca        1 1MO     -0.102500
     30 H1         -0.4730   -0.7710   -0.7750 ha        1 1MO      0.142000
     31 H2          2.0140   -0.6060   -0.8650 ha        1 1MO      0.149500
     32 H3          2.0360    1.0500    3.1440 ha        1 1MO      0.149500
     33 H4         -0.4420    0.9040    3.2160 ha        1 1MO      0.142000
     34 H5         -2.4490    0.3990    2.2890 h1        1 1MO      0.067700
     35 H6         -3.1550    2.5450    1.3610 h1        1 1MO      0.051700
     36 H7         -1.5720    2.5270    0.4500 h1        1 1MO      0.051700
     37 H8         -3.1460    2.7390   -0.4600 h1        1 1MO      0.051700
     38 H9         -2.6600   -1.5470   -2.0500 h1        1 1MO      0.112700
     39 H10        -5.0590   -1.9160   -0.1400 hc        1 1MO      0.069200
     40 H11        -5.2660   -0.9260   -1.6480 hc        1 1MO      0.069200
     41 H12        -3.3780   -4.1090   -0.7770 ha        1 1MO      0.140000
     42 H13        -3.6900   -6.2300   -2.0610 ha        1 1MO      0.132000
     43 H14        -5.2930   -6.3090   -3.9730 ha        1 1MO      0.131000
     44 H15        -6.5840   -4.2660   -4.5980 ha        1 1MO      0.132000
     45 H16        -6.2790   -2.1540   -3.3180 ha        1 1MO      0.140000
     46 H17        -3.7530   -1.4620    1.4630 h1        1 1MO      0.060700
     47 H18        -0.8140   -3.4600    0.7060 ha        1 1MO      0.145500
     48 H19         0.2730   -4.9610    2.3760 ha        1 1MO      0.150000
     49 H20        -1.9060   -2.9810    5.5610 ha        1 1MO      0.150000
     50 H21        -2.9900   -1.4930    3.8870 ha        1 1MO      0.145500
@<TRIPOS>BOND
     1    1    2 ar  
     2    1    7 ar  
     3    1   30 1   
     4    2    3 ar  
     5    2   31 1   
     6    3    4 1   
     7    3    5 ar  
     8    5    6 ar  
     9    5   32 1   
    10    6    7 ar  
    11    6   33 1   
    12    7    8 1   
    13    8    9 1   
    14    8   22 1   
    15    8   34 1   
    16    9   10 1   
    17    9   11 1   
    18   10   35 1   
    19   10   36 1   
    20   10   37 1   
    21   11   12 2   
    22   11   13 1   
    23   13   14 1   
    24   13   21 1   
    25   13   38 1   
    26   14   15 1   
    27   14   39 1   
    28   14   40 1   
    29   15   16 ar  
    30   15   20 ar  
    31   16   17 ar  
    32   16   41 1   
    33   17   18 ar  
    34   17   42 1   
    35   18   19 ar  
    36   18   43 1   
    37   19   20 ar  
    38   19   44 1   
    39   20   45 1   
    40   21   22 1   
    41   22   23 1   
    42   22   46 1   
    43   23   24 ar  
    44   23   29 ar  
    45   24   25 ar  
    46   24   47 1   
    47   25   26 ar  
    48   25   48 1   
    49   26   27 1   
    50   26   28 ar  
    51   28   29 ar  
    52   28   49 1   
    53   29   50 1   
@<TRIPOS>SUBSTRUCTURE
     1 1MO         1 TEMP              0 ****  ****    0 ROOT
