@<TRIPOS>MOLECULE
1MQ
   59    62     1     0     0
SMALL
bcc


@<TRIPOS>ATOM
      1 C3         -0.6690   -0.0310    0.1630 ca        1 1MQ     -0.096000
      2 C2          0.7170    0.1190    0.1950 ca        1 1MQ     -0.131000
      3 C1          1.3640    0.2940    1.4200 ca        1 1MQ      0.019400
      4 CL1         3.0620    0.4620    1.4690 cl        1 1MQ     -0.131400
      5 C4          0.6340    0.3380    2.6110 ca        1 1MQ     -0.131000
      6 C5         -0.7500    0.1920    2.5670 ca        1 1MQ     -0.096000
      7 C6         -1.4110   -0.0080    1.3480 ca        1 1MQ     -0.102300
      8 C7         -2.9080   -0.2050    1.3590 c3        1 1MQ      0.134000
      9 N1         -3.6990    0.5510    0.4010 n         1 1MQ     -0.430800
     10 C8         -3.3010    1.9420    0.1530 c3        1 1MQ     -0.019100
     11 C9         -4.2340   -0.1390   -0.7060 c         1 1MQ      0.714500
     12 O1         -5.2130    0.3090   -1.3280 o         1 1MQ     -0.619500
     13 C10        -3.6750   -1.5150   -1.0970 c3        1 1MQ      0.052100
     14 C11        -4.7940   -2.4350   -1.5880 c3        1 1MQ     -0.057100
     15 C12        -4.3080   -3.5220   -2.4790 ca        1 1MQ     -0.072300
     16 C13        -3.3510   -4.4410   -2.0290 ca        1 1MQ     -0.100500
     17 C14        -2.9230   -5.4820   -2.8440 ca        1 1MQ     -0.170000
     18 C15        -3.4570   -5.6120   -4.1390 ca        1 1MQ      0.105900
     19 C16        -4.4090   -4.6880   -4.6060 ca        1 1MQ     -0.170000
     20 C17        -4.8240   -3.6530   -3.7740 ca        1 1MQ     -0.100500
     21 O2         -2.9380   -2.1840   -0.0680 os        1 1MQ     -0.421600
     22 C18        -3.2640   -1.7200    1.2420 c3        1 1MQ      0.174400
     23 C19        -2.5590   -2.5730    2.2490 ca        1 1MQ     -0.062300
     24 C20        -2.9460   -2.4870    3.5920 ca        1 1MQ     -0.105500
     25 C21        -2.3390   -3.2900    4.5550 ca        1 1MQ     -0.129500
     26 C22        -1.3390   -4.1880    4.1700 ca        1 1MQ      0.014400
     27 CL2        -0.5970   -5.1760    5.3440 cl        1 1MQ     -0.118400
     28 C23        -0.9440   -4.2830    2.8330 ca        1 1MQ     -0.129500
     29 C24        -1.5560   -3.4750    1.8770 ca        1 1MQ     -0.105500
     30 C25        -4.4810    2.8640    0.1380 c2        1 1MQ     -0.124200
     31 C26        -2.4950    2.1090   -1.1990 c         1 1MQ      0.916600
     32 O3         -2.5250    1.1470   -2.0200 o         1 1MQ     -0.817300
     33 O4         -1.8370    3.1680   -1.3400 o         1 1MQ     -0.817300
     34 C27        -4.4380    4.1310    0.5630 c2        1 1MQ     -0.201200
     35 C28        -3.2320    4.7990    1.0900 c3        1 1MQ     -0.068900
     36 F1         -3.0510   -6.6290   -4.9400 f         1 1MQ     -0.155900
     37 H1         -1.1900   -0.1310   -0.8110 ha        1 1MQ      0.160500
     38 H2          1.2870    0.1180   -0.7470 ha        1 1MQ      0.140500
     39 H3          1.1440    0.4900    3.5720 ha        1 1MQ      0.140500
     40 H4         -1.3240    0.2330    3.5050 ha        1 1MQ      0.160500
     41 H5         -3.2810    0.1340    2.3770 h1        1 1MQ      0.051700
     42 H6         -2.5990    2.2480    0.9840 h1        1 1MQ      0.061700
     43 H7         -2.9170   -1.3150   -1.9130 h1        1 1MQ      0.134700
     44 H8         -5.3010   -2.8950   -0.6980 hc        1 1MQ      0.069200
     45 H9         -5.5510   -1.8020   -2.1290 hc        1 1MQ      0.069200
     46 H10        -2.9250   -4.3180   -1.0180 ha        1 1MQ      0.149000
     47 H11        -2.1700   -6.2010   -2.4910 ha        1 1MQ      0.139000
     48 H12        -4.8120   -4.7880   -5.6230 ha        1 1MQ      0.139000
     49 H13        -5.5610   -2.9230   -4.1440 ha        1 1MQ      0.149000
     50 H14        -4.3780   -1.8380    1.4000 h1        1 1MQ      0.052700
     51 H15        -3.7350   -1.7790    3.8900 ha        1 1MQ      0.150000
     52 H16        -2.6460   -3.2160    5.6090 ha        1 1MQ      0.141000
     53 H17        -0.1530   -4.9860    2.5340 ha        1 1MQ      0.141000
     54 H18        -1.2510   -3.5400    0.8190 ha        1 1MQ      0.150000
     55 H19        -5.4080    2.4430   -0.2900 ha        1 1MQ      0.137000
     56 H21        -5.3400    4.7600    0.4920 ha        1 1MQ      0.095000
     57 H22        -3.3990    5.8970    1.2040 hc        1 1MQ      0.040033
     58 H23        -2.9540    4.3820    2.0910 hc        1 1MQ      0.040033
     59 H24        -2.3700    4.6330    0.3880 hc        1 1MQ      0.040033
@<TRIPOS>BOND
     1    1    2 ar  
     2    1    7 ar  
     3    1   37 1   
     4    2    3 ar  
     5    2   38 1   
     6    3    4 1   
     7    3    5 ar  
     8    5    6 ar  
     9    5   39 1   
    10    6    7 ar  
    11    6   40 1   
    12    7    8 1   
    13    8    9 1   
    14    8   22 1   
    15    8   41 1   
    16    9   10 1   
    17    9   11 1   
    18   10   30 1   
    19   10   31 1   
    20   10   42 1   
    21   11   12 2   
    22   11   13 1   
    23   13   14 1   
    24   13   21 1   
    25   13   43 1   
    26   14   15 1   
    27   14   44 1   
    28   14   45 1   
    29   15   16 ar  
    30   15   20 ar  
    31   16   17 ar  
    32   16   46 1   
    33   17   18 ar  
    34   17   47 1   
    35   18   19 ar  
    36   18   36 1   
    37   19   20 ar  
    38   19   48 1   
    39   20   49 1   
    40   21   22 1   
    41   22   23 1   
    42   22   50 1   
    43   23   24 ar  
    44   23   29 ar  
    45   24   25 ar  
    46   24   51 1   
    47   25   26 ar  
    48   25   52 1   
    49   26   27 1   
    50   26   28 ar  
    51   28   29 ar  
    52   28   53 1   
    53   29   54 1   
    54   30   34 2   
    55   30   55 1   
    56   31   32 1   
    57   31   33 1   
    58   34   35 1   
    59   34   56 1   
    60   35   57 1   
    61   35   58 1   
    62   35   59 1   
@<TRIPOS>SUBSTRUCTURE
     1 1MQ         1 TEMP              0 ****  ****    0 ROOT
