@<TRIPOS>MOLECULE
1MQ
   59    62     1     0     0
SMALL
bcc


@<TRIPOS>ATOM
      1 C3         -0.3560   -0.0490   -0.0700 ca        1 1MQ     -0.099500
      2 C2          1.0370   -0.0180   -0.1260 ca        1 1MQ     -0.133000
      3 C1          1.7740    0.0610    1.0580 ca        1 1MQ      0.017400
      4 Cl1         3.4800    0.0870    0.9980 cl        1 1MQ     -0.130400
      5 C4          1.1290    0.1260    2.2960 ca        1 1MQ     -0.133000
      6 C5         -0.2630    0.0990    2.3410 ca        1 1MQ     -0.099500
      7 C6         -1.0160   -0.0020    1.1630 ca        1 1MQ     -0.103300
      8 C7         -2.5220   -0.0620    1.2700 c3        1 1MQ      0.133000
      9 N1         -3.2950    0.7130    0.3140 n         1 1MQ     -0.431800
     10 C8         -2.8240    2.0650    0.0130 c3        1 1MQ     -0.021100
     11 C9         -3.9360    0.0240   -0.7340 c         1 1MQ      0.713500
     12 O1         -4.8910    0.5240   -1.3510 o         1 1MQ     -0.603500
     13 C10        -3.5120   -1.4150   -1.0730 c3        1 1MQ      0.053100
     14 C11        -4.7240   -2.2530   -1.4800 c3        1 1MQ     -0.057100
     15 C12        -4.3670   -3.4170   -2.3340 ca        1 1MQ     -0.073300
     16 C13        -3.4890   -4.4030   -1.8660 ca        1 1MQ     -0.100000
     17 C14        -3.1820   -5.5140   -2.6440 ca        1 1MQ     -0.170000
     18 C15        -3.7620   -5.6450   -3.9200 ca        1 1MQ      0.105900
     19 C16        -4.6350   -4.6570   -4.4050 ca        1 1MQ     -0.170000
     20 C17        -4.9280   -3.5530   -3.6100 ca        1 1MQ     -0.100000
     21 O2         -2.7980   -2.1010   -0.0400 os        1 1MQ     -0.422600
     22 C18        -3.0160   -1.5410    1.2550 c3        1 1MQ      0.175400
     23 C19        -2.3410   -2.4020    2.2760 ca        1 1MQ     -0.062300
     24 C20        -2.6370   -2.1980    3.6310 ca        1 1MQ     -0.106500
     25 C21        -2.0590   -3.0030    4.6090 ca        1 1MQ     -0.129500
     26 C22        -1.1810   -4.0220    4.2310 ca        1 1MQ      0.014400
     27 Cl2        -0.4750   -5.0130    5.4250 cl        1 1MQ     -0.117400
     28 C23        -0.8780   -4.2360    2.8840 ca        1 1MQ     -0.129500
     29 C24        -1.4600   -3.4250    1.9110 ca        1 1MQ     -0.106500
     30 C25        -3.8190    3.1430    0.3050 c2        1 1MQ     -0.103200
     31 C26        -2.2950    2.2220   -1.4700 c         1 1MQ      0.920600
     32 O3         -2.2290    1.1810   -2.1870 o         1 1MQ     -0.819300
     33 O4         -1.9300    3.3720   -1.8150 o         1 1MQ     -0.819300
     34 C27        -4.7600    3.1130    1.2520 c2        1 1MQ     -0.225200
     35 C28        -5.6920    4.2300    1.5070 c3        1 1MQ     -0.043900
     36 F1         -3.4750   -6.7290   -4.6840 f         1 1MQ     -0.155900
     37 H1         -0.9450   -0.0730   -1.0110 ha        1 1MQ      0.164500
     38 H2          1.5430   -0.0430   -1.1020 ha        1 1MQ      0.141000
     39 H3          1.7100    0.2010    3.2250 ha        1 1MQ      0.141000
     40 H4         -0.7710    0.1520    3.3150 ha        1 1MQ      0.164500
     41 H5         -2.8000    0.3620    2.2870 h1        1 1MQ      0.051700
     42 H6         -1.9210    2.2750    0.6650 h1        1 1MQ      0.061700
     43 H7         -2.7710   -1.3210   -1.9230 h1        1 1MQ      0.129700
     44 H8         -5.4440   -1.5810   -2.0250 hc        1 1MQ      0.070200
     45 H9         -5.2350   -2.6260   -0.5520 hc        1 1MQ      0.070200
     46 H10        -3.0260   -4.2790   -0.8730 ha        1 1MQ      0.149000
     47 H11        -2.4910   -6.2850   -2.2780 ha        1 1MQ      0.139000
     48 H12        -5.0740   -4.7600   -5.4070 ha        1 1MQ      0.139000
     49 H13        -5.6040   -2.7720   -3.9940 ha        1 1MQ      0.149000
     50 H14        -4.1280   -1.5490    1.4700 h1        1 1MQ      0.053700
     51 H15        -3.3300   -1.3940    3.9240 ha        1 1MQ      0.150000
     52 H16        -2.2940   -2.8350    5.6710 ha        1 1MQ      0.141500
     53 H17        -0.1820   -5.0360    2.5890 ha        1 1MQ      0.141500
     54 H18        -1.2270   -3.5840    0.8450 ha        1 1MQ      0.150000
     55 H19        -3.6760    4.0270   -0.3460 ha        1 1MQ      0.152000
     56 H21        -4.9090    2.2310    1.8940 ha        1 1MQ      0.107000
     57 H22        -6.7470    3.9010    1.3260 hc        1 1MQ      0.022367
     58 H23        -5.4820    5.1050    0.8450 hc        1 1MQ      0.022367
     59 H24        -5.6130    4.5670    2.5710 hc        1 1MQ      0.022367
@<TRIPOS>BOND
     1    1    2 ar  
     2    1    7 ar  
     3    1   37 1   
     4    2    3 ar  
     5    2   38 1   
     6    3    4 1   
     7    3    5 ar  
     8    5    6 ar  
     9    5   39 1   
    10    6    7 ar  
    11    6   40 1   
    12    7    8 1   
    13    8    9 1   
    14    8   22 1   
    15    8   41 1   
    16    9   10 1   
    17    9   11 1   
    18   10   30 1   
    19   10   31 1   
    20   10   42 1   
    21   11   12 2   
    22   11   13 1   
    23   13   14 1   
    24   13   21 1   
    25   13   43 1   
    26   14   15 1   
    27   14   44 1   
    28   14   45 1   
    29   15   16 ar  
    30   15   20 ar  
    31   16   17 ar  
    32   16   46 1   
    33   17   18 ar  
    34   17   47 1   
    35   18   19 ar  
    36   18   36 1   
    37   19   20 ar  
    38   19   48 1   
    39   20   49 1   
    40   21   22 1   
    41   22   23 1   
    42   22   50 1   
    43   23   24 ar  
    44   23   29 ar  
    45   24   25 ar  
    46   24   51 1   
    47   25   26 ar  
    48   25   52 1   
    49   26   27 1   
    50   26   28 ar  
    51   28   29 ar  
    52   28   53 1   
    53   29   54 1   
    54   30   34 2   
    55   30   55 1   
    56   31   32 1   
    57   31   33 1   
    58   34   35 1   
    59   34   56 1   
    60   35   57 1   
    61   35   58 1   
    62   35   59 1   
@<TRIPOS>SUBSTRUCTURE
     1 1MQ         1 TEMP              0 ****  ****    0 ROOT
