@<TRIPOS>MOLECULE
1MQ
   59    52     1     0     0
SMALL
bcc


@<TRIPOS>ATOM
      1 C3          2.5440   -0.0100   -0.1910 c1        1 1MQ     -0.095000
      2 C2          3.9310    0.0080   -0.2080 c1        1 1MQ     -0.134500
      3 C1          4.6320    0.4550    0.8940 c1        1 1MQ     -0.065500
      4 CL1         6.3650    0.3810    0.9030 cl        1 1MQ     -0.049500
      5 C4          3.9480    0.8900    2.0280 c1        1 1MQ     -0.119500
      6 C5          2.5550    0.8730    2.0500 c1        1 1MQ     -0.119500
      7 C6          1.8530    0.4240    0.9420 c1        1 1MQ     -0.049000
      8 C7          0.1700    0.4550    0.9400 c3        1 1MQ      0.025000
      9 N1         -0.1980    1.2890    0.0990 n3        1 1MQ     -0.263000
     10 C8         -0.3120    2.7130    0.4700 c3        1 1MQ     -0.055000
     11 C9          0.0700    0.9180   -1.2800 c1        1 1MQ      0.289000
     12 O1          0.3760    1.7600   -2.0830 o         1 1MQ     -0.374000
     13 C10        -0.5870   -0.4910   -1.7780 c2        1 1MQ      0.012000
     14 C11        -1.8950   -0.4010   -1.8700 c3        1 1MQ     -0.165000
     15 C12        -2.3720   -1.2250   -3.0530 c2        1 1MQ     -0.064000
     16 C13        -3.3880   -2.1660   -2.8830 c2        1 1MQ     -0.109000
     17 C14        -3.9140   -2.8220   -3.9840 c1        1 1MQ     -0.174000
     18 C15        -3.4270   -2.5390   -5.2600 c1        1 1MQ      0.066000
     19 C16        -2.4190   -1.6030   -5.4240 c1        1 1MQ     -0.167000
     20 C17        -1.8920   -0.9470   -4.3200 c1        1 1MQ     -0.103000
     21 O2         -0.0370   -1.3850   -0.5880 os        1 1MQ     -0.278000
     22 C18        -0.2980   -0.8980    0.7080 c3        1 1MQ      0.021000
     23 C19         0.4010   -1.8550    1.7430 c2        1 1MQ     -0.055000
     24 C20        -0.1130   -1.9780    3.0180 c2        1 1MQ     -0.112000
     25 C21         0.3840   -2.9390    3.8720 c1        1 1MQ     -0.130000
     26 C22         1.4030   -3.7870    3.4490 c1        1 1MQ     -0.065500
     27 CL2         2.1050   -4.9170    4.5590 cl        1 1MQ     -0.049500
     28 C23         1.9150   -3.6650    2.1780 c1        1 1MQ     -0.134500
     29 C24         1.4180   -2.7010    1.3220 c1        1 1MQ     -0.098000
     30 C25        -1.2520    2.8570    1.6240 c2        1 1MQ     -0.135000
     31 C26        -0.8280    3.4810   -0.6830 c2        1 1MQ      0.316000
     32 O3         -1.3810    2.8750   -1.6500 o         1 1MQ     -0.562500
     33 O4         -0.8210    4.7510   -0.6520 o         1 1MQ     -0.562500
     34 C27        -1.1660    3.9590    2.4500 c1        1 1MQ     -0.186000
     35 C28        -0.1360    5.0020    2.1920 c2        1 1MQ     -0.185000
     36 F1         -3.9330   -3.1650   -6.3230 f         1 1MQ     -0.123000
     37 H1          2.0550   -0.3250   -0.9670 ha        1 1MQ      0.148000
     38 H2          4.4210   -0.3170   -1.0070 ha        1 1MQ      0.137000
     39 H3          4.4490    1.2080    2.8100 ha        1 1MQ      0.140500
     40 H4          2.0750    1.2590    2.8090 ha        1 1MQ      0.140500
     41 H5         -0.1390    0.7460    1.8240 h1        1 1MQ      0.143000
     42 H6          0.5900    3.0640    0.7290 h1        1 1MQ      0.119000
     43 H7         -0.3440   -0.8390   -2.6530 h4        1 1MQ      0.127000
     44 H8         -2.3100   -0.7400   -1.0410 hc        1 1MQ      0.138000
     45 H9         -2.1510    0.5470   -2.0040 hc        1 1MQ      0.138000
     46 H10        -3.6610   -2.4340   -1.9750 ha        1 1MQ      0.135000
     47 H11        -4.6260   -3.4820   -3.8670 ha        1 1MQ      0.135000
     48 H12        -2.0760   -1.4040   -6.3230 ha        1 1MQ      0.141000
     49 H13        -1.1990   -0.2560   -4.4410 ha        1 1MQ      0.179000
     50 H14        -1.2750   -0.9250    0.8620 h1        1 1MQ      0.163000
     51 H15        -0.8510   -1.3670    3.3240 ha        1 1MQ      0.166000
     52 H16         0.0860   -2.9650    4.7950 ha        1 1MQ      0.142000
     53 H17         2.6940   -4.2400    1.8920 ha        1 1MQ      0.137000
     54 H18         1.9850   -3.0510    0.6210 ha        1 1MQ      0.153000
     55 H19        -1.9200    2.1800    1.7890 ha        1 1MQ      0.151000
     56 H21        -1.7700    4.0510    3.1910 ha        1 1MQ      0.094000
     57 H22        -0.3960    5.8390    2.6360 ha        1 1MQ      0.076000
     58 H23        -0.0630    5.1530    1.2390 ha        1 1MQ      0.076000
     59 H24         0.7230    4.7030    2.5420 ha        1 1MQ      0.076000
@<TRIPOS>BOND
     1    1    7 1   
     2    1   37 1   
     3    2    3 1   
     4    2   38 1   
     5    3    4 1   
     6    5    6 1   
     7    5   39 1   
     8    6   40 1   
     9    7    8 1   
    10    8    9 1   
    11    8   22 1   
    12    8   41 1   
    13    9   10 1   
    14    9   11 1   
    15   10   30 1   
    16   10   31 1   
    17   10   42 1   
    18   11   12 1   
    19   13   14 1   
    20   13   21 1   
    21   13   43 1   
    22   14   15 1   
    23   14   44 1   
    24   14   45 1   
    25   15   16 1   
    26   15   20 1   
    27   16   17 1   
    28   16   46 1   
    29   17   47 1   
    30   18   19 1   
    31   19   48 1   
    32   20   49 1   
    33   21   22 1   
    34   22   23 1   
    35   22   50 1   
    36   23   24 1   
    37   23   29 1   
    38   24   25 1   
    39   24   51 1   
    40   25   52 1   
    41   26   27 1   
    42   26   28 1   
    43   28   53 1   
    44   29   54 1   
    45   30   34 1   
    46   30   55 1   
    47   31   32 1   
    48   31   33 1   
    49   34   56 1   
    50   35   57 1   
    51   35   58 1   
    52   35   59 1   
@<TRIPOS>SUBSTRUCTURE
     1 1MQ         1 TEMP              0 ****  ****    0 ROOT
