@<TRIPOS>MOLECULE
1MQ
   59    62     1     0     0
SMALL
bcc


@<TRIPOS>ATOM
      1 C3         -0.6700   -0.0400    0.1650 ca        1 1MQ     -0.096000
      2 C2          0.7160    0.1080    0.2000 ca        1 1MQ     -0.131000
      3 C1          1.3600    0.2890    1.4260 ca        1 1MQ      0.019400
      4 CL1         3.0580    0.4550    1.4800 cl        1 1MQ     -0.131400
      5 C4          0.6260    0.3410    2.6150 ca        1 1MQ     -0.131000
      6 C5         -0.7580    0.1970    2.5680 ca        1 1MQ     -0.096000
      7 C6         -1.4160   -0.0080    1.3480 ca        1 1MQ     -0.102300
      8 C7         -2.9130   -0.2030    1.3560 c3        1 1MQ      0.134000
      9 N1         -3.7000    0.5490    0.3910 n         1 1MQ     -0.430800
     10 C8         -3.3000    1.9370    0.1360 c3        1 1MQ     -0.019100
     11 C9         -4.2330   -0.1470   -0.7140 c         1 1MQ      0.714500
     12 O1         -5.2090    0.2990   -1.3420 o         1 1MQ     -0.619500
     13 C10        -3.6750   -1.5270   -1.0950 c3        1 1MQ      0.052100
     14 C11        -4.7930   -2.4470   -1.5840 c3        1 1MQ     -0.057100
     15 C12        -4.3060   -3.5390   -2.4690 ca        1 1MQ     -0.072300
     16 C13        -3.3510   -4.4570   -2.0110 ca        1 1MQ     -0.100000
     17 C14        -2.9220   -5.5030   -2.8190 ca        1 1MQ     -0.170000
     18 C15        -3.4530   -5.6380   -4.1150 ca        1 1MQ      0.105900
     19 C16        -4.4020   -4.7170   -4.5900 ca        1 1MQ     -0.170000
     20 C17        -4.8180   -3.6760   -3.7640 ca        1 1MQ     -0.100000
     21 O2         -2.9420   -2.1900   -0.0600 os        1 1MQ     -0.421600
     22 C18        -3.2710   -1.7180    1.2460 c3        1 1MQ      0.174400
     23 C19        -2.5700   -2.5660    2.2600 ca        1 1MQ     -0.062300
     24 C20        -2.9620   -2.4720    3.6030 ca        1 1MQ     -0.105500
     25 C21        -2.3590   -3.2690    4.5720 ca        1 1MQ     -0.129500
     26 C22        -1.3590   -4.1710    4.1960 ca        1 1MQ      0.014400
     27 CL2        -0.6220   -5.1530    5.3780 cl        1 1MQ     -0.118400
     28 C23        -0.9600   -4.2750    2.8610 ca        1 1MQ     -0.129500
     29 C24        -1.5690   -3.4720    1.8970 ca        1 1MQ     -0.105500
     30 C25        -4.4780    2.8610    0.1120 c2        1 1MQ     -0.124200
     31 C26        -2.4880    2.0950   -1.2140 c         1 1MQ      0.916600
     32 O3         -2.5180    1.1280   -2.0300 o         1 1MQ     -0.817300
     33 O4         -1.8280    3.1530   -1.3590 o         1 1MQ     -0.817300
     34 C27        -4.4340    4.1310    0.5290 c2        1 1MQ     -0.201200
     35 C28        -3.2290    4.7990    1.0570 c3        1 1MQ     -0.068900
     36 F1         -3.0460   -6.6600   -4.9100 f         1 1MQ     -0.155900
     37 H1         -1.1880   -0.1440   -0.8100 ha        1 1MQ      0.160500
     38 H2          1.2890    0.1000   -0.7390 ha        1 1MQ      0.140500
     39 H3          1.1330    0.4980    3.5770 ha        1 1MQ      0.140500
     40 H4         -1.3350    0.2450    3.5040 ha        1 1MQ      0.160500
     41 H5         -3.2890    0.1430    2.3710 h1        1 1MQ      0.051700
     42 H6         -2.5990    2.2480    0.9670 h1        1 1MQ      0.061700
     43 H7         -2.9130   -1.3320   -1.9100 h1        1 1MQ      0.134700
     44 H8         -5.3040   -2.9020   -0.6930 hc        1 1MQ      0.069200
     45 H9         -5.5480   -1.8160   -2.1300 hc        1 1MQ      0.069200
     46 H10        -2.9290   -4.3300   -1.0000 ha        1 1MQ      0.149000
     47 H11        -2.1710   -6.2210   -2.4610 ha        1 1MQ      0.139000
     48 H12        -4.8020   -4.8210   -5.6070 ha        1 1MQ      0.139000
     49 H13        -5.5530   -2.9480   -4.1400 ha        1 1MQ      0.149000
     50 H14        -4.3860   -1.8340    1.4020 h1        1 1MQ      0.052700
     51 H15        -3.7500   -1.7600    3.8930 ha        1 1MQ      0.150000
     52 H16        -2.6680   -3.1880    5.6240 ha        1 1MQ      0.141000
     53 H17        -0.1690   -4.9810    2.5680 ha        1 1MQ      0.141000
     54 H18        -1.2600   -3.5440    0.8410 ha        1 1MQ      0.150000
     55 H19        -5.4040    2.4390   -0.3160 ha        1 1MQ      0.137000
     56 H21        -5.3350    4.7600    0.4520 ha        1 1MQ      0.095000
     57 H22        -2.3650    4.6280    0.3590 hc        1 1MQ      0.040033
     58 H23        -3.3950    5.8990    1.1630 hc        1 1MQ      0.040033
     59 H24        -2.9560    4.3890    2.0610 hc        1 1MQ      0.040033
@<TRIPOS>BOND
     1    1    2 ar  
     2    1    7 ar  
     3    1   37 1   
     4    2    3 ar  
     5    2   38 1   
     6    3    4 1   
     7    3    5 ar  
     8    5    6 ar  
     9    5   39 1   
    10    6    7 ar  
    11    6   40 1   
    12    7    8 1   
    13    8    9 1   
    14    8   22 1   
    15    8   41 1   
    16    9   10 1   
    17    9   11 1   
    18   10   30 1   
    19   10   31 1   
    20   10   42 1   
    21   11   12 2   
    22   11   13 1   
    23   13   14 1   
    24   13   21 1   
    25   13   43 1   
    26   14   15 1   
    27   14   44 1   
    28   14   45 1   
    29   15   16 ar  
    30   15   20 ar  
    31   16   17 ar  
    32   16   46 1   
    33   17   18 ar  
    34   17   47 1   
    35   18   19 ar  
    36   18   36 1   
    37   19   20 ar  
    38   19   48 1   
    39   20   49 1   
    40   21   22 1   
    41   22   23 1   
    42   22   50 1   
    43   23   24 ar  
    44   23   29 ar  
    45   24   25 ar  
    46   24   51 1   
    47   25   26 ar  
    48   25   52 1   
    49   26   27 1   
    50   26   28 ar  
    51   28   29 ar  
    52   28   53 1   
    53   29   54 1   
    54   30   34 2   
    55   30   55 1   
    56   31   32 1   
    57   31   33 1   
    58   34   35 1   
    59   34   56 1   
    60   35   57 1   
    61   35   58 1   
    62   35   59 1   
@<TRIPOS>SUBSTRUCTURE
     1 1MQ         1 TEMP              0 ****  ****    0 ROOT
