@<TRIPOS>MOLECULE
1MQ
   59    62     1     0     0
SMALL
bcc


@<TRIPOS>ATOM
      1 C3         -1.5950    0.6980    1.0970 ca        1 1MQ     -0.099500
      2 C2         -2.6410    0.3120    1.9360 ca        1 1MQ     -0.133000
      3 C1         -3.7600   -0.3260    1.3960 ca        1 1MQ      0.017400
      4 CL1        -5.0380   -0.8110    2.4180 cl        1 1MQ     -0.130400
      5 C4         -3.8480   -0.5670    0.0230 ca        1 1MQ     -0.133000
      6 C5         -2.8000   -0.1750   -0.8060 ca        1 1MQ     -0.099500
      7 C6         -1.6620    0.4470   -0.2770 ca        1 1MQ     -0.103300
      8 C7         -0.5390    0.8220   -1.2160 c3        1 1MQ      0.133000
      9 N1          0.0950    2.1150   -1.0230 n         1 1MQ     -0.431800
     10 C8         -0.7790    3.2530   -0.7380 c3        1 1MQ     -0.021100
     11 C9          1.3750    2.1440   -0.4340 c         1 1MQ      0.713500
     12 O1          2.1290    3.1210   -0.5710 o         1 1MQ     -0.603500
     13 C10         1.8950    0.9110    0.3230 c3        1 1MQ      0.053100
     14 C11         3.3960    0.7320    0.0950 c3        1 1MQ     -0.057100
     15 C12         4.0630   -0.0370    1.1800 ca        1 1MQ     -0.073300
     16 C13         3.6640   -1.3470    1.4760 ca        1 1MQ     -0.100000
     17 C14         4.3090   -2.0840    2.4620 ca        1 1MQ     -0.170000
     18 C15         5.3750   -1.5030    3.1740 ca        1 1MQ      0.105900
     19 C16         5.7760   -0.1850    2.8940 ca        1 1MQ     -0.170000
     20 C17         5.1170    0.5360    1.9030 ca        1 1MQ     -0.100000
     21 O2          1.2280   -0.3190    0.0180 os        1 1MQ     -0.422600
     22 C18         0.5540   -0.2910   -1.2390 c3        1 1MQ      0.175400
     23 C19         0.0060   -1.6540   -1.5270 ca        1 1MQ     -0.062300
     24 C20        -0.4660   -1.9310   -2.8170 ca        1 1MQ     -0.106500
     25 C21        -0.9480   -3.1980   -3.1350 ca        1 1MQ     -0.129500
     26 C22        -0.9550   -4.1970   -2.1570 ca        1 1MQ      0.014400
     27 CL2        -1.5400   -5.7500   -2.5440 cl        1 1MQ     -0.117400
     28 C23        -0.4880   -3.9330   -0.8670 ca        1 1MQ     -0.129500
     29 C24        -0.0080   -2.6610   -0.5570 ca        1 1MQ     -0.106500
     30 C25        -0.6730    4.3730   -1.7230 c2        1 1MQ     -0.103200
     31 C26        -0.6010    3.8210    0.7280 c         1 1MQ      0.920600
     32 O3          0.1650    3.1930    1.5150 o         1 1MQ     -0.819300
     33 O4         -1.2790    4.8360    1.0210 o         1 1MQ     -0.819300
     34 C27        -0.3630    4.2590   -3.0180 c2        1 1MQ     -0.225200
     35 C28        -0.3060    5.4080   -3.9440 c3        1 1MQ     -0.043900
     36 F1          6.0160   -2.2160    4.1340 f         1 1MQ     -0.155900
     37 H1         -0.7230    1.2400    1.5190 ha        1 1MQ      0.164500
     38 H2         -2.5820    0.5270    3.0140 ha        1 1MQ      0.141000
     39 H3         -4.7350   -1.0580   -0.4020 ha        1 1MQ      0.141000
     40 H4         -2.8710   -0.3630   -1.8890 ha        1 1MQ      0.164500
     41 H5         -0.9810    0.8640   -2.2620 h1        1 1MQ      0.051700
     42 H6         -1.8520    2.8890   -0.7780 h1        1 1MQ      0.061700
     43 H7          1.6640    1.1030    1.4130 h1        1 1MQ      0.129700
     44 H8          3.5530    0.1960   -0.8800 hc        1 1MQ      0.070200
     45 H9          3.8580    1.7540    0.0060 hc        1 1MQ      0.070200
     46 H10         2.8150   -1.7850    0.9240 ha        1 1MQ      0.149000
     47 H11         3.9940   -3.1100    2.6960 ha        1 1MQ      0.139000
     48 H12         6.6010    0.2670    3.4620 ha        1 1MQ      0.139000
     49 H13         5.4230    1.5720    1.6910 ha        1 1MQ      0.149000
     50 H14         1.3050   -0.0380   -2.0470 h1        1 1MQ      0.053700
     51 H15        -0.4560   -1.1420   -3.5840 ha        1 1MQ      0.150000
     52 H16        -1.3190   -3.4090   -4.1490 ha        1 1MQ      0.141500
     53 H17        -0.5000   -4.7190   -0.0980 ha        1 1MQ      0.141500
     54 H18         0.3620   -2.4410    0.4580 ha        1 1MQ      0.150000
     55 H19        -0.9200    5.3510   -1.2680 ha        1 1MQ      0.152000
     56 H21        -0.1090    3.2880   -3.4700 ha        1 1MQ      0.107000
     57 H22        -0.9970    5.2450   -4.8090 hc        1 1MQ      0.022367
     58 H23        -0.5960    6.3620   -3.4390 hc        1 1MQ      0.022367
     59 H24         0.7310    5.5270   -4.3470 hc        1 1MQ      0.022367
@<TRIPOS>BOND
     1    1    2 ar  
     2    1    7 ar  
     3    1   37 1   
     4    2    3 ar  
     5    2   38 1   
     6    3    4 1   
     7    3    5 ar  
     8    5    6 ar  
     9    5   39 1   
    10    6    7 ar  
    11    6   40 1   
    12    7    8 1   
    13    8    9 1   
    14    8   22 1   
    15    8   41 1   
    16    9   10 1   
    17    9   11 1   
    18   10   30 1   
    19   10   31 1   
    20   10   42 1   
    21   11   12 2   
    22   11   13 1   
    23   13   14 1   
    24   13   21 1   
    25   13   43 1   
    26   14   15 1   
    27   14   44 1   
    28   14   45 1   
    29   15   16 ar  
    30   15   20 ar  
    31   16   17 ar  
    32   16   46 1   
    33   17   18 ar  
    34   17   47 1   
    35   18   19 ar  
    36   18   36 1   
    37   19   20 ar  
    38   19   48 1   
    39   20   49 1   
    40   21   22 1   
    41   22   23 1   
    42   22   50 1   
    43   23   24 ar  
    44   23   29 ar  
    45   24   25 ar  
    46   24   51 1   
    47   25   26 ar  
    48   25   52 1   
    49   26   27 1   
    50   26   28 ar  
    51   28   29 ar  
    52   28   53 1   
    53   29   54 1   
    54   30   34 2   
    55   30   55 1   
    56   31   32 1   
    57   31   33 1   
    58   34   35 1   
    59   34   56 1   
    60   35   57 1   
    61   35   58 1   
    62   35   59 1   
@<TRIPOS>SUBSTRUCTURE
     1 1MQ         1 TEMP              0 ****  ****    0 ROOT
