@<TRIPOS>MOLECULE
1MR
   17    17     1     0     0
SMALL
bcc


@<TRIPOS>ATOM
      1 CAA         2.9030   -1.1760    4.8870 c3        1 1MR      0.175100
      2 NAG         1.7120   -1.0010    4.1090 nh        1 1MR     -0.731600
      3 CAH         1.8080   -1.0080    2.7070 ca        1 1MR      0.142600
      4 CAE         0.7530   -0.4660    1.9310 ca        1 1MR     -0.187500
      5 CAC         0.7860   -0.5480    0.5450 ca        1 1MR     -0.095500
      6 CAB         1.8580   -1.1550   -0.1080 ca        1 1MR     -0.172000
      7 CAD         2.9060   -1.6830    0.6430 ca        1 1MR     -0.095500
      8 CAF         2.8930   -1.6120    2.0330 ca        1 1MR     -0.187500
      9 HAA1        3.7280   -0.4670    4.6010 h1        1 1MR      0.036367
     10 HAA2        3.2790   -2.2260    4.7550 h1        1 1MR      0.036367
     11 HAA3        2.6520   -1.0200    5.9690 h1        1 1MR      0.036367
     12 HNAG        1.1130   -0.2780    4.4520 hn        1 1MR      0.394800
     13 HAE        -0.1040    0.0150    2.4240 ha        1 1MR      0.130500
     14 HAC        -0.0450   -0.1270   -0.0410 ha        1 1MR      0.128000
     15 HAB         1.8770   -1.2150   -1.2050 ha        1 1MR      0.130000
     16 HAD         3.7570   -2.1620    0.1360 ha        1 1MR      0.128000
     17 HAF         3.7350   -2.0380    2.5990 ha        1 1MR      0.130500
@<TRIPOS>BOND
     1    1    2 1   
     2    1    9 1   
     3    1   10 1   
     4    1   11 1   
     5    2    3 1   
     6    2   12 1   
     7    3    4 ar  
     8    3    8 ar  
     9    4    5 ar  
    10    4   13 1   
    11    5    6 ar  
    12    5   14 1   
    13    6    7 ar  
    14    6   15 1   
    15    7    8 ar  
    16    7   16 1   
    17    8   17 1   
@<TRIPOS>SUBSTRUCTURE
     1 1MR         1 TEMP              0 ****  ****    0 ROOT
