@<TRIPOS>MOLECULE
1MR
   17    17     1     0     0
SMALL
bcc


@<TRIPOS>ATOM
      1 CAA         0.0360   -0.1370   -0.0110 c3        1 1MR      0.175100
      2 NAG         1.4620    0.0120   -0.0500 nu        1 1MR     -0.731600
      3 CAH         2.1750    0.0430    1.1590 ca        1 1MR      0.142600
      4 CAE         3.4930    0.5640    1.1810 ca        1 1MR     -0.187500
      5 CAC         4.2490    0.5170    2.3450 ca        1 1MR     -0.095500
      6 CAB         3.7240   -0.0330    3.5140 ca        1 1MR     -0.172000
      7 CAD         2.4270   -0.5390    3.5090 ca        1 1MR     -0.095500
      8 CAF         1.6520   -0.5030    2.3540 ca        1 1MR     -0.187500
      9 HAA1       -0.4700    0.6090    0.6610 h1        1 1MR      0.036367
     10 HAA2       -0.2180   -1.1680    0.3540 h1        1 1MR      0.036367
     11 HAA3       -0.3670   -0.0170   -1.0510 h1        1 1MR      0.036367
     12 HNAG        1.7720    0.7040   -0.7010 hn        1 1MR      0.394800
     13 HAE         3.9290    1.0000    0.2700 ha        1 1MR      0.130500
     14 HAC         5.2730    0.9210    2.3410 ha        1 1MR      0.128000
     15 HAB         4.3290   -0.0650    4.4310 ha        1 1MR      0.130000
     16 HAD         2.0040   -0.9740    4.4270 ha        1 1MR      0.128000
     17 HAF         0.6310   -0.9110    2.3800 ha        1 1MR      0.130500
@<TRIPOS>BOND
     1    1    2 1   
     2    1    9 1   
     3    1   10 1   
     4    1   11 1   
     5    2    3 1   
     6    2   12 1   
     7    3    4 ar  
     8    3    8 ar  
     9    4    5 ar  
    10    4   13 1   
    11    5    6 ar  
    12    5   14 1   
    13    6    7 ar  
    14    6   15 1   
    15    7    8 ar  
    16    7   16 1   
    17    8   17 1   
@<TRIPOS>SUBSTRUCTURE
     1 1MR         1 TEMP              0 ****  ****    0 ROOT
