@<TRIPOS>MOLECULE
1MR
   17    17     1     0     0
SMALL
bcc


@<TRIPOS>ATOM
      1 CAA         0.0380   -0.1440   -0.0130 c3        1 1MR      0.174100
      2 NAG         1.4630    0.0110   -0.0510 nh        1 1MR     -0.731600
      3 CAH         2.1750    0.0430    1.1600 ca        1 1MR      0.142600
      4 CAE         3.4910    0.5700    1.1830 ca        1 1MR     -0.187500
      5 CAC         4.2460    0.5250    2.3480 ca        1 1MR     -0.095500
      6 CAB         3.7220   -0.0280    3.5160 ca        1 1MR     -0.172000
      7 CAD         2.4270   -0.5400    3.5080 ca        1 1MR     -0.095500
      8 CAF         1.6530   -0.5060    2.3530 ca        1 1MR     -0.187500
      9 HAA1       -0.2120   -1.1770    0.3500 h1        1 1MR      0.036367
     10 HAA2       -0.3640   -0.0250   -1.0540 h1        1 1MR      0.036367
     11 HAA3       -0.4720    0.5990    0.6590 h1        1 1MR      0.036367
     12 HNAG        1.7720    0.7050   -0.7010 hn        1 1MR      0.394800
     13 HAE         3.9260    1.0100    0.2730 ha        1 1MR      0.130500
     14 HAC         5.2680    0.9340    2.3460 ha        1 1MR      0.128000
     15 HAB         4.3260   -0.0590    4.4330 ha        1 1MR      0.130000
     16 HAD         2.0050   -0.9780    4.4260 ha        1 1MR      0.128000
     17 HAF         0.6340   -0.9180    2.3770 ha        1 1MR      0.130500
@<TRIPOS>BOND
     1    1    2 1   
     2    1    9 1   
     3    1   10 1   
     4    1   11 1   
     5    2    3 1   
     6    2   12 1   
     7    3    4 ar  
     8    3    8 ar  
     9    4    5 ar  
    10    4   13 1   
    11    5    6 ar  
    12    5   14 1   
    13    6    7 ar  
    14    6   15 1   
    15    7    8 ar  
    16    7   16 1   
    17    8   17 1   
@<TRIPOS>SUBSTRUCTURE
     1 1MR         1 TEMP              0 ****  ****    0 ROOT
