@<TRIPOS>MOLECULE
1MR
   18    18     1     0     0
SMALL
bcc


@<TRIPOS>ATOM
      1 CAA         0.1740    0.4820   -0.0430 c3        1 1MR      0.083100
      2 NAG         1.4000   -0.3550   -0.0520 n4        1 1MR     -0.623400
      3 CAH         2.1710   -0.2270    1.1910 ca        1 1MR     -0.069400
      4 CAE         3.1680    0.7600    1.2900 ca        1 1MR     -0.102000
      5 CAC         3.8990    0.8660    2.4710 ca        1 1MR     -0.100000
      6 CAB         3.6440    0.0050    3.5410 ca        1 1MR     -0.067000
      7 CAD         2.6520   -0.9720    3.4340 ca        1 1MR     -0.100000
      8 CAF         1.9070   -1.0970    2.2630 ca        1 1MR     -0.102000
      9 HAA1       -0.4820    0.1720    0.8140 hx        1 1MR      0.110033
     10 HAA2        0.4610    1.5610    0.0860 hx        1 1MR      0.110033
     11 HAA3       -0.3710    0.3440   -1.0150 hx        1 1MR      0.110033
     12 HNAG        1.9990   -0.0760   -0.8410 hn        1 1MR      0.457800
     13 HAE         3.3830    1.4480    0.4560 ha        1 1MR      0.156000
     14 HAC         4.6840    1.6360    2.5560 ha        1 1MR      0.174000
     15 HAB         4.2290    0.0960    4.4720 ha        1 1MR      0.174000
     16 HAD         2.4520   -1.6520    4.2790 ha        1 1MR      0.174000
     17 HAF         1.1290   -1.8740    2.1960 ha        1 1MR      0.156000
     18 HAG2        1.1400   -1.3410   -0.1770 hn        1 1MR      0.457800
@<TRIPOS>BOND
     1    1    2 1   
     2    1    9 1   
     3    1   10 1   
     4    1   11 1   
     5    2    3 1   
     6    2   12 1   
     7    2   18 1   
     8    3    4 ar  
     9    3    8 ar  
    10    4    5 ar  
    11    4   13 1   
    12    5    6 ar  
    13    5   14 1   
    14    6    7 ar  
    15    6   15 1   
    16    7    8 ar  
    17    7   16 1   
    18    8   17 1   
@<TRIPOS>SUBSTRUCTURE
     1 1MR         1 TEMP              0 ****  ****    0 ROOT
