@<TRIPOS>MOLECULE
1MR
   17    15     1     0     0
SMALL
bcc


@<TRIPOS>ATOM
      1 CAA        -0.6630   -0.5280   -2.4870 c3        1 1MR     -0.101000
      2 NAG        -1.0750    0.2380   -1.3600 n3        1 1MR     -0.287000
      3 CAH        -0.3290    0.1850   -0.1550 c2        1 1MR      0.061000
      4 CAE         0.5370    1.2170    0.1700 c2        1 1MR     -0.189000
      5 CAC         1.2360    1.1850    1.3670 c1        1 1MR     -0.095000
      6 CAB         1.0680    0.1210    2.2390 c1        1 1MR     -0.134000
      7 CAD         0.2010   -0.9110    1.9150 c1        1 1MR     -0.134000
      8 CAF        -0.4980   -0.8790    0.7180 c1        1 1MR     -0.186000
      9 HAA1       -0.2410    0.0620   -3.1480 h1        1 1MR      0.075667
     10 HAA2       -1.4440   -0.9650   -2.8900 h1        1 1MR      0.075667
     11 HAA3       -0.0190   -1.2110   -2.2000 h1        1 1MR      0.075667
     12 HNAG       -1.8090    0.7760   -1.4190 hn        1 1MR      0.190000
     13 HAE         0.6560    1.9660   -0.4440 ha        1 1MR      0.129000
     14 HAC         1.8460    1.9120    1.5950 ha        1 1MR      0.128000
     15 HAB         1.5590    0.0980    3.0820 ha        1 1MR      0.129000
     16 HAD         0.0820   -1.6600    2.5290 ha        1 1MR      0.129000
     17 HAF        -1.1080   -1.6060    0.4900 ha        1 1MR      0.132000
@<TRIPOS>BOND
     1    1    2 1   
     2    1    9 1   
     3    1   10 1   
     4    1   11 1   
     5    2    3 1   
     6    2   12 1   
     7    3    4 1   
     8    3    8 1   
     9    4    5 1   
    10    4   13 1   
    11    5   14 1   
    12    6    7 1   
    13    6   15 1   
    14    7   16 1   
    15    8   17 1   
@<TRIPOS>SUBSTRUCTURE
     1 1MR         1 TEMP              0 ****  ****    0 ROOT
