@<TRIPOS>MOLECULE
1MS
   34    35     1     0     0
SMALL
bcc


@<TRIPOS>ATOM
      1 O8         -0.1470    1.0030   -0.4120 o         1 1MS     -0.198500
      2 N7          0.8640    0.3750   -0.2750 no        1 1MS      0.310200
      3 O9          1.0920   -0.2740    0.7120 o         1 1MS     -0.198500
      4 C1          1.8480    0.3460   -1.4040 ca        1 1MS     -0.051200
      5 C6          1.3320    0.4080   -2.7030 ca        1 1MS     -0.104000
      6 C5          2.2050    0.3150   -3.7910 ca        1 1MS     -0.075000
      7 C4          3.5700    0.1610   -3.5770 ca        1 1MS     -0.119000
      8 C3          4.0710    0.1250   -2.2740 ca        1 1MS     -0.014000
      9 C2          3.2310    0.2360   -1.1600 ca        1 1MS     -0.311500
     10 S10         4.0000    0.2980    0.3710 sy        1 1MS      1.516900
     11 O11         5.3580    0.5720    0.1700 o         1 1MS     -0.625300
     12 O12         3.2990    1.2070    1.1770 o         1 1MS     -0.625300
     13 N13         3.7680   -1.2100    0.9760 n         1 1MS     -0.676300
     14 C14         4.4320   -2.3850    0.5580 c         1 1MS      0.815100
     15 O15         5.1550   -2.3440   -0.4550 o         1 1MS     -0.575100
     16 N16         4.2290   -3.5490    1.3270 n         1 1MS     -0.539400
     17 C18         4.6750   -4.8230    0.8860 ca        1 1MS      0.767900
     18 N17         4.5200   -5.1500   -0.4510 nb        1 1MS     -0.688000
     19 C23         4.9170   -6.3860   -0.7960 ca        1 1MS      0.453200
     20 C22         5.4470   -7.3130    0.1170 ca        1 1MS     -0.391600
     21 C20         5.5560   -6.9010    1.4640 ca        1 1MS      0.475600
     22 C21         6.1080   -7.8480    2.4780 c3        1 1MS     -0.157400
     23 N19         5.1800   -5.6630    1.8630 nb        1 1MS     -0.737000
     24 H6          0.2480    0.5300   -2.8720 ha        1 1MS      0.173000
     25 H5          1.8000    0.3600   -4.8150 ha        1 1MS      0.153000
     26 H4          4.2610    0.0690   -4.4300 ha        1 1MS      0.156000
     27 H3          5.1610    0.0030   -2.1110 ha        1 1MS      0.188000
     28 HN13        3.0140   -1.3350    1.6240 hn        1 1MS      0.358500
     29 HN16        4.0710   -3.4530    2.3070 hn        1 1MS      0.344500
     30 H23         4.7960   -6.6380   -1.8660 h4        1 1MS      0.033100
     31 H22         5.7610   -8.3120   -0.2020 ha        1 1MS      0.158000
     32 H21         6.3330   -8.8330    2.0020 hc        1 1MS      0.061367
     33 H21A        7.0510   -7.4370    2.9200 hc        1 1MS      0.061367
     34 H21B        5.3740   -8.0080    3.3070 hc        1 1MS      0.061367
@<TRIPOS>BOND
     1    1    2 1   
     2    2    3 1   
     3    2    4 1   
     4    4    5 ar  
     5    4    9 ar  
     6    5    6 ar  
     7    5   24 1   
     8    6    7 ar  
     9    6   25 1   
    10    7    8 ar  
    11    7   26 1   
    12    8    9 ar  
    13    8   27 1   
    14    9   10 1   
    15   10   11 2   
    16   10   12 2   
    17   10   13 1   
    18   13   14 1   
    19   13   28 1   
    20   14   15 2   
    21   14   16 1   
    22   16   17 1   
    23   16   29 1   
    24   17   18 ar  
    25   17   23 ar  
    26   18   19 ar  
    27   19   20 ar  
    28   19   30 1   
    29   20   21 ar  
    30   20   31 1   
    31   21   22 1   
    32   21   23 ar  
    33   22   32 1   
    34   22   33 1   
    35   22   34 1   
@<TRIPOS>SUBSTRUCTURE
     1 1MS         1 TEMP              0 ****  ****    0 ROOT
