@<TRIPOS>MOLECULE
1MS
   34    29     1     0     0
SMALL
bcc


@<TRIPOS>ATOM
      1 O8          1.1940    5.6580   -0.7370 o         1 1MS     -0.262700
      2 N7          0.4730    4.7090   -0.4630 n2        1 1MS      0.509700
      3 O9         -0.0670    3.9530   -1.4610 os        1 1MS     -0.370000
      4 C1          0.1540    4.4280    0.8910 c2        1 1MS     -0.010000
      5 C6          0.0400    5.4630    1.8040 c2        1 1MS     -0.098000
      6 C5         -0.2260    5.1860    3.1360 c1        1 1MS     -0.075000
      7 C4         -0.3780    3.8740    3.5530 c1        1 1MS     -0.076000
      8 C3         -0.2630    2.8380    2.6390 c1        1 1MS     -0.076000
      9 C2          0.0030    3.1150    1.3080 c1        1 1MS     -0.747000
     10 S10         0.1450    1.7940    0.1410 s4        1 1MS      2.064800
     11 O11        -0.3760    2.1720   -1.1420 o         1 1MS     -0.523900
     12 O12         1.5200    1.5300   -0.1830 o         1 1MS     -0.523900
     13 N13        -0.5980    0.4510    0.7120 n2        1 1MS     -0.882000
     14 C14        -0.8050   -0.6600   -0.1400 c2        1 1MS      0.445000
     15 O15        -1.7110   -0.6440   -0.9490 o         1 1MS     -0.316000
     16 N16         0.0600   -1.7820   -0.0660 n         1 1MS     -0.328000
     17 C18        -0.1340   -2.8860   -0.9360 c2        1 1MS      0.167000
     18 N17        -1.1760   -2.8860   -1.8130 n2        1 1MS     -0.161000
     19 C23        -1.3670   -3.9320   -2.6290 c1        1 1MS     -0.012000
     20 C22        -0.5150   -4.9990   -2.5810 c1        1 1MS     -0.260000
     21 C20         0.5290   -4.9990   -1.7020 c1        1 1MS      0.049000
     22 C21         1.5320   -6.1350   -1.7180 c2        1 1MS     -0.180000
     23 N19         0.7170   -3.9500   -0.8860 n2        1 1MS     -0.203000
     24 H6          0.1470    6.3890    1.5100 ha        1 1MS      0.176000
     25 H5         -0.3070    5.9140    3.7790 ha        1 1MS      0.156000
     26 H4         -0.5650    3.6780    4.4920 ha        1 1MS      0.166500
     27 H3         -0.3700    1.9120    2.9340 ha        1 1MS      0.166500
     28 HN13       -0.8900    0.4230    1.5760 hn        1 1MS      0.295000
     29 HN16        0.7560   -1.7830    0.5240 hn        1 1MS      0.285000
     30 H23        -2.1140   -3.9320   -3.2580 ha        1 1MS      0.171000
     31 H22        -0.6530   -5.7620   -3.1740 ha        1 1MS      0.157000
     32 H21         1.7720   -6.3460   -2.6440 ha        1 1MS      0.100000
     33 H21A        2.3370   -5.8670   -1.2250 ha        1 1MS      0.100000
     34 H21B        1.1370   -6.9260   -1.2930 ha        1 1MS      0.100000
@<TRIPOS>BOND
     1    1    2 2   
     2    2    4 1   
     3    4    5 1   
     4    4    9 1   
     5    5    6 1   
     6    5   24 1   
     7    6   25 1   
     8    7    8 1   
     9    7   26 1   
    10    8   27 1   
    11    9   10 1   
    12   10   11 1   
    13   10   12 1   
    14   13   14 1   
    15   13   28 1   
    16   14   15 1   
    17   14   16 1   
    18   16   17 1   
    19   16   29 1   
    20   17   18 1   
    21   17   23 1   
    22   18   19 1   
    23   19   30 1   
    24   20   21 1   
    25   20   31 1   
    26   21   23 1   
    27   22   32 1   
    28   22   33 1   
    29   22   34 1   
@<TRIPOS>SUBSTRUCTURE
     1 1MS         1 TEMP              0 ****  ****    0 ROOT
