@<TRIPOS>MOLECULE
1MS
   34    35     1     0     0
SMALL
bcc


@<TRIPOS>ATOM
      1 O8         -4.1560    0.9100    2.4820 o         1 1MS     -0.198500
      2 N7         -3.1840    0.7700    1.7960 no        1 1MS      0.310200
      3 O9         -2.2530    1.5300    1.8330 o         1 1MS     -0.198500
      4 C1         -3.1000   -0.4340    0.9080 ca        1 1MS     -0.051200
      5 C6         -3.7060   -1.6090    1.3670 ca        1 1MS     -0.104000
      6 C5         -3.5960   -2.7770    0.6080 ca        1 1MS     -0.075000
      7 C4         -2.8900   -2.7640   -0.5910 ca        1 1MS     -0.119000
      8 C3         -2.3130   -1.5770   -1.0460 ca        1 1MS     -0.014000
      9 C2         -2.4190   -0.3830   -0.3230 ca        1 1MS     -0.311500
     10 S10        -1.7660    1.0180   -1.0660 sy        1 1MS      1.516900
     11 O11        -1.5560    0.7400   -2.4210 o         1 1MS     -0.625300
     12 O12        -2.6120    2.1000   -0.7800 o         1 1MS     -0.625300
     13 N13        -0.3510    1.2480   -0.2670 n         1 1MS     -0.676300
     14 C14         0.8240    0.4760   -0.4160 c         1 1MS      0.815100
     15 O15         0.7790   -0.5700   -1.0920 o         1 1MS     -0.575100
     16 N16         1.9910    0.9470    0.2200 n         1 1MS     -0.539400
     17 C18         3.1640    0.1530    0.3110 ca        1 1MS      0.767900
     18 N17         3.0290   -1.1970    0.5890 nb        1 1MS     -0.688000
     19 C23         4.1770   -1.8830    0.7080 ca        1 1MS      0.453200
     20 C22         5.4470   -1.2980    0.5780 ca        1 1MS     -0.391600
     21 C20         5.4930    0.0880    0.3080 ca        1 1MS      0.475600
     22 C21         6.8180    0.7640    0.1630 c3        1 1MS     -0.157400
     23 N19         4.3660    0.8250    0.1670 nb        1 1MS     -0.737000
     24 H6         -4.2650   -1.6180    2.3190 ha        1 1MS      0.173000
     25 H5         -4.0680   -3.7040    0.9690 ha        1 1MS      0.153000
     26 H4         -2.7850   -3.6850   -1.1850 ha        1 1MS      0.156000
     27 H3         -1.7520   -1.5740   -2.0030 ha        1 1MS      0.188000
     28 HN13       -0.3430    1.9240    0.4720 hn        1 1MS      0.358500
     29 HN16        2.1160    1.9310    0.3230 hn        1 1MS      0.344500
     30 H23         4.0610   -2.9620    0.9250 h4        1 1MS      0.033100
     31 H22         6.3620   -1.8900    0.6810 ha        1 1MS      0.158000
     32 H21         6.9280    1.1830   -0.8690 hc        1 1MS      0.061367
     33 H21A        6.9120    1.6040    0.8940 hc        1 1MS      0.061367
     34 H21B        7.6430    0.0330    0.3440 hc        1 1MS      0.061367
@<TRIPOS>BOND
     1    1    2 1   
     2    2    3 1   
     3    2    4 1   
     4    4    5 ar  
     5    4    9 ar  
     6    5    6 ar  
     7    5   24 1   
     8    6    7 ar  
     9    6   25 1   
    10    7    8 ar  
    11    7   26 1   
    12    8    9 ar  
    13    8   27 1   
    14    9   10 1   
    15   10   11 2   
    16   10   12 2   
    17   10   13 1   
    18   13   14 1   
    19   13   28 1   
    20   14   15 2   
    21   14   16 1   
    22   16   17 1   
    23   16   29 1   
    24   17   18 ar  
    25   17   23 ar  
    26   18   19 ar  
    27   19   20 ar  
    28   19   30 1   
    29   20   21 ar  
    30   20   31 1   
    31   21   22 1   
    32   21   23 ar  
    33   22   32 1   
    34   22   33 1   
    35   22   34 1   
@<TRIPOS>SUBSTRUCTURE
     1 1MS         1 TEMP              0 ****  ****    0 ROOT
