@<TRIPOS>MOLECULE
1MS
   35    36     1     0     0
SMALL
bcc


@<TRIPOS>ATOM
      1 O8          0.0490    1.8040   -1.0360 o         1 1MS     -0.178000
      2 N7          0.7910    0.9010   -0.8200 no        1 1MS      0.306200
      3 O9          0.5320   -0.0110   -0.0700 o         1 1MS     -0.178000
      4 C1          2.1090    0.8380   -1.5340 ca        1 1MS     -0.049200
      5 C6          2.2040    1.4500   -2.7810 ca        1 1MS     -0.082000
      6 C5          3.3980    1.3450   -3.5120 ca        1 1MS     -0.012000
      7 C4          4.4710    0.6340   -2.9870 ca        1 1MS     -0.115000
      8 C3          4.3700    0.0480   -1.7240 ca        1 1MS      0.010000
      9 C2          3.2000    0.1420   -0.9470 ca        1 1MS     -0.442500
     10 S10         3.2790   -0.4340    0.5890 sy        1 1MS      1.460200
     11 O11         4.5370   -0.9340    0.8980 o         1 1MS     -0.562800
     12 O12         2.5820    0.2990    1.5210 o         1 1MS     -0.562800
     13 N13         2.3000   -2.0160    0.4510 n4        1 1MS     -0.614700
     14 C14         3.0510   -3.2950    0.1070 c         1 1MS      0.665100
     15 O15         2.7400   -3.7810   -0.9820 o         1 1MS     -0.462100
     16 N16         3.9320   -3.7600    1.0640 n         1 1MS     -0.505400
     17 C18         4.4030   -5.1190    0.9760 ca        1 1MS      0.717900
     18 N17         3.4680   -6.0910    0.6900 nb        1 1MS     -0.690000
     19 C23         3.9370   -7.3530    0.6820 ca        1 1MS      0.458200
     20 C22         5.2790   -7.6720    0.9480 ca        1 1MS     -0.349600
     21 C20         6.1640   -6.6050    1.2290 ca        1 1MS      0.481600
     22 C21         7.5970   -6.9000    1.5310 c3        1 1MS     -0.165400
     23 N19         5.7400   -5.3160    1.2380 nb        1 1MS     -0.704000
     24 H6          1.3480    2.0140   -3.2020 ha        1 1MS      0.203000
     25 H5          3.4720    1.8290   -4.5030 ha        1 1MS      0.188000
     26 H4          5.4100    0.5350   -3.5610 ha        1 1MS      0.187000
     27 H3          5.2520   -0.4880   -1.3160 ha        1 1MS      0.188000
     28 HN13        1.5730   -1.9190   -0.2720 hn        1 1MS      0.484800
     29 HN16        4.5210   -3.1140    1.5610 hn        1 1MS      0.381500
     30 H23         3.1880   -8.1360    0.4530 h4        1 1MS      0.054100
     31 H22         5.6300   -8.7130    0.9380 ha        1 1MS      0.178000
     32 H21         7.7510   -6.8920    2.6410 hc        1 1MS      0.074367
     33 H21A        7.8690   -7.9090    1.1370 hc        1 1MS      0.074367
     34 H21B        8.2790   -6.1390    1.0780 hc        1 1MS      0.074367
     35 H132        1.7940   -2.1640    1.3300 hn        1 1MS      0.484800
@<TRIPOS>BOND
     1    1    2 1   
     2    2    3 1   
     3    2    4 1   
     4    4    5 ar  
     5    4    9 ar  
     6    5    6 ar  
     7    5   24 1   
     8    6    7 ar  
     9    6   25 1   
    10    7    8 ar  
    11    7   26 1   
    12    8    9 ar  
    13    8   27 1   
    14    9   10 1   
    15   10   11 2   
    16   10   12 2   
    17   10   13 1   
    18   13   14 1   
    19   13   28 1   
    20   13   35 1   
    21   14   15 2   
    22   14   16 1   
    23   16   17 1   
    24   16   29 1   
    25   17   18 ar  
    26   17   23 ar  
    27   18   19 ar  
    28   19   20 ar  
    29   19   30 1   
    30   20   21 ar  
    31   20   31 1   
    32   21   22 1   
    33   21   23 ar  
    34   22   32 1   
    35   22   33 1   
    36   22   34 1   
@<TRIPOS>SUBSTRUCTURE
     1 1MS         1 TEMP              0 ****  ****    0 ROOT
