@<TRIPOS>MOLECULE
1MS
   35    36     1     0     0
SMALL
bcc


@<TRIPOS>ATOM
      1 O8          0.1640   -0.0980   -0.1710 o         1 1MS     -0.193500
      2 N7          1.3360   -0.3030   -0.2280 no        1 1MS      0.310200
      3 O9          2.0270   -0.4380    0.7540 o         1 1MS     -0.193500
      4 C1          2.0050   -0.4310   -1.5600 ca        1 1MS     -0.044200
      5 C6          1.2060   -0.5520   -2.6950 ca        1 1MS     -0.083000
      6 C5          1.8160   -0.7310   -3.9460 ca        1 1MS     -0.031000
      7 C4          3.2010   -0.7920   -4.0400 ca        1 1MS     -0.114000
      8 C3          3.9870   -0.6560   -2.8930 ca        1 1MS     -0.001000
      9 C2          3.4210   -0.4500   -1.6240 ca        1 1MS     -0.401500
     10 S10         4.4700   -0.1920   -0.3770 sy        1 1MS      1.715800
     11 O11         5.7640   -0.4240   -0.7330 o         1 1MS     -0.599300
     12 O12         4.1340    0.8080    0.4850 o         1 1MS     -0.599300
     13 N13         3.9250   -0.8270    2.8310 nv        1 1MS     -0.503100
     14 C14         4.1920   -1.8400    1.9660 c2        1 1MS      0.748100
     15 O15         4.1850   -1.6030    0.6590 os        1 1MS     -0.568300
     16 N16         4.4870   -3.1150    2.3730 nu        1 1MS     -0.399000
     17 C18         5.0050   -4.1260    1.4910 ca        1 1MS      0.709500
     18 N17         6.0380   -3.7760    0.6490 nb        1 1MS     -0.686000
     19 C23         6.5320   -4.7800   -0.1020 ca        1 1MS      0.450200
     20 C22         6.0380   -6.0930   -0.0460 ca        1 1MS     -0.350600
     21 C20         4.9700   -6.3540    0.8460 ca        1 1MS      0.480600
     22 C21         4.4220   -7.7390    0.9500 c3        1 1MS     -0.166400
     23 N19         4.4390   -5.3740    1.6200 nb        1 1MS     -0.700000
     24 H6          0.1020   -0.5130   -2.6180 ha        1 1MS      0.198000
     25 H5          1.1850   -0.8250   -4.8480 ha        1 1MS      0.181000
     26 H4          3.6870   -0.9460   -5.0190 ha        1 1MS      0.180000
     27 H3          5.0910   -0.7060   -2.9930 ha        1 1MS      0.188000
     28 HN13        3.8760   -0.9790    3.8130 hn        1 1MS      0.337700
     29 HN16        4.2270   -3.4200    3.2920 hn        1 1MS      0.340700
     30 H23         7.3700   -4.5010   -0.7710 h4        1 1MS      0.053100
     31 H22         6.4660   -6.8910   -0.6660 ha        1 1MS      0.178000
     32 H21         4.6990   -8.3280    0.0420 hc        1 1MS      0.075367
     33 H21A        4.8540   -8.2430    1.8520 hc        1 1MS      0.075367
     34 H21B        3.3080   -7.7350    1.0520 hc        1 1MS      0.075367
     35 H132        3.5920    0.0490    2.4680 hn        1 1MS      0.337700
@<TRIPOS>BOND
     1    1    2 1   
     2    2    3 1   
     3    2    4 1   
     4    4    5 ar  
     5    4    9 ar  
     6    5    6 ar  
     7    5   24 1   
     8    6    7 ar  
     9    6   25 1   
    10    7    8 ar  
    11    7   26 1   
    12    8    9 ar  
    13    8   27 1   
    14    9   10 1   
    15   10   11 2   
    16   10   12 2   
    17   10   15 1   
    18   13   14 2   
    19   13   28 1   
    20   13   35 1   
    21   14   15 1   
    22   14   16 1   
    23   16   17 1   
    24   16   29 1   
    25   17   18 ar  
    26   17   23 ar  
    27   18   19 ar  
    28   19   20 ar  
    29   19   30 1   
    30   20   21 ar  
    31   20   31 1   
    32   21   22 1   
    33   21   23 ar  
    34   22   32 1   
    35   22   33 1   
    36   22   34 1   
@<TRIPOS>SUBSTRUCTURE
     1 1MS         1 TEMP              0 ****  ****    0 ROOT
