@<TRIPOS>MOLECULE
1MT
   63    59     1     0     0
SMALL
bcc


@<TRIPOS>ATOM
      1 CL1        -3.0780   -0.2010   -3.2110 cl        1 1MT      0.011000
      2 C1         -1.3230   -0.1620   -3.2210 c1        1 1MT     -0.099000
      3 C2         -0.6160   -0.1970   -2.0140 c1        1 1MT      0.094000
      4 C3         -0.6310   -0.1490   -4.4360 c1        1 1MT     -0.097000
      5 C4          0.7580   -0.1700   -4.4450 c1        1 1MT     -0.109000
      6 C5          1.4650   -0.2040   -3.2400 c1        1 1MT     -0.109000
      7 C6          0.7750   -0.2180   -2.0240 c1        1 1MT     -0.085000
      8 C7          1.4900   -0.3070   -0.8040 c3        1 1MT     -0.066000
      9 C8          0.8830   -1.4980    0.1160 c3        1 1MT     -0.063000
     10 C9          0.5340    0.7150    1.0220 c3        1 1MT     -0.009000
     11 C10         0.9080    1.5330    2.2470 c3        1 1MT     -0.145000
     12 C11        -0.3070    1.5340    3.2780 c3        1 1MT     -0.051000
     13 C12        -0.3090    0.2560    4.0450 c3        1 1MT     -0.204333
     14 C13        -0.1540    2.6990    4.2400 c3        1 1MT     -0.204333
     15 C14        -1.6230    1.6730    2.5170 c3        1 1MT     -0.204333
     16 C15        -0.4060   -2.1140   -0.4270 c2        1 1MT      0.306000
     17 O1         -0.9220   -1.6540   -1.4270 o         1 1MT     -0.364000
     18 N1         -0.9110   -3.3600    0.1430 n         1 1MT     -0.373000
     19 C17        -1.0950   -4.5190   -0.7010 c3        1 1MT     -0.032000
     20 C18         1.3260    1.0180    0.0190 c3        1 1MT     -0.032000
     21 C19         0.7050    2.1100   -0.8450 c2        1 1MT     -0.129000
     22 C20        -0.5380    2.2300   -1.4480 c2        1 1MT     -0.062000
     23 C21        -0.8580    3.3760   -2.1530 c1        1 1MT     -0.158000
     24 C22         0.0750    4.4180   -2.2590 c1        1 1MT     -0.022000
     25 CL2        -0.3450    5.8760   -3.1000 cl        1 1MT     -0.008000
     26 C23         1.3190    4.2990   -1.6570 c1        1 1MT     -0.169000
     27 C24         1.6390    3.1530   -0.9510 c1        1 1MT      0.080000
     28 N2          2.8160    2.8270   -0.0340 n2        1 1MT     -0.334000
     29 C25         2.6130    1.4920    0.4980 c2        1 1MT      0.312000
     30 O2          3.4420    0.8280    1.0860 o         1 1MT     -0.310000
     31 F1         -1.2810   -0.2490   -0.8450 f         1 1MT     -0.110000
     32 C16        -1.4060   -5.7360    0.1650 c3        1 1MT     -0.105000
     33 N3         -1.2600   -6.9410   -0.6240 n3        1 1MT     -0.346000
     34 N4          0.7450   -0.8790    1.3250 n3        1 1MT     -0.260000
     35 H1         -1.1310   -0.1250   -5.2900 ha        1 1MT      0.156000
     36 H2          1.2450   -0.1600   -5.3030 ha        1 1MT      0.148500
     37 H3          2.4510   -0.2190   -3.2470 ha        1 1MT      0.148500
     38 H4          2.4400   -0.4730   -0.9830 hc        1 1MT      0.131000
     39 H5          1.4740   -2.2730    0.1590 h1        1 1MT      0.164000
     40 H6         -0.3940    0.8860    0.7780 h1        1 1MT      0.098000
     41 H7          1.7010    1.1360    2.6760 hc        1 1MT      0.097500
     42 H8          1.1100    2.4550    1.9770 hc        1 1MT      0.097500
     43 H9         -0.6330    0.4210    4.9550 hc        1 1MT      0.074444
     44 H10         0.5970   -0.1000    4.0830 hc        1 1MT      0.074444
     45 H11        -0.8960   -0.3890    3.6020 hc        1 1MT      0.074444
     46 H12         0.6850    2.6040    4.7340 hc        1 1MT      0.074444
     47 H13        -0.9120    2.7040    4.8750 hc        1 1MT      0.074444
     48 H14        -0.1440    3.5370    3.7390 hc        1 1MT      0.074444
     49 H15        -1.8250    0.8310    2.0580 hc        1 1MT      0.074444
     50 H16        -1.5450    2.3870    1.8640 hc        1 1MT      0.074444
     51 H17        -2.3540    1.8870    3.1550 hc        1 1MT      0.074444
     52 H18        -1.0880   -3.4150    1.0430 hn        1 1MT      0.226000
     53 H19        -0.2820   -4.6820   -1.2110 h1        1 1MT      0.108500
     54 H20        -1.8360   -4.3590   -1.3140 h1        1 1MT      0.108500
     55 H21        -1.1820    1.5110   -1.3750 ha        1 1MT      0.149000
     56 H22        -1.7560    3.4940   -2.5000 ha        1 1MT      0.153000
     57 H23         1.9640    5.0190   -1.7300 ha        1 1MT      0.156000
     58 H24         3.5450    3.3570    0.1110 hn        1 1MT      0.258000
     59 H25        -2.3280   -5.6720    0.5000 h1        1 1MT      0.070500
     60 H26        -0.7840   -5.7640    0.9210 h1        1 1MT      0.070500
     61 H27        -2.0240   -7.4510   -0.5490 hn        1 1MT      0.147500
     62 H28        -0.5400   -7.4220   -0.3190 hn        1 1MT      0.147500
     63 H30         0.0120   -1.2070    1.7520 hn        1 1MT      0.151000
@<TRIPOS>BOND
     1    1    2 1   
     2    2    4 1   
     3    3    7 1   
     4    3   31 1   
     5    4   35 1   
     6    5    6 1   
     7    5   36 1   
     8    6   37 1   
     9    7    8 1   
    10    8    9 1   
    11    8   20 1   
    12    8   38 1   
    13    9   16 1   
    14    9   34 1   
    15    9   39 1   
    16   10   11 1   
    17   10   20 1   
    18   10   34 1   
    19   10   40 1   
    20   11   12 1   
    21   11   41 1   
    22   11   42 1   
    23   12   13 1   
    24   12   14 1   
    25   12   15 1   
    26   13   43 1   
    27   13   44 1   
    28   13   45 1   
    29   14   46 1   
    30   14   47 1   
    31   14   48 1   
    32   15   49 1   
    33   15   50 1   
    34   15   51 1   
    35   16   17 1   
    36   16   18 1   
    37   18   19 1   
    38   18   52 1   
    39   19   32 1   
    40   19   53 1   
    41   19   54 1   
    42   20   21 1   
    43   20   29 1   
    44   21   22 1   
    45   21   27 1   
    46   22   23 1   
    47   22   55 1   
    48   23   56 1   
    49   24   26 1   
    50   26   57 1   
    51   28   29 1   
    52   28   58 1   
    53   29   30 1   
    54   32   33 1   
    55   32   59 1   
    56   32   60 1   
    57   33   61 1   
    58   33   62 1   
    59   34   63 1   
@<TRIPOS>SUBSTRUCTURE
     1 1MT         1 TEMP              0 ****  ****    0 ROOT
