@<TRIPOS>MOLECULE
1MT
   65    68     1     0     0
SMALL
bcc


@<TRIPOS>ATOM
      1 CL1         0.1250   -1.9300    1.6250 cl        1 1MT     -0.024400
      2 C1          1.5820   -1.2390    1.1170 ca        1 1MT     -0.011600
      3 C2          2.6380   -1.0080    2.0210 ca        1 1MT      0.055900
      4 C3          1.7410   -0.8890   -0.2310 ca        1 1MT     -0.077000
      5 C4          2.9440   -0.3460   -0.6690 ca        1 1MT     -0.100000
      6 C5          3.9870   -0.1110    0.2290 ca        1 1MT     -0.099000
      7 C6          3.8460   -0.3990    1.5880 ca        1 1MT     -0.157300
      8 C7          4.8880   -0.0670    2.5970 c3        1 1MT     -0.013400
      9 C8          6.2470   -0.7800    2.3370 c3        1 1MT      0.138500
     10 C9          6.7050    1.2310    3.5220 c3        1 1MT      0.200500
     11 C10         7.6100    2.4450    3.3300 c3        1 1MT     -0.094400
     12 C11         8.7680    2.5740    4.3210 c3        1 1MT     -0.052000
     13 C12         9.4980    3.8740    3.9860 c3        1 1MT     -0.093767
     14 C13         8.2600    2.6580    5.7520 c3        1 1MT     -0.093767
     15 C14         9.7500    1.4200    4.1930 c3        1 1MT     -0.093767
     16 C15         6.3060   -2.2490    2.7910 c         1 1MT      0.558100
     17 O1          7.2650   -2.9750    2.9370 o         1 1MT     -0.386100
     18 N1          4.9310   -2.9300    3.0360 n4        1 1MT     -0.700800
     19 C17         5.0440   -4.3700    3.3540 c3        1 1MT      0.073800
     20 C18         5.3330    1.4020    2.7840 c3        1 1MT     -0.082700
     21 C19         4.3470    2.2690    3.5040 ca        1 1MT     -0.172300
     22 C20         3.7780    2.1570    4.7580 ca        1 1MT     -0.065000
     23 C21         2.8800    3.1390    5.1900 ca        1 1MT     -0.146000
     24 C22         2.5640    4.2240    4.3660 ca        1 1MT      0.066400
     25 CL2         1.4740    5.3960    4.9120 cl        1 1MT     -0.029400
     26 C23         3.1340    4.3710    3.0900 ca        1 1MT     -0.141000
     27 C24         4.0260    3.3900    2.6680 ca        1 1MT      0.069600
     28 N2          4.7270    3.3030    1.4470 n         1 1MT     -0.449100
     29 C25         5.5440    2.1740    1.4480 c         1 1MT      0.707500
     30 O2          6.3170    1.8360    0.5410 o         1 1MT     -0.620500
     31 F1          2.5130   -1.3790    3.3270 f         1 1MT     -0.167900
     32 C16         3.6870   -5.0170    3.7000 c3        1 1MT      0.076800
     33 N3          3.8290   -6.4450    4.0920 n4        1 1MT     -0.833600
     34 N4          7.2680   -0.0470    3.0570 n3        1 1MT     -0.814200
     35 H1          0.9060   -1.0410   -0.9390 ha        1 1MT      0.187000
     36 H2          3.0710   -0.0810   -1.7340 ha        1 1MT      0.181000
     37 H3          4.9270    0.3290   -0.1550 ha        1 1MT      0.188000
     38 H4          4.5030   -0.3480    3.6240 hc        1 1MT      0.068700
     39 H5          6.4390   -0.8440    1.2170 h1        1 1MT      0.126700
     40 H6          6.4840    1.1050    4.6240 h1        1 1MT      0.090700
     41 H7          6.9570    3.3540    3.4420 hc        1 1MT      0.071200
     42 H8          8.0260    2.4540    2.2860 hc        1 1MT      0.071200
     43 H9          8.8060    4.7450    4.0790 hc        1 1MT      0.043033
     44 H10         9.8970    3.8400    2.9440 hc        1 1MT      0.043033
     45 H11        10.3530    4.0250    4.6880 hc        1 1MT      0.043033
     46 H12         9.1010    2.9310    6.4360 hc        1 1MT      0.043033
     47 H13         7.8460    1.6780    6.0910 hc        1 1MT      0.043033
     48 H14         7.4660    3.4370    5.8410 hc        1 1MT      0.043033
     49 H15        10.0100    1.2410    3.1220 hc        1 1MT      0.043033
     50 H16        10.6920    1.6640    4.7440 hc        1 1MT      0.043033
     51 H17         9.3310    0.4840    4.6340 hc        1 1MT      0.043033
     52 H18         4.3550   -2.7820    2.1950 hn        1 1MT      0.470800
     53 H19         5.7650   -4.4720    4.2230 hx        1 1MT      0.132200
     54 H20         5.5120   -4.8850    2.4620 hx        1 1MT      0.132200
     55 H21         4.0290    1.3160    5.4210 ha        1 1MT      0.130000
     56 H22         2.4260    3.0580    6.1910 ha        1 1MT      0.167000
     57 H23         2.8820    5.2360    2.4560 ha        1 1MT      0.176000
     58 H24         4.7460    4.0200    0.7630 hn        1 1MT      0.366500
     59 H25         2.9920   -4.9720    2.8080 hx        1 1MT      0.136200
     60 H26         3.1950   -4.4710    4.5610 hx        1 1MT      0.136200
     61 H27         2.8970   -6.8320    4.3100 hn        1 1MT      0.484133
     62 H28         4.2420   -6.9970    3.3280 hn        1 1MT      0.484133
     63 H30         8.1140    0.0650    2.5270 hn        1 1MT      0.426800
     64 H121        4.4680   -2.4280    3.8080 hn        1 1MT      0.470800
     65 H33         4.4260   -6.5400    4.9240 hn        1 1MT      0.484133
@<TRIPOS>BOND
     1    1    2 1   
     2    2    3 ar  
     3    2    4 ar  
     4    3    7 ar  
     5    3   31 1   
     6    4    5 ar  
     7    4   35 1   
     8    5    6 ar  
     9    5   36 1   
    10    6    7 ar  
    11    6   37 1   
    12    7    8 1   
    13    8    9 1   
    14    8   20 1   
    15    8   38 1   
    16    9   16 1   
    17    9   34 1   
    18    9   39 1   
    19   10   11 1   
    20   10   20 1   
    21   10   34 1   
    22   10   40 1   
    23   11   12 1   
    24   11   41 1   
    25   11   42 1   
    26   12   13 1   
    27   12   14 1   
    28   12   15 1   
    29   13   43 1   
    30   13   44 1   
    31   13   45 1   
    32   14   46 1   
    33   14   47 1   
    34   14   48 1   
    35   15   49 1   
    36   15   50 1   
    37   15   51 1   
    38   16   17 2   
    39   16   18 1   
    40   18   19 1   
    41   18   52 1   
    42   18   64 1   
    43   19   32 1   
    44   19   53 1   
    45   19   54 1   
    46   20   21 1   
    47   20   29 1   
    48   21   22 ar  
    49   21   27 ar  
    50   22   23 ar  
    51   22   55 1   
    52   23   24 ar  
    53   23   56 1   
    54   24   25 1   
    55   24   26 ar  
    56   26   27 ar  
    57   26   57 1   
    58   27   28 1   
    59   28   29 1   
    60   28   58 1   
    61   29   30 2   
    62   32   33 1   
    63   32   59 1   
    64   32   60 1   
    65   33   61 1   
    66   33   62 1   
    67   33   65 1   
    68   34   63 1   
@<TRIPOS>SUBSTRUCTURE
     1 1MT         1 TEMP              0 ****  ****    0 ROOT
