@<TRIPOS>MOLECULE
1MT
   65    68     1     0     0
SMALL
bcc


@<TRIPOS>ATOM
      1 CL1         0.1330   -1.9530    1.6300 cl        1 1MT     -0.024400
      2 C1          1.5860   -1.2540    1.1200 ca        1 1MT     -0.011600
      3 C2          2.6430   -1.0190    2.0230 ca        1 1MT      0.055900
      4 C3          1.7410   -0.9000   -0.2270 ca        1 1MT     -0.077000
      5 C4          2.9400   -0.3500   -0.6660 ca        1 1MT     -0.100000
      6 C5          3.9840   -0.1120    0.2300 ca        1 1MT     -0.099000
      7 C6          3.8470   -0.4020    1.5890 ca        1 1MT     -0.157300
      8 C7          4.8880   -0.0670    2.5970 c3        1 1MT     -0.013400
      9 C8          6.2500   -0.7730    2.3330 c3        1 1MT      0.138500
     10 C9          6.7010    1.2380    3.5210 c3        1 1MT      0.200500
     11 C10         7.5990    2.4580    3.3290 c3        1 1MT     -0.094400
     12 C11         8.7590    2.5910    4.3170 c3        1 1MT     -0.052000
     13 C12         9.4810    3.8960    3.9830 c3        1 1MT     -0.093767
     14 C13         8.2540    2.6680    5.7500 c3        1 1MT     -0.093767
     15 C14         9.7460    1.4420    4.1840 c3        1 1MT     -0.093767
     16 C15         6.3180   -2.2420    2.7850 c         1 1MT      0.558100
     17 O1          7.2800   -2.9630    2.9300 o         1 1MT     -0.385100
     18 N1          4.9470   -2.9310    3.0300 n4        1 1MT     -0.700800
     19 C17         5.0670   -4.3710    3.3450 c3        1 1MT      0.073800
     20 C18         5.3260    1.4030    2.7860 c3        1 1MT     -0.082700
     21 C19         4.3370    2.2640    3.5100 ca        1 1MT     -0.172300
     22 C20         3.7720    2.1460    4.7650 ca        1 1MT     -0.065000
     23 C21         2.8700    3.1230    5.2020 ca        1 1MT     -0.146000
     24 C22         2.5460    4.2070    4.3810 ca        1 1MT      0.066400
     25 CL2         1.4510    5.3720    4.9310 cl        1 1MT     -0.029400
     26 C23         3.1120    4.3600    3.1030 ca        1 1MT     -0.141000
     27 C24         4.0080    3.3850    2.6770 ca        1 1MT      0.069600
     28 N2          4.7060    3.3040    1.4540 n         1 1MT     -0.449100
     29 C25         5.5300    2.1800    1.4520 c         1 1MT      0.707500
     30 O2          6.3030    1.8480    0.5410 o         1 1MT     -0.620500
     31 F1          2.5220   -1.3930    3.3290 f         1 1MT     -0.167900
     32 C16         3.7140   -5.0260    3.6890 c3        1 1MT      0.076800
     33 N3          3.8640   -6.4540    4.0780 n4        1 1MT     -0.833600
     34 N4          7.2700   -0.0360    3.0510 n3        1 1MT     -0.814200
     35 H1          0.9060   -1.0550   -0.9340 ha        1 1MT      0.187000
     36 H2          3.0640   -0.0820   -1.7300 ha        1 1MT      0.181000
     37 H3          4.9200    0.3340   -0.1540 ha        1 1MT      0.188000
     38 H4          4.5070   -0.3520    3.6240 hc        1 1MT      0.068700
     39 H5          6.4400   -0.8340    1.2130 h1        1 1MT      0.126700
     40 H6          6.4830    1.1090    4.6230 h1        1 1MT      0.090700
     41 H7          8.0120    2.4710    2.2840 hc        1 1MT      0.071200
     42 H8          6.9420    3.3640    3.4450 hc        1 1MT      0.071200
     43 H9         10.3370    4.0500    4.6840 hc        1 1MT      0.043033
     44 H10         8.7840    4.7630    4.0810 hc        1 1MT      0.043033
     45 H11         9.8770    3.8660    2.9400 hc        1 1MT      0.043033
     46 H12         7.4560    3.4420    5.8430 hc        1 1MT      0.043033
     47 H13         9.0950    2.9440    6.4320 hc        1 1MT      0.043033
     48 H14         7.8460    1.6850    6.0880 hc        1 1MT      0.043033
     49 H15         9.3340    0.5030    4.6240 hc        1 1MT      0.043033
     50 H16        10.0040    1.2670    3.1120 hc        1 1MT      0.043033
     51 H17        10.6890    1.6900    4.7330 hc        1 1MT      0.043033
     52 H18         4.4810   -2.4330    3.8030 hn        1 1MT      0.470800
     53 H19         5.7890   -4.4700    4.2130 hx        1 1MT      0.132200
     54 H20         5.5380   -4.8820    2.4510 hx        1 1MT      0.132200
     55 H21         4.0290    1.3050    5.4260 ha        1 1MT      0.130000
     56 H22         2.4180    3.0370    6.2040 ha        1 1MT      0.167000
     57 H23         2.8540    5.2250    2.4730 ha        1 1MT      0.176000
     58 H24         4.7210    4.0230    0.7720 hn        1 1MT      0.366500
     59 H25         3.0180   -4.9840    2.7970 hx        1 1MT      0.136200
     60 H26         3.2190   -4.4840    4.5510 hx        1 1MT      0.136200
     61 H27         4.4620   -6.5470    4.9110 hn        1 1MT      0.484133
     62 H28         2.9340   -6.8470    4.2960 hn        1 1MT      0.484133
     63 H30         8.1130    0.0820    2.5200 hn        1 1MT      0.426800
     64 H121        4.3700   -2.7840    2.1890 hn        1 1MT      0.470800
     65 H33         4.2800   -7.0020    3.3130 hn        1 1MT      0.484133
@<TRIPOS>BOND
     1    1    2 1   
     2    2    3 ar  
     3    2    4 ar  
     4    3    7 ar  
     5    3   31 1   
     6    4    5 ar  
     7    4   35 1   
     8    5    6 ar  
     9    5   36 1   
    10    6    7 ar  
    11    6   37 1   
    12    7    8 1   
    13    8    9 1   
    14    8   20 1   
    15    8   38 1   
    16    9   16 1   
    17    9   34 1   
    18    9   39 1   
    19   10   11 1   
    20   10   20 1   
    21   10   34 1   
    22   10   40 1   
    23   11   12 1   
    24   11   41 1   
    25   11   42 1   
    26   12   13 1   
    27   12   14 1   
    28   12   15 1   
    29   13   43 1   
    30   13   44 1   
    31   13   45 1   
    32   14   46 1   
    33   14   47 1   
    34   14   48 1   
    35   15   49 1   
    36   15   50 1   
    37   15   51 1   
    38   16   17 2   
    39   16   18 1   
    40   18   19 1   
    41   18   52 1   
    42   18   64 1   
    43   19   32 1   
    44   19   53 1   
    45   19   54 1   
    46   20   21 1   
    47   20   29 1   
    48   21   22 ar  
    49   21   27 ar  
    50   22   23 ar  
    51   22   55 1   
    52   23   24 ar  
    53   23   56 1   
    54   24   25 1   
    55   24   26 ar  
    56   26   27 ar  
    57   26   57 1   
    58   27   28 1   
    59   28   29 1   
    60   28   58 1   
    61   29   30 2   
    62   32   33 1   
    63   32   59 1   
    64   32   60 1   
    65   33   61 1   
    66   33   62 1   
    67   33   65 1   
    68   34   63 1   
@<TRIPOS>SUBSTRUCTURE
     1 1MT         1 TEMP              0 ****  ****    0 ROOT
