@<TRIPOS>MOLECULE
1MT
   65    68     1     0     0
SMALL
bcc


@<TRIPOS>ATOM
      1 Cl1         0.1290   -1.9250    1.5710 cl        1 1MT     -0.024400
      2 C1          1.5880   -1.2320    1.0710 ca        1 1MT     -0.011600
      3 C2          2.6390   -1.0000    1.9810 ca        1 1MT      0.055900
      4 C3          1.7540   -0.8820   -0.2760 ca        1 1MT     -0.077000
      5 C4          2.9580   -0.3360   -0.7070 ca        1 1MT     -0.100000
      6 C5          3.9960   -0.1000    0.1970 ca        1 1MT     -0.099000
      7 C6          3.8480   -0.3880    1.5550 ca        1 1MT     -0.157300
      8 C7          4.8830   -0.0540    2.5710 c3        1 1MT     -0.013400
      9 C8          6.2450   -0.7650    2.3180 c3        1 1MT      0.138500
     10 C9          6.6930    1.2470    3.5070 c3        1 1MT      0.200500
     11 C10         7.5970    2.4620    3.3210 c3        1 1MT     -0.094400
     12 C11         8.7490    2.5930    4.3180 c3        1 1MT     -0.052000
     13 C12         9.4790    3.8950    3.9870 c3        1 1MT     -0.093767
     14 C13         8.2320    2.6760    5.7460 c3        1 1MT     -0.093767
     15 C14         9.7320    1.4410    4.1960 c3        1 1MT     -0.093767
     16 C15         6.3040   -2.2340    2.7720 c         1 1MT      0.558100
     17 O1          7.2630   -2.9590    2.9230 o         1 1MT     -0.386100
     18 N1          4.9290   -2.9180    3.0100 ny        1 1MT     -0.700800
     19 C17         5.0430   -4.3570    3.3290 c3        1 1MT      0.073800
     20 C18         5.3250    1.4150    2.7610 c3        1 1MT     -0.082700
     21 C19         4.3330    2.2810    3.4750 ca        1 1MT     -0.172300
     22 C20         3.7570    2.1670    4.7250 ca        1 1MT     -0.065000
     23 C21         2.8540    3.1480    5.1530 ca        1 1MT     -0.146000
     24 C22         2.5420    4.2330    4.3270 ca        1 1MT      0.066400
     25 Cl2         1.4470    5.4030    4.8660 cl        1 1MT     -0.029400
     26 C23         3.1190    4.3810    3.0540 ca        1 1MT     -0.141000
     27 C24         4.0150    3.4010    2.6370 ca        1 1MT      0.069600
     28 N2          4.7230    3.3160    1.4200 ns        1 1MT     -0.449100
     29 C25         5.5420    2.1880    1.4260 c         1 1MT      0.707500
     30 O2          6.3220    1.8520    0.5230 o         1 1MT     -0.620500
     31 F1          2.5060   -1.3710    3.2870 f         1 1MT     -0.167900
     32 C16         3.6850   -5.0070    3.6670 c3        1 1MT      0.076800
     33 N3          3.8270   -6.4340    4.0590 nz        1 1MT     -0.833600
     34 N4          7.2610   -0.0310    3.0450 n7        1 1MT     -0.814200
     35 H1          0.9240   -1.0350   -0.9890 ha        1 1MT      0.187000
     36 H2          3.0910   -0.0700   -1.7710 ha        1 1MT      0.181000
     37 H3          4.9370    0.3420   -0.1810 ha        1 1MT      0.188000
     38 H4          4.4930   -0.3360    3.5950 hc        1 1MT      0.068700
     39 H5          6.4430   -0.8280    1.2000 h1        1 1MT      0.127700
     40 H6          6.4650    1.1210    4.6070 h1        1 1MT      0.090700
     41 H7          8.0190    2.4720    2.2790 hc        1 1MT      0.071200
     42 H8          6.9420    3.3710    3.4290 hc        1 1MT      0.071200
     43 H9         10.3290    4.0470    4.6950 hc        1 1MT      0.043033
     44 H10         8.7850    4.7640    4.0770 hc        1 1MT      0.043033
     45 H11         9.8830    3.8610    2.9480 hc        1 1MT      0.043033
     46 H12         7.8170    1.6960    6.0830 hc        1 1MT      0.043033
     47 H13         9.0680    2.9510    6.4350 hc        1 1MT      0.043033
     48 H14         7.4360    3.4540    5.8300 hc        1 1MT      0.043033
     49 H15         9.3130    0.5040    4.6340 hc        1 1MT      0.043033
     50 H16         9.9990    1.2620    3.1270 hc        1 1MT      0.043033
     51 H17        10.6710    1.6860    4.7530 hc        1 1MT      0.043033
     52 H18         4.3570   -2.7700    2.1660 hn        1 1MT      0.470800
     53 H19         5.5160   -4.8710    2.4390 hx        1 1MT      0.132200
     54 H20         5.7590   -4.4570    4.2000 hx        1 1MT      0.132200
     55 H21         4.0050    1.3270    5.3900 ha        1 1MT      0.130000
     56 H22         2.3950    3.0660    6.1510 ha        1 1MT      0.167000
     57 H23         2.8690    5.2450    2.4190 ha        1 1MT      0.176000
     58 H24         4.7450    4.0330    0.7370 hn        1 1MT      0.366500
     59 H25         3.1870   -4.4620    4.5250 hx        1 1MT      0.136200
     60 H26         2.9940   -4.9630    2.7710 hx        1 1MT      0.136200
     61 H27         4.4210   -6.5290    4.8950 hn        1 1MT      0.484133
     62 H28         4.2450   -6.9850    3.2970 hn        1 1MT      0.484133
     63 H30         8.1090    0.0840    2.5200 hn        1 1MT      0.426800
     64 H121        4.4610   -2.4160    3.7800 hn        1 1MT      0.470800
     65 H33         2.8960   -6.8230    4.2730 hn        1 1MT      0.484133
@<TRIPOS>BOND
     1    1    2 1   
     2    2    3 ar  
     3    2    4 ar  
     4    3    7 ar  
     5    3   31 1   
     6    4    5 ar  
     7    4   35 1   
     8    5    6 ar  
     9    5   36 1   
    10    6    7 ar  
    11    6   37 1   
    12    7    8 1   
    13    8    9 1   
    14    8   20 1   
    15    8   38 1   
    16    9   16 1   
    17    9   34 1   
    18    9   39 1   
    19   10   11 1   
    20   10   20 1   
    21   10   34 1   
    22   10   40 1   
    23   11   12 1   
    24   11   41 1   
    25   11   42 1   
    26   12   13 1   
    27   12   14 1   
    28   12   15 1   
    29   13   43 1   
    30   13   44 1   
    31   13   45 1   
    32   14   46 1   
    33   14   47 1   
    34   14   48 1   
    35   15   49 1   
    36   15   50 1   
    37   15   51 1   
    38   16   17 2   
    39   16   18 1   
    40   18   19 1   
    41   18   52 1   
    42   18   64 1   
    43   19   32 1   
    44   19   53 1   
    45   19   54 1   
    46   20   21 1   
    47   20   29 1   
    48   21   22 ar  
    49   21   27 ar  
    50   22   23 ar  
    51   22   55 1   
    52   23   24 ar  
    53   23   56 1   
    54   24   25 1   
    55   24   26 ar  
    56   26   27 ar  
    57   26   57 1   
    58   27   28 1   
    59   28   29 1   
    60   28   58 1   
    61   29   30 2   
    62   32   33 1   
    63   32   59 1   
    64   32   60 1   
    65   33   61 1   
    66   33   62 1   
    67   33   65 1   
    68   34   63 1   
@<TRIPOS>SUBSTRUCTURE
     1 1MT         1 TEMP              0 ****  ****    0 ROOT
