@<TRIPOS>MOLECULE
1MT
   63    66     1     0     0
SMALL
bcc


@<TRIPOS>ATOM
      1 CL1        -1.0640   -5.5340    0.3470 cl        1 1MT     -0.068400
      2 C1         -1.1620   -3.9990    1.0660 ca        1 1MT     -0.028600
      3 C2         -0.8290   -2.8300    0.3440 ca        1 1MT      0.154900
      4 C3         -1.5810   -3.9040    2.3950 ca        1 1MT     -0.098000
      5 C4         -1.6670   -2.6580    3.0090 ca        1 1MT     -0.138000
      6 C5         -1.3400   -1.5030    2.3030 ca        1 1MT     -0.098000
      7 C6         -0.9180   -1.5620    0.9710 ca        1 1MT     -0.114300
      8 C7         -0.6060   -0.3320    0.1910 c3        1 1MT     -0.018400
      9 C8         -1.6900    0.7780    0.3550 c3        1 1MT      0.091500
     10 C9          0.3950    1.8920    0.3720 c3        1 1MT      0.185500
     11 C10         1.3420    2.7690    1.1870 c3        1 1MT     -0.081400
     12 C11         1.4190    4.2350    0.7600 c3        1 1MT     -0.048000
     13 C12         2.3820    4.9360    1.7170 c3        1 1MT     -0.088433
     14 C13         1.9620    4.3640   -0.6550 c3        1 1MT     -0.088433
     15 C14         0.0620    4.9160    0.8480 c3        1 1MT     -0.088433
     16 C15        -2.5240    0.9170   -0.9410 c         1 1MT      0.668100
     17 O1         -2.3760    0.1350   -1.9000 o         1 1MT     -0.615100
     18 N1         -3.4670    1.9180   -0.9620 n         1 1MT     -0.558900
     19 C17        -4.3200    2.1580   -2.0910 c3        1 1MT      0.085000
     20 C18         0.7280    0.3700    0.5260 c3        1 1MT     -0.091700
     21 C19         1.8680   -0.0880   -0.3410 ca        1 1MT     -0.137300
     22 C20         2.0170   -0.0850   -1.7130 ca        1 1MT     -0.059000
     23 C21         3.2000   -0.5910   -2.2720 ca        1 1MT     -0.154000
     24 C22         4.2070   -1.0940   -1.4490 ca        1 1MT      0.055400
     25 CL2         5.6320   -1.7030   -2.1490 cl        1 1MT     -0.087400
     26 C23         4.0850   -1.1170   -0.0500 ca        1 1MT     -0.165000
     27 C24         2.9090   -0.6100    0.4970 ca        1 1MT      0.069600
     28 N2          2.5390   -0.5030    1.8480 n         1 1MT     -0.474100
     29 C25         1.2660    0.0830    1.9530 c         1 1MT      0.714500
     30 O2          0.7270    0.3560    3.0330 o         1 1MT     -0.617500
     31 F1         -0.4300   -2.9200   -0.9450 f         1 1MT     -0.115900
     32 C16        -5.8020    1.8080   -1.8080 c3        1 1MT      0.137800
     33 N3         -6.6520    2.1340   -2.9280 n3        1 1MT     -0.915800
     34 N4         -1.0280    2.0430    0.6870 n3        1 1MT     -0.790200
     35 H1         -1.8410   -4.8160    2.9540 ha        1 1MT      0.152000
     36 H2         -1.9920   -2.5850    4.0570 ha        1 1MT      0.145000
     37 H3         -1.3900   -0.5260    2.8140 ha        1 1MT      0.158000
     38 H4         -0.5560   -0.6130   -0.9060 hc        1 1MT      0.123700
     39 H5         -2.4210    0.4870    1.1650 h1        1 1MT      0.077700
     40 H6          0.5120    2.1410   -0.7250 h1        1 1MT      0.084700
     41 H7          1.0620    2.7240    2.2750 hc        1 1MT      0.057700
     42 H8          2.3710    2.3280    1.0870 hc        1 1MT      0.057700
     43 H9          3.3860    4.4510    1.6810 hc        1 1MT      0.036811
     44 H10         2.4940    6.0090    1.4320 hc        1 1MT      0.036811
     45 H11         1.9960    4.8840    2.7630 hc        1 1MT      0.036811
     46 H12         1.2340    3.9640   -1.4010 hc        1 1MT      0.036811
     47 H13         2.1490    5.4390   -0.8940 hc        1 1MT      0.036811
     48 H14         2.9230    3.8050   -0.7560 hc        1 1MT      0.036811
     49 H15        -0.4220    4.6930    1.8290 hc        1 1MT      0.036811
     50 H16         0.1840    6.0220    0.7560 hc        1 1MT      0.036811
     51 H17        -0.6080    4.5700    0.0260 hc        1 1MT      0.036811
     52 H18        -3.5070    2.5670   -0.2130 hn        1 1MT      0.319500
     53 H19        -4.2490    3.2480   -2.3720 h1        1 1MT      0.065700
     54 H20        -3.9550    1.5420   -2.9630 h1        1 1MT      0.065700
     55 H21         1.2190    0.3000   -2.3670 ha        1 1MT      0.155000
     56 H22         3.3230   -0.5910   -3.3650 ha        1 1MT      0.154000
     57 H23         4.8880   -1.5230    0.5810 ha        1 1MT      0.156000
     58 H24         3.0840   -0.8250    2.6040 hn        1 1MT      0.344500
     59 H25        -5.8610    0.7170   -1.5190 h1        1 1MT      0.030200
     60 H26        -6.1640    2.4080   -0.9260 h1        1 1MT      0.030200
     61 H27        -6.3230    1.7020   -3.7680 hn        1 1MT      0.351800
     62 H28        -7.5890    1.8320   -2.7480 hn        1 1MT      0.351800
     63 H30        -1.1460    2.2480    1.6640 hn        1 1MT      0.369800
@<TRIPOS>BOND
     1    1    2 1   
     2    2    3 ar  
     3    2    4 ar  
     4    3    7 ar  
     5    3   31 1   
     6    4    5 ar  
     7    4   35 1   
     8    5    6 ar  
     9    5   36 1   
    10    6    7 ar  
    11    6   37 1   
    12    7    8 1   
    13    8    9 1   
    14    8   20 1   
    15    8   38 1   
    16    9   16 1   
    17    9   34 1   
    18    9   39 1   
    19   10   11 1   
    20   10   20 1   
    21   10   34 1   
    22   10   40 1   
    23   11   12 1   
    24   11   41 1   
    25   11   42 1   
    26   12   13 1   
    27   12   14 1   
    28   12   15 1   
    29   13   43 1   
    30   13   44 1   
    31   13   45 1   
    32   14   46 1   
    33   14   47 1   
    34   14   48 1   
    35   15   49 1   
    36   15   50 1   
    37   15   51 1   
    38   16   17 2   
    39   16   18 1   
    40   18   19 1   
    41   18   52 1   
    42   19   32 1   
    43   19   53 1   
    44   19   54 1   
    45   20   21 1   
    46   20   29 1   
    47   21   22 ar  
    48   21   27 ar  
    49   22   23 ar  
    50   22   55 1   
    51   23   24 ar  
    52   23   56 1   
    53   24   25 1   
    54   24   26 ar  
    55   26   27 ar  
    56   26   57 1   
    57   27   28 1   
    58   28   29 1   
    59   28   58 1   
    60   29   30 2   
    61   32   33 1   
    62   32   59 1   
    63   32   60 1   
    64   33   61 1   
    65   33   62 1   
    66   34   63 1   
@<TRIPOS>SUBSTRUCTURE
     1 1MT         1 TEMP              0 ****  ****    0 ROOT
