@<TRIPOS>MOLECULE
1MU
   35    36     1     0     0
SMALL
bcc


@<TRIPOS>ATOM
      1 CAI        -0.0780    0.2260    0.0680 ca        1 1MU     -0.146500
      2 CAK         1.3040    0.2480   -0.0990 ca        1 1MU     -0.107000
      3 CAT         2.1550    0.0830    0.9990 ca        1 1MU     -0.107600
      4 CAQ         3.6680    0.0960    0.8120 c         1 1MU      0.907200
      5 OAE         4.3850   -0.0800    1.8350 o         1 1MU     -0.822300
      6 OAA         4.1120    0.2790   -0.3550 o         1 1MU     -0.822300
      7 CAL         1.6000   -0.0970    2.2700 ca        1 1MU     -0.107000
      8 CAJ         0.2180   -0.1200    2.4430 ca        1 1MU     -0.146500
      9 CAS        -0.6300    0.0380    1.3410 ca        1 1MU     -0.149300
     10 CAN        -2.1050    0.0090    1.5180 c3        1 1MU     -0.031100
     11 CAM        -2.6270   -1.3780    1.1390 c3        1 1MU      0.110800
     12 NAO        -4.0820   -1.5400    1.3350 n4        1 1MU     -0.719900
     13 SAW        -4.7820   -3.1310    0.7170 sy        1 1MU      1.512200
     14 OAC        -6.0230   -2.7530    0.2280 o         1 1MU     -0.612300
     15 OAD        -3.8610   -3.5470   -0.2480 o         1 1MU     -0.612300
     16 CAU        -4.7290   -4.0190    2.0340 cc        1 1MU     -0.579500
     17 CAH        -3.9070   -5.2080    2.0900 cc        1 1MU     -0.042000
     18 CAG        -4.0550   -5.8760    3.2760 cd        1 1MU     -0.239100
     19 SAP        -5.1340   -5.0940    4.2810 ss        1 1MU      0.244200
     20 CAV        -5.4390   -3.8740    3.2390 cd        1 1MU     -0.041700
     21 CAR        -6.3680   -2.7150    3.6060 c         1 1MU      0.933200
     22 OAF        -7.3800   -2.9800    4.2850 o         1 1MU     -0.777800
     23 OAB        -6.0120   -1.5670    3.2060 o         1 1MU     -0.777800
     24 H1         -0.7410    0.3590   -0.7990 ha        1 1MU      0.106000
     25 H2          1.7590    0.3950   -1.0930 ha        1 1MU      0.158000
     26 H4          2.2860   -0.2200    3.1250 ha        1 1MU      0.158000
     27 H5         -0.2090   -0.2580    3.4460 ha        1 1MU      0.106000
     28 H6         -2.5870    0.7860    0.8680 hc        1 1MU      0.051700
     29 H7         -2.3750    0.2410    2.5830 hc        1 1MU      0.051700
     30 H8         -2.3870   -1.5830    0.0540 hx        1 1MU      0.099700
     31 H9         -2.1040   -2.1550    1.7670 hx        1 1MU      0.099700
     32 H10        -4.3070   -1.4460    2.3480 hn        1 1MU      0.472300
     33 H11        -3.2570   -5.5060    1.2590 ha        1 1MU      0.178000
     34 H12        -3.5390   -6.7970    3.5470 h4        1 1MU      0.182000
     35 HAO2       -4.5710   -0.7630    0.8890 hn        1 1MU      0.472300
@<TRIPOS>BOND
     1    1    2 ar  
     2    1    9 ar  
     3    1   24 1   
     4    2    3 ar  
     5    2   25 1   
     6    3    4 1   
     7    3    7 ar  
     8    4    5 1   
     9    4    6 1   
    10    7    8 ar  
    11    7   26 1   
    12    8    9 ar  
    13    8   27 1   
    14    9   10 1   
    15   10   11 1   
    16   10   28 1   
    17   10   29 1   
    18   11   12 1   
    19   11   30 1   
    20   11   31 1   
    21   12   13 1   
    22   12   32 1   
    23   12   35 1   
    24   13   14 2   
    25   13   15 2   
    26   13   16 1   
    27   16   17 1   
    28   16   20 2   
    29   17   18 2   
    30   17   33 1   
    31   18   19 1   
    32   18   34 1   
    33   19   20 1   
    34   20   21 1   
    35   21   22 1   
    36   21   23 1   
@<TRIPOS>SUBSTRUCTURE
     1 1MU         1 TEMP              0 ****  ****    0 ROOT
