@<TRIPOS>MOLECULE
1MU
   35    36     1     0     0
SMALL
bcc


@<TRIPOS>ATOM
      1 CAI        -0.0920    0.2300    0.0650 ca        1 1MU     -0.146500
      2 CAK         1.2880    0.2540   -0.1120 ca        1 1MU     -0.107000
      3 CAT         2.1470    0.0910    0.9810 ca        1 1MU     -0.107600
      4 CAQ         3.6590    0.1070    0.7840 c         1 1MU      0.907200
      5 OAE         4.3840   -0.0660    1.8030 o         1 1MU     -0.822300
      6 OAA         4.0940    0.2880   -0.3870 o         1 1MU     -0.822300
      7 CAL         1.6010   -0.0880    2.2560 ca        1 1MU     -0.107000
      8 CAJ         0.2210   -0.1130    2.4380 ca        1 1MU     -0.146500
      9 CAS        -0.6350    0.0420    1.3420 ca        1 1MU     -0.149300
     10 CAN        -2.1090    0.0110    1.5290 c3        1 1MU     -0.031100
     11 CAM        -2.6320   -1.3750    1.1460 c3        1 1MU      0.110800
     12 NAO        -4.0850   -1.5390    1.3510 n4        1 1MU     -0.719900
     13 SAW        -4.7890   -3.1260    0.7280 sy        1 1MU      1.512200
     14 OAC        -6.0350   -2.7470    0.2530 o         1 1MU     -0.612300
     15 OAD        -3.8760   -3.5330   -0.2490 o         1 1MU     -0.612300
     16 CAU        -4.7230   -4.0240    2.0370 cc        1 1MU     -0.579500
     17 CAH        -3.8980   -5.2120    2.0760 cc        1 1MU     -0.042000
     18 CAG        -4.0340   -5.8900    3.2580 cd        1 1MU     -0.239100
     19 SAP        -5.1050   -5.1170    4.2800 ss        1 1MU      0.244200
     20 CAV        -5.4220   -3.8900    3.2490 cd        1 1MU     -0.041700
     21 CAR        -6.3500   -2.7350    3.6340 c         1 1MU      0.933200
     22 OAF        -7.3550   -3.0080    4.3200 o         1 1MU     -0.777800
     23 OAB        -5.9990   -1.5840    3.2400 o         1 1MU     -0.777800
     24 H1         -0.7610    0.3600   -0.7980 ha        1 1MU      0.106000
     25 H2          1.7360    0.3990   -1.1090 ha        1 1MU      0.158000
     26 H4          2.2930   -0.2080    3.1060 ha        1 1MU      0.158000
     27 H5         -0.1990   -0.2500    3.4450 ha        1 1MU      0.106000
     28 H6         -2.5960    0.7910    0.8860 hc        1 1MU      0.051700
     29 H7         -2.3720    0.2370    2.5970 hc        1 1MU      0.051700
     30 H8         -2.1040   -2.1540    1.7660 hx        1 1MU      0.099700
     31 H9         -2.4000   -1.5730    0.0580 hx        1 1MU      0.099700
     32 H10        -4.5790   -0.7590    0.9150 hn        1 1MU      0.472300
     33 H11        -3.2550   -5.5030    1.2370 ha        1 1MU      0.178000
     34 H12        -3.5140   -6.8120    3.5170 h4        1 1MU      0.182000
     35 HAO2       -4.3040   -1.4520    2.3670 hn        1 1MU      0.472300
@<TRIPOS>BOND
     1    1    2 ar  
     2    1    9 ar  
     3    1   24 1   
     4    2    3 ar  
     5    2   25 1   
     6    3    4 1   
     7    3    7 ar  
     8    4    5 1   
     9    4    6 1   
    10    7    8 ar  
    11    7   26 1   
    12    8    9 ar  
    13    8   27 1   
    14    9   10 1   
    15   10   11 1   
    16   10   28 1   
    17   10   29 1   
    18   11   12 1   
    19   11   30 1   
    20   11   31 1   
    21   12   13 1   
    22   12   32 1   
    23   12   35 1   
    24   13   14 2   
    25   13   15 2   
    26   13   16 1   
    27   16   17 1   
    28   16   20 2   
    29   17   18 2   
    30   17   33 1   
    31   18   19 1   
    32   18   34 1   
    33   19   20 1   
    34   20   21 1   
    35   21   22 1   
    36   21   23 1   
@<TRIPOS>SUBSTRUCTURE
     1 1MU         1 TEMP              0 ****  ****    0 ROOT
