@<TRIPOS>MOLECULE
1MU
   35    36     1     0     0
SMALL
bcc


@<TRIPOS>ATOM
      1 CAI        -0.0920    0.2300    0.0580 ca        1 1MU     -0.146500
      2 CAK         1.2890    0.2540   -0.1200 ca        1 1MU     -0.107000
      3 CAT         2.1480    0.0870    0.9720 ca        1 1MU     -0.107600
      4 CAQ         3.6600    0.1020    0.7720 c         1 1MU      0.907200
      5 OAE         4.3860   -0.0750    1.7900 o         1 1MU     -0.822300
      6 OAA         4.0950    0.2870   -0.3980 o         1 1MU     -0.822300
      7 CAL         1.6040   -0.0950    2.2470 ca        1 1MU     -0.107000
      8 CAJ         0.2240   -0.1190    2.4300 ca        1 1MU     -0.146500
      9 CAS        -0.6330    0.0400    1.3350 ca        1 1MU     -0.149300
     10 CAN        -2.1070    0.0090    1.5250 c3        1 1MU     -0.031100
     11 CAM        -2.6310   -1.3770    1.1450 c3        1 1MU      0.110800
     12 NAO        -4.0840   -1.5400    1.3520 ny        1 1MU     -0.719900
     13 SAW        -4.7890   -3.1290    0.7340 sy        1 1MU      1.512200
     14 OAC        -6.0340   -2.7500    0.2560 o         1 1MU     -0.612300
     15 OAD        -3.8750   -3.5410   -0.2400 o         1 1MU     -0.612300
     16 CAU        -4.7250   -4.0210    2.0470 cc        1 1MU     -0.579500
     17 CAH        -3.9020   -5.2110    2.0920 cc        1 1MU     -0.042000
     18 CAG        -4.0400   -5.8830    3.2770 cd        1 1MU     -0.239100
     19 SAP        -5.1110   -5.1050    4.2940 ss        1 1MU      0.244200
     20 CAV        -5.4260   -3.8810    3.2580 cd        1 1MU     -0.041700
     21 CAR        -6.3520   -2.7240    3.6370 c         1 1MU      0.933200
     22 OAF        -7.3580   -2.9920    4.3230 o         1 1MU     -0.777800
     23 OAB        -5.9990   -1.5750    3.2390 o         1 1MU     -0.777800
     24 H1         -0.7610    0.3640   -0.8030 ha        1 1MU      0.106000
     25 H2          1.7360    0.4020   -1.1170 ha        1 1MU      0.158000
     26 H4          2.2970   -0.2190    3.0960 ha        1 1MU      0.158000
     27 H5         -0.1950   -0.2590    3.4370 ha        1 1MU      0.106000
     28 H6         -2.5950    0.7880    0.8810 hc        1 1MU      0.051700
     29 H7         -2.3680    0.2370    2.5930 hc        1 1MU      0.051700
     30 H8         -2.4000   -1.5780    0.0570 hx        1 1MU      0.099700
     31 H9         -2.1030   -2.1550    1.7660 hx        1 1MU      0.099700
     32 H10        -4.3020   -1.4500    2.3670 hn        1 1MU      0.472300
     33 H11        -3.2580   -5.5050    1.2550 ha        1 1MU      0.178000
     34 H12        -3.5220   -6.8050    3.5400 h4        1 1MU      0.182000
     35 HAO2       -4.5780   -0.7610    0.9130 hn        1 1MU      0.472300
@<TRIPOS>BOND
     1    1    2 ar  
     2    1    9 ar  
     3    1   24 1   
     4    2    3 ar  
     5    2   25 1   
     6    3    4 1   
     7    3    7 ar  
     8    4    5 1   
     9    4    6 1   
    10    7    8 ar  
    11    7   26 1   
    12    8    9 ar  
    13    8   27 1   
    14    9   10 1   
    15   10   11 1   
    16   10   28 1   
    17   10   29 1   
    18   11   12 1   
    19   11   30 1   
    20   11   31 1   
    21   12   13 1   
    22   12   32 1   
    23   12   35 1   
    24   13   14 2   
    25   13   15 2   
    26   13   16 1   
    27   16   17 1   
    28   16   20 2   
    29   17   18 2   
    30   17   33 1   
    31   18   19 1   
    32   18   34 1   
    33   19   20 1   
    34   20   21 1   
    35   21   22 1   
    36   21   23 1   
@<TRIPOS>SUBSTRUCTURE
     1 1MU         1 TEMP              0 ****  ****    0 ROOT
