@<TRIPOS>MOLECULE
1MV
   37    38     1     0     0
SMALL
bcc


@<TRIPOS>ATOM
      1 OAU      -193.7190 -129.6580  238.8770 o         1 1MV     -0.917167
      2 PAS      -192.8170 -130.8410  239.0850 p5        1 1MV      0.894900
      3 OAV      -193.4630 -132.1900  238.9460 o         1 1MV     -0.917167
      4 OAW      -191.4000 -130.7120  238.5920 o         1 1MV     -0.917167
      5 CAR      -192.5310 -130.7620  240.9260 c2        1 1MV      0.508000
      6 PAT      1535.8700    0.2390-1995.1810 p4        1 1MV      1.451300
      7 OAX      1537.2810    0.6480-1995.3100 o         1 1MV     -0.800500
      8 OAZ      1535.1430    0.4850-1993.9230 o         1 1MV     -0.800500
      9 OAY      1535.1870    0.5840-1996.3110 o         1 1MV     -0.849300
     10 NAJ      -191.3140 -130.6280  241.3400 nh        1 1MV     -0.528900
     11 C4       -190.8490 -130.5440  242.6840 ca        1 1MV      0.315200
     12 N3       -191.7480 -130.6080  243.7070 nb        1 1MV     -0.640000
     13 C2       -191.2790 -130.5260  244.9600 ca        1 1MV      0.383900
     14 N1       -189.9550 -130.3800  245.3670 nb        1 1MV     -0.702000
     15 C6       -189.0820 -130.3180  244.3860 ca        1 1MV      0.463600
     16 SAE      -187.3730 -130.1390  244.5470 ss        1 1MV     -0.381900
     17 C5       -189.4210 -130.3920  242.9470 ca        1 1MV     -0.227400
     18 CAC      -188.3300 -130.3030  242.1310 cc        1 1MV     -0.179200
     19 CAD      -187.0740 -130.1550  242.8260 cd        1 1MV     -0.128600
     20 CAK      -185.8040 -130.0390  242.3240 ca        1 1MV      0.068200
     21 CAL      -184.6620 -129.8970  243.1920 ca        1 1MV     -0.259000
     22 CAM      -183.3870 -129.7800  242.6960 ca        1 1MV     -0.063000
     23 CAN      -183.1230 -129.7920  241.3160 ca        1 1MV     -0.355300
     24 CAQ      -181.7530 -129.6830  240.7980 c3        1 1MV      0.041200
     25 CAO      -184.2270 -129.9290  240.4470 ca        1 1MV     -0.063000
     26 CAP      -185.5100 -130.0470  240.9140 ca        1 1MV     -0.259000
     27 H3       -193.3810 -130.8290  241.6130 h4        1 1MV     -0.000200
     28 H6       -190.6000 -130.5750  240.6130 hn        1 1MV      0.492800
     29 H7       -192.0190 -130.5800  245.7720 h5        1 1MV     -0.015900
     30 H8       -188.3640 -130.3360  241.0400 ha        1 1MV      0.132000
     31 H10      -184.8420 -129.8830  244.2760 ha        1 1MV      0.104000
     32 H11      -182.5400 -129.6720  243.3930 ha        1 1MV      0.059500
     33 H12      -181.1190 -129.0270  241.4500 hc        1 1MV     -0.022967
     34 H13      -181.2450 -130.6840  240.7500 hc        1 1MV     -0.022967
     35 H14      -181.7400 -129.2560  239.7630 hc        1 1MV     -0.022967
     36 H15      -184.0400 -129.9380  239.3610 ha        1 1MV      0.059500
     37 H16      -186.3520 -130.1500  240.2170 ha        1 1MV      0.104000
@<TRIPOS>BOND
     1    1    2 1   
     2    2    3 1   
     3    2    4 1   
     4    2    5 2   
     5    5   10 1   
     6    5   27 1   
     7    6    7 1   
     8    6    8 1   
     9    6    9 2   
    10   10   11 1   
    11   10   28 1   
    12   11   12 ar  
    13   11   17 ar  
    14   12   13 ar  
    15   13   14 ar  
    16   13   29 1   
    17   14   15 ar  
    18   15   16 1   
    19   15   17 ar  
    20   16   19 1   
    21   17   18 1   
    22   18   19 2   
    23   18   30 1   
    24   19   20 1   
    25   20   21 ar  
    26   20   26 ar  
    27   21   22 ar  
    28   21   31 1   
    29   22   23 ar  
    30   22   32 1   
    31   23   24 1   
    32   23   25 ar  
    33   24   33 1   
    34   24   34 1   
    35   24   35 1   
    36   25   26 ar  
    37   25   36 1   
    38   26   37 1   
@<TRIPOS>SUBSTRUCTURE
     1 1MV         1 TEMP              0 ****  ****    0 ROOT
