@<TRIPOS>MOLECULE
1MV
   37    30     1     0     0
SMALL
bcc


@<TRIPOS>ATOM
      1 OAU         0.6470   -0.3670   -5.0850 o         1 1MV     -1.120000
      2 PAS         0.7080   -1.8720   -5.0410 p3        1 1MV      2.361000
      3 OAV        -0.6760   -2.4430   -5.3040 os        1 1MV     -1.120000
      4 OAW         1.6720   -2.3710   -6.1040 o         1 1MV     -1.120000
      5 CAR         1.2900   -2.4110   -3.3860 c3        1 1MV     -0.457000
      6 PAT         3.1190   -2.4010   -3.3490 p5        1 1MV      1.578500
      7 OAX         3.5970   -2.2630   -1.9120 o         1 1MV     -0.917167
      8 OAZ         3.6340   -1.2290   -4.1690 o         1 1MV     -0.917167
      9 OAY         3.6450   -3.7000   -3.9340 o         1 1MV     -0.917167
     10 NAJ         0.7840   -1.5070   -2.3820 n3        1 1MV      0.021000
     11 C4         -0.6020   -1.4720   -2.0960 c2        1 1MV     -0.206000
     12 N3         -1.4750   -1.3250   -3.1150 n2        1 1MV     -0.115000
     13 C2         -2.7360   -0.7720   -2.8820 c1        1 1MV     -0.279000
     14 N1         -3.0900   -0.3770   -1.6170 n1        1 1MV     -0.176000
     15 C6         -2.2260   -0.5220   -0.6020 c1        1 1MV     -0.192000
     16 SAE        -2.2700   -0.0340    0.8860 s         1 1MV      0.186000
     17 C5         -0.9520   -1.0810   -0.8370 c1        1 1MV     -0.085000
     18 CAC        -0.0980   -0.9770    0.5150 c1        1 1MV     -0.191000
     19 CAD        -0.9140   -0.3490    1.5160 c1        1 1MV     -0.381000
     20 CAK        -0.6650    0.7500    2.5370 c1        1 1MV      0.080000
     21 CAL        -0.5800    2.0710    2.1270 c2        1 1MV     -0.280000
     22 CAM        -0.3390    3.0720    3.0580 c1        1 1MV     -0.058000
     23 CAN        -0.1840    2.7520    4.3950 c1        1 1MV     -0.348000
     24 CAQ         0.0490    3.8650    5.4310 c3        1 1MV     -0.084000
     25 CAO        -0.2690    1.4300    4.8050 c1        1 1MV     -0.068000
     26 CAP        -0.5100    0.4290    3.8750 c1        1 1MV     -0.238000
     27 H3          0.9630   -3.3210   -3.2030 h1        1 1MV      0.129000
     28 H6          1.3520   -0.9110   -1.9720 hn        1 1MV      0.288000
     29 H7         -3.3560   -0.6670   -3.6070 ha        1 1MV      0.121000
     30 H8          0.8140   -1.2850    0.6360 DU        1 1MV      0.132000
     31 H10        -0.6150    2.2870    1.1820 ha        1 1MV      0.095000
     32 H11        -0.2790    4.0050    2.7680 ha        1 1MV      0.054000
     33 H12         0.6610    4.5360    5.0590 hc        1 1MV      0.016333
     34 H13         0.4440    3.4760    6.2480 hc        1 1MV      0.016333
     35 H14        -0.8080    4.2910    5.6520 hc        1 1MV      0.016333
     36 H15        -0.1610    1.2060    5.7380 ha        1 1MV      0.065000
     37 H16        -0.5710   -0.5120    4.1680 ha        1 1MV      0.113000
@<TRIPOS>BOND
     1    1    2 1   
     2    2    4 1   
     3    2    5 1   
     4    5    6 1   
     5    5   10 1   
     6    5   27 1   
     7    6    7 1   
     8    6    8 1   
     9    6    9 1   
    10   10   11 1   
    11   10   28 1   
    12   11   12 1   
    13   11   17 1   
    14   12   13 1   
    15   13   29 1   
    16   14   15 1   
    17   16   19 1   
    18   18   19 1   
    19   20   21 1   
    20   20   26 1   
    21   21   22 1   
    22   21   31 1   
    23   22   32 1   
    24   23   24 1   
    25   23   25 1   
    26   24   33 1   
    27   24   34 1   
    28   24   35 1   
    29   25   36 1   
    30   26   37 1   
@<TRIPOS>SUBSTRUCTURE
     1 1MV         1 TEMP              0 ****  ****    0 ROOT
