@<TRIPOS>MOLECULE
1MV
   37    38     1     0     0
SMALL
bcc


@<TRIPOS>ATOM
      1 OAU      -169.2970  -25.9510  -32.1150 o         1 1MV     -0.917167
      2 PAS      -167.9360  -26.3470  -31.6180 p5        1 1MV      0.894900
      3 OAV      -167.9100  -27.1730  -30.3640 o         1 1MV     -0.917167
      4 OAW      -166.8970  -26.6610  -32.6620 o         1 1MV     -0.917167
      5 CAR      -167.2880  -24.7140  -30.9940 c2        1 1MV      0.508000
      6 PAT      1352.2240  204.9960  229.3280 p4        1 1MV      1.451300
      7 OAX      1352.2390  204.8730  230.7970 o         1 1MV     -0.800500
      8 OAZ      1352.4740  203.8120  228.4870 o         1 1MV     -0.800500
      9 OAY      1351.9600  206.3040  228.7010 o         1 1MV     -0.849300
     10 NAJ      -166.2010  -24.2560  -31.5220 nu        1 1MV     -0.528900
     11 C4       -165.5210  -23.0410  -31.2190 ca        1 1MV      0.315200
     12 N3       -166.0470  -22.1960  -30.2880 nb        1 1MV     -0.640000
     13 C2       -165.3860  -21.0590  -30.0270 ca        1 1MV      0.383900
     14 N1       -164.1970  -20.6150  -30.6000 nb        1 1MV     -0.702000
     15 C6       -163.6830  -21.4250  -31.4990 ca        1 1MV      0.463600
     16 SAE      -162.2270  -21.1740  -32.3900 ss        1 1MV     -0.381900
     17 C5       -164.2770  -22.7170  -31.9100 ca        1 1MV     -0.227400
     18 CAC      -163.5450  -23.3680  -32.8610 cc        1 1MV     -0.179200
     19 CAD      -162.3490  -22.6740  -33.2750 cd        1 1MV     -0.128600
     20 CAK      -161.4000  -23.0390  -34.1940 ca        1 1MV      0.068200
     21 CAL      -160.2620  -22.2000  -34.4720 ca        1 1MV     -0.259000
     22 CAM      -159.3070  -22.5580  -35.3920 ca        1 1MV     -0.063000
     23 CAN      -159.3860  -23.7620  -36.1140 ca        1 1MV     -0.355300
     24 CAQ      -158.3570  -24.1240  -37.0970 c3        1 1MV      0.041200
     25 CAO      -160.4930  -24.5990  -35.8570 ca        1 1MV     -0.063000
     26 CAP      -161.4600  -24.2660  -34.9440 ca        1 1MV     -0.259000
     27 H3       -167.8290  -24.1770  -30.2060 h4        1 1MV     -0.000200
     28 H6       -165.7800  -24.8380  -32.2470 hn        1 1MV      0.492800
     29 H7       -165.8260  -20.3910  -29.2730 h5        1 1MV     -0.015900
     30 H8       -163.8100  -24.3350  -33.2960 ha        1 1MV      0.132000
     31 H10      -160.1770  -21.2530  -33.9200 ha        1 1MV      0.104000
     32 H11      -158.4500  -21.8900  -35.5760 ha        1 1MV      0.059500
     33 H12      -157.3290  -24.0930  -36.6490 hc        1 1MV     -0.022967
     34 H13      -158.5230  -25.1540  -37.5020 hc        1 1MV     -0.022967
     35 H14      -158.3510  -23.4150  -37.9680 hc        1 1MV     -0.022967
     36 H15      -160.5730  -25.5480  -36.4110 ha        1 1MV      0.059500
     37 H16      -162.3110  -24.9360  -34.7630 ha        1 1MV      0.104000
@<TRIPOS>BOND
     1    1    2 1   
     2    2    3 1   
     3    2    4 1   
     4    2    5 2   
     5    5   10 1   
     6    5   27 1   
     7    6    7 1   
     8    6    8 1   
     9    6    9 2   
    10   10   11 1   
    11   10   28 1   
    12   11   12 ar  
    13   11   17 ar  
    14   12   13 ar  
    15   13   14 ar  
    16   13   29 1   
    17   14   15 ar  
    18   15   16 1   
    19   15   17 ar  
    20   16   19 1   
    21   17   18 1   
    22   18   19 2   
    23   18   30 1   
    24   19   20 1   
    25   20   21 ar  
    26   20   26 ar  
    27   21   22 ar  
    28   21   31 1   
    29   22   23 ar  
    30   22   32 1   
    31   23   24 1   
    32   23   25 ar  
    33   24   33 1   
    34   24   34 1   
    35   24   35 1   
    36   25   26 ar  
    37   25   36 1   
    38   26   37 1   
@<TRIPOS>SUBSTRUCTURE
     1 1MV         1 TEMP              0 ****  ****    0 ROOT
