@<TRIPOS>MOLECULE
1MV
   37    38     1     0     0
SMALL
bcc


@<TRIPOS>ATOM
      1 OAU      -167.1630  -31.4180  -30.4020 o         1 1MV     -0.917167
      2 PAS      -165.9370  -31.7190  -29.5880 p5        1 1MV      0.894900
      3 OAV      -166.1180  -32.7050  -28.4700 o         1 1MV     -0.917167
      4 OAW      -164.6250  -31.7590  -30.3260 o         1 1MV     -0.917167
      5 CAR      -165.7300  -30.1260  -28.6410 c2        1 1MV      0.508000
      6 PAT      1337.4410  243.0210  198.5280 p4        1 1MV      1.451300
      7 OAX      1337.4950  242.9110  199.9970 o         1 1MV     -0.800500
      8 OAZ      1337.6110  241.8190  197.6920 o         1 1MV     -0.800500
      9 OAY      1337.2180  244.3330  197.8950 o         1 1MV     -0.849300
     10 NAJ      -164.6250  -29.4750  -28.7950 nh        1 1MV     -0.528900
     11 C4       -164.2390  -28.2440  -28.1880 ca        1 1MV      0.315200
     12 N3       -165.1080  -27.6110  -27.3510 nb        1 1MV     -0.640000
     13 C2       -164.7160  -26.4550  -26.7970 ca        1 1MV      0.383900
     14 N1       -163.5020  -25.7960  -26.9690 nb        1 1MV     -0.702000
     15 C6       -162.6580  -26.4010  -27.7760 ca        1 1MV      0.463600
     16 SAE      -161.0770  -25.8540  -28.2000 ss        1 1MV     -0.381900
     17 C5       -162.9230  -27.6800  -28.4720 ca        1 1MV     -0.227400
     18 CAC      -161.8820  -28.0950  -29.2510 cc        1 1MV     -0.179200
     19 CAD      -160.7390  -27.2140  -29.2410 cd        1 1MV     -0.128600
     20 CAK      -159.5410  -27.3280  -29.8980 ca        1 1MV      0.068200
     21 CAL      -158.5080  -26.3320  -29.7560 ca        1 1MV     -0.259000
     22 CAM      -157.3050  -26.4410  -30.4080 ca        1 1MV     -0.063000
     23 CAN      -157.0120  -27.5280  -31.2500 ca        1 1MV     -0.355300
     24 CAQ      -155.7210  -27.6230  -31.9440 c3        1 1MV      0.041200
     25 CAO      -158.0090  -28.5150  -31.4040 ca        1 1MV     -0.063000
     26 CAP      -159.2200  -28.4310  -30.7650 ca        1 1MV     -0.259000
     27 H3       -166.5320  -29.7740  -27.9830 h4        1 1MV     -0.000200
     28 H6       -163.9460  -29.8940  -29.4310 hn        1 1MV      0.492800
     29 H7       -165.4310  -25.9590  -26.1240 h5        1 1MV     -0.015900
     30 H8       -161.8760  -29.0110  -29.8450 ha        1 1MV      0.132000
     31 H10      -158.7130  -25.4730  -29.1030 ha        1 1MV      0.104000
     32 H11      -156.5400  -25.6600  -30.2740 ha        1 1MV      0.059500
     33 H12      -154.8630  -27.4810  -31.2360 hc        1 1MV     -0.022967
     34 H13      -155.6190  -26.8370  -32.7390 hc        1 1MV     -0.022967
     35 H14      -155.5950  -28.6190  -32.4390 hc        1 1MV     -0.022967
     36 H15      -157.7990  -29.3750  -32.0590 ha        1 1MV      0.059500
     37 H16      -159.9780  -29.2130  -30.9010 ha        1 1MV      0.104000
@<TRIPOS>BOND
     1    1    2 1   
     2    2    3 1   
     3    2    4 1   
     4    2    5 2   
     5    5   10 1   
     6    5   27 1   
     7    6    7 1   
     8    6    8 1   
     9    6    9 2   
    10   10   11 1   
    11   10   28 1   
    12   11   12 ar  
    13   11   17 ar  
    14   12   13 ar  
    15   13   14 ar  
    16   13   29 1   
    17   14   15 ar  
    18   15   16 1   
    19   15   17 ar  
    20   16   19 1   
    21   17   18 1   
    22   18   19 2   
    23   18   30 1   
    24   19   20 1   
    25   20   21 ar  
    26   20   26 ar  
    27   21   22 ar  
    28   21   31 1   
    29   22   23 ar  
    30   22   32 1   
    31   23   24 1   
    32   23   25 ar  
    33   24   33 1   
    34   24   34 1   
    35   24   35 1   
    36   25   26 ar  
    37   25   36 1   
    38   26   37 1   
@<TRIPOS>SUBSTRUCTURE
     1 1MV         1 TEMP              0 ****  ****    0 ROOT
