@<TRIPOS>MOLECULE
1MW
   38    39     1     0     0
SMALL
bcc


@<TRIPOS>ATOM
      1 CAI        -0.0600    0.0890    0.1530 ca        1 1MW     -0.151000
      2 CAK         1.3260    0.1580    0.0390 ca        1 1MW     -0.107000
      3 CAU         2.1360    0.0960    1.1780 ca        1 1MW     -0.112600
      4 CAR         3.6520    0.1790    1.0520 c         1 1MW      0.907200
      5 OAE         4.3340    0.1050    2.1130 o         1 1MW     -0.825800
      6 OAA         4.1400    0.3180   -0.1040 o         1 1MW     -0.825800
      7 CAL         1.5360   -0.0390    2.4330 ca        1 1MW     -0.107000
      8 CAJ         0.1500   -0.1080    2.5520 ca        1 1MW     -0.151000
      9 CAT        -0.6580   -0.0440    1.4120 ca        1 1MW     -0.138300
     10 CAO        -2.1390   -0.0970    1.5350 c3        1 1MW     -0.013100
     11 CAM        -2.6730   -1.4680    1.1580 c3        1 1MW     -0.100400
     12 CAN        -4.1810   -1.4960    1.3760 c3        1 1MW      0.109800
     13 NAP        -4.8230   -2.7730    1.0140 n4        1 1MW     -0.715900
     14 SAX        -6.5960   -2.9070    1.5240 sy        1 1MW      1.514200
     15 OAC        -6.7270   -4.2410    1.8700 o         1 1MW     -0.612300
     16 OAD        -6.6870   -2.0010    2.5880 o         1 1MW     -0.612300
     17 CAV        -7.3370   -2.3790    0.2240 cc        1 1MW     -0.582500
     18 CAH        -8.1390   -1.1750    0.2640 cc        1 1MW     -0.044000
     19 CAG        -8.7610   -0.9350   -0.9310 cd        1 1MW     -0.242100
     20 SAQ        -8.3870   -2.1100   -2.0570 ss        1 1MW      0.253200
     21 CAW        -7.4120   -2.9550   -1.0570 cd        1 1MW     -0.043700
     22 CAS        -6.6580   -4.2050   -1.5240 c         1 1MW      0.934200
     23 OAF        -7.2290   -4.9450   -2.3490 o         1 1MW     -0.773800
     24 OAB        -5.5000   -4.3620   -1.0390 o         1 1MW     -0.773800
     25 H1         -0.6910    0.1420   -0.7460 ha        1 1MW      0.103500
     26 H2          1.8150    0.2650   -0.9430 ha        1 1MW      0.155500
     27 H4          2.1890   -0.0860    3.3200 ha        1 1MW      0.155500
     28 H5         -0.3120   -0.2100    3.5440 ha        1 1MW      0.103500
     29 H6         -2.6020    0.6770    0.8660 hc        1 1MW      0.038200
     30 H7         -2.4460    0.1450    2.5880 hc        1 1MW      0.038200
     31 H8         -2.4240   -1.6850    0.0860 hc        1 1MW      0.067700
     32 H9         -2.1740   -2.2510    1.7870 hc        1 1MW      0.067700
     33 H10        -4.4050   -1.2890    2.4640 hx        1 1MW      0.089700
     34 H11        -4.6630   -0.6850    0.7580 hx        1 1MW      0.089700
     35 H12        -4.7560   -2.9230   -0.0150 hn        1 1MW      0.475800
     36 H13        -8.2180   -0.5590    1.1670 ha        1 1MW      0.174000
     37 H14        -9.4190   -0.0910   -1.1400 h4        1 1MW      0.181000
     38 HAP2       -4.2940   -3.5470    1.4200 hn        1 1MW      0.475800
@<TRIPOS>BOND
     1    1    2 ar  
     2    1    9 ar  
     3    1   25 1   
     4    2    3 ar  
     5    2   26 1   
     6    3    4 1   
     7    3    7 ar  
     8    4    5 1   
     9    4    6 1   
    10    7    8 ar  
    11    7   27 1   
    12    8    9 ar  
    13    8   28 1   
    14    9   10 1   
    15   10   11 1   
    16   10   29 1   
    17   10   30 1   
    18   11   12 1   
    19   11   31 1   
    20   11   32 1   
    21   12   13 1   
    22   12   33 1   
    23   12   34 1   
    24   13   14 1   
    25   13   35 1   
    26   13   38 1   
    27   14   15 2   
    28   14   16 2   
    29   14   17 1   
    30   17   18 1   
    31   17   21 2   
    32   18   19 2   
    33   18   36 1   
    34   19   20 1   
    35   19   37 1   
    36   20   21 1   
    37   21   22 1   
    38   22   23 1   
    39   22   24 1   
@<TRIPOS>SUBSTRUCTURE
     1 1MW         1 TEMP              0 ****  ****    0 ROOT
