@<TRIPOS>MOLECULE
1MW
   38    39     1     0     0
SMALL
bcc


@<TRIPOS>ATOM
      1 CAI        -0.0630    0.1040    0.1610 ca        1 1MW     -0.151000
      2 CAK         1.3220    0.1740    0.0440 ca        1 1MW     -0.107000
      3 CAU         2.1360    0.0960    1.1800 ca        1 1MW     -0.112600
      4 CAR         3.6510    0.1800    1.0520 c         1 1MW      0.907200
      5 OAE         4.3360    0.0910    2.1090 o         1 1MW     -0.825800
      6 OAA         4.1360    0.3360   -0.1040 o         1 1MW     -0.825800
      7 CAL         1.5390   -0.0570    2.4350 ca        1 1MW     -0.107000
      8 CAJ         0.1530   -0.1280    2.5570 ca        1 1MW     -0.151000
      9 CAT        -0.6580   -0.0470    1.4190 ca        1 1MW     -0.138300
     10 CAO        -2.1380   -0.1010    1.5460 c3        1 1MW     -0.013100
     11 CAM        -2.6740   -1.4690    1.1590 c3        1 1MW     -0.100400
     12 CAN        -4.1810   -1.4980    1.3790 c3        1 1MW      0.109800
     13 NAP        -4.8240   -2.7740    1.0080 n4        1 1MW     -0.715900
     14 SAX        -6.5970   -2.9090    1.5180 sy        1 1MW      1.514200
     15 OAC        -6.7270   -4.2450    1.8590 o         1 1MW     -0.612300
     16 OAD        -6.6890   -2.0070    2.5840 o         1 1MW     -0.612300
     17 CAV        -7.3370   -2.3780    0.2180 cc        1 1MW     -0.582500
     18 CAH        -8.1390   -1.1740    0.2620 cc        1 1MW     -0.044000
     19 CAG        -8.7610   -0.9300   -0.9330 cd        1 1MW     -0.242100
     20 SAQ        -8.3850   -2.1020   -2.0620 ss        1 1MW      0.253200
     21 CAW        -7.4110   -2.9500   -1.0650 cd        1 1MW     -0.043700
     22 CAS        -6.6560   -4.1980   -1.5340 c         1 1MW      0.934200
     23 OAF        -7.2260   -4.9360   -2.3620 o         1 1MW     -0.773800
     24 OAB        -5.4980   -4.3560   -1.0490 o         1 1MW     -0.773800
     25 H1         -0.6970    0.1700   -0.7350 ha        1 1MW      0.103500
     26 H2          1.8090    0.2950   -0.9370 ha        1 1MW      0.155500
     27 H4          2.1940   -0.1170    3.3200 ha        1 1MW      0.155500
     28 H5         -0.3060   -0.2430    3.5490 ha        1 1MW      0.103500
     29 H6         -2.6040    0.6780    0.8850 hc        1 1MW      0.038200
     30 H7         -2.4430    0.1320    2.6020 hc        1 1MW      0.038200
     31 H8         -2.4250   -1.6770    0.0850 hc        1 1MW      0.067700
     32 H9         -2.1740   -2.2570    1.7810 hc        1 1MW      0.067700
     33 H10        -4.6640   -0.6830    0.7670 hx        1 1MW      0.089700
     34 H11        -4.4040   -1.3000    2.4690 hx        1 1MW      0.089700
     35 H12        -4.7560   -2.9170   -0.0210 hn        1 1MW      0.475800
     36 H13        -8.2190   -0.5610    1.1670 ha        1 1MW      0.174000
     37 H14        -9.4190   -0.0860   -1.1390 h4        1 1MW      0.181000
     38 HAP2       -4.2950   -3.5500    1.4100 hn        1 1MW      0.475800
@<TRIPOS>BOND
     1    1    2 ar  
     2    1    9 ar  
     3    1   25 1   
     4    2    3 ar  
     5    2   26 1   
     6    3    4 1   
     7    3    7 ar  
     8    4    5 1   
     9    4    6 1   
    10    7    8 ar  
    11    7   27 1   
    12    8    9 ar  
    13    8   28 1   
    14    9   10 1   
    15   10   11 1   
    16   10   29 1   
    17   10   30 1   
    18   11   12 1   
    19   11   31 1   
    20   11   32 1   
    21   12   13 1   
    22   12   33 1   
    23   12   34 1   
    24   13   14 1   
    25   13   35 1   
    26   13   38 1   
    27   14   15 2   
    28   14   16 2   
    29   14   17 1   
    30   17   18 1   
    31   17   21 2   
    32   18   19 2   
    33   18   36 1   
    34   19   20 1   
    35   19   37 1   
    36   20   21 1   
    37   21   22 1   
    38   22   23 1   
    39   22   24 1   
@<TRIPOS>SUBSTRUCTURE
     1 1MW         1 TEMP              0 ****  ****    0 ROOT
