@<TRIPOS>MOLECULE
1MX
   43    39     1     0     0
SMALL
bcc


@<TRIPOS>ATOM
      1 C           4.2180   -5.6730   -3.7390 c1        1 1MX      0.251000
      2 N           3.9190   -6.6340   -4.7430 n2        1 1MX     -0.335000
      3 O           6.7600   -4.9160   -1.3660 o         1 1MX     -0.291000
      4 C1          5.7240   -4.8340   -1.9940 c1        1 1MX      0.367000
      5 N1          5.4540   -5.7460   -3.0260 n2        1 1MX     -0.353000
      6 O1          0.6200   -1.3010   -1.6730 o         1 1MX     -0.357000
      7 C2          4.7050   -3.7750   -1.6370 c2        1 1MX     -0.166000
      8 N2          3.2420   -4.6570   -3.3970 n1        1 1MX     -0.238000
      9 O2         -1.7810    3.8140    1.6280 o         1 1MX     -0.372000
     10 C3          3.5190   -3.7080   -2.3210 c1        1 1MX      0.083000
     11 N3          2.5680   -2.7940   -1.9540 n2        1 1MX     -0.099000
     12 C4          2.7980   -1.9610   -0.9200 c1        1 1MX     -0.053000
     13 N4          4.9370   -2.9300   -0.5890 n2        1 1MX     -0.030000
     14 C5          3.9990   -2.0290   -0.2270 c1        1 1MX     -0.104000
     15 N5          1.3790   -0.0460    0.1200 n         1 1MX     -0.356000
     16 C6          1.5190   -1.0920   -0.8820 c2        1 1MX      0.356000
     17 N6         -1.4040    1.5660    1.9780 n         1 1MX     -0.346000
     18 C7          0.1800    0.0200    0.9340 c3        1 1MX     -0.060000
     19 N7         -3.6760    2.5960    2.0940 n         1 1MX     -0.312000
     20 C8         -0.1690    1.4990    1.2210 c3        1 1MX     -0.059000
     21 C9         -2.2620    2.7240    1.8630 c2        1 1MX      0.374000
     22 C10        -4.5200    3.7600    2.0460 c2        1 1MX      0.066000
     23 C11        -5.2750    4.0220    0.9110 c2        1 1MX     -0.134000
     24 C12        -6.1220    5.1210    0.8810 c1        1 1MX     -0.109000
     25 C13        -6.2140    5.9580    1.9860 c1        1 1MX     -0.129000
     26 C14        -5.4590    5.6950    3.1190 c1        1 1MX     -0.129000
     27 C15        -4.6110    4.5950    3.1490 c1        1 1MX     -0.179000
     28 HN          4.5640   -7.2260   -5.0160 hn        1 1MX      0.225500
     29 HNA         3.0900   -6.6540   -5.1240 hn        1 1MX      0.225500
     30 HN1         6.0440   -6.4220   -3.2040 hn        1 1MX      0.254000
     31 H5          4.1650   -1.4270    0.5210 ha        1 1MX      0.209000
     32 HN5         2.0150    0.6030    0.1930 hn        1 1MX      0.249000
     33 HN6        -1.6530    0.8690    2.5020 hn        1 1MX      0.203000
     34 H7          0.3320   -0.4470    1.7770 h1        1 1MX      0.101500
     35 H7A        -0.5620   -0.4030    0.4570 h1        1 1MX      0.101500
     36 HN7        -4.0350    1.7790    2.2920 hn        1 1MX      0.220000
     37 H8          0.5520    1.9100    1.7370 h1        1 1MX      0.116000
     38 H8A        -0.2780    1.9750    0.3820 h1        1 1MX      0.116000
     39 H11        -5.2100    3.4340    0.1350 ha        1 1MX      0.170000
     40 H12        -6.6540    5.3060    0.0810 ha        1 1MX      0.136000
     41 H13        -6.8110    6.7320    1.9650 ha        1 1MX      0.132000
     42 H14        -5.5230    6.2830    3.8960 ha        1 1MX      0.132000
     43 H15        -4.0810    4.4100    3.9430 ha        1 1MX      0.127000
@<TRIPOS>BOND
     1    1    5 1   
     2    1    8 1   
     3    2   28 1   
     4    2   29 1   
     5    3    4 1   
     6    4    7 1   
     7    5   30 1   
     8    6   16 1   
     9    7   10 1   
    10    7   13 1   
    11    9   21 1   
    12   10   11 1   
    13   11   12 1   
    14   12   16 1   
    15   13   14 1   
    16   14   31 1   
    17   15   16 1   
    18   15   18 1   
    19   15   32 1   
    20   17   20 1   
    21   17   21 1   
    22   17   33 1   
    23   18   20 1   
    24   18   34 1   
    25   18   35 1   
    26   19   21 1   
    27   19   22 1   
    28   19   36 1   
    29   20   37 1   
    30   20   38 1   
    31   22   23 1   
    32   22   27 1   
    33   23   24 1   
    34   23   39 1   
    35   24   40 1   
    36   25   26 1   
    37   25   41 1   
    38   26   42 1   
    39   27   43 1   
@<TRIPOS>SUBSTRUCTURE
     1 1MX         1 TEMP              0 ****  ****    0 ROOT
