@<TRIPOS>MOLECULE
1MX
   43    45     1     0     0
SMALL
bcc


@<TRIPOS>ATOM
      1 C           5.9030   -2.2960    0.3800 cc        1 1MX      0.698800
      2 N           6.2570   -3.5870    0.8150 nh        1 1MX     -0.896800
      3 O           7.6770    0.6580   -0.5170 o         1 1MX     -0.567500
      4 C1          6.7030   -0.0620   -0.2650 c         1 1MX      0.620000
      5 N1          6.9500   -1.4120    0.0520 n         1 1MX     -0.513400
      6 O1          1.0010    2.6970   -0.1010 o         1 1MX     -0.600100
      7 C2          5.2760    0.3490   -0.2710 ca        1 1MX      0.184500
      8 N2          4.5990   -1.9610    0.3520 nd        1 1MX     -0.743700
      9 O2         -3.8840   -0.8020    0.0640 o         1 1MX     -0.621100
     10 C3          4.2740   -0.6400    0.0480 ca        1 1MX      0.566000
     11 N3          2.9360   -0.2870    0.0490 nb        1 1MX     -0.622000
     12 C4          2.6520    0.9860   -0.2520 ca        1 1MX      0.298500
     13 N4          4.9610    1.6390   -0.5690 nb        1 1MX     -0.556000
     14 C5          3.6660    1.9560   -0.5570 ca        1 1MX      0.292900
     15 N5          0.2190    0.5720   -0.5040 n         1 1MX     -0.533900
     16 C6          1.2230    1.4790   -0.2570 c         1 1MX      0.564600
     17 N6         -3.1840    1.1850    1.0260 n         1 1MX     -0.533900
     18 C7         -1.1640    0.9540   -0.4520 c3        1 1MX      0.049000
     19 N7         -5.4730    0.8930    0.3060 n         1 1MX     -0.457100
     20 C8         -1.8130    0.7560    0.9420 c3        1 1MX      0.051000
     21 C9         -4.1730    0.3590    0.4360 c         1 1MX      0.744100
     22 C10        -6.6070    0.1060    0.0230 ca        1 1MX      0.059600
     23 C11        -6.5520   -1.0360   -0.8030 ca        1 1MX     -0.158000
     24 C12        -7.7180   -1.7340   -1.1050 ca        1 1MX     -0.108000
     25 C13        -8.9510   -1.3190   -0.6060 ca        1 1MX     -0.151000
     26 C14        -9.0150   -0.1900    0.2100 ca        1 1MX     -0.108000
     27 C15        -7.8630    0.5180    0.5310 ca        1 1MX     -0.158000
     28 HN          7.0720   -3.9860    0.4070 hn        1 1MX      0.431300
     29 HNA         5.4960   -4.2180    0.9440 hn        1 1MX      0.431300
     30 HN1         7.9030   -1.7000    0.1200 hn        1 1MX      0.340500
     31 H5          3.3870    3.0020   -0.7820 h4        1 1MX      0.068100
     32 HN5         0.4180   -0.4020   -0.4730 hn        1 1MX      0.335500
     33 HN6        -3.3140    2.1700    0.9490 hn        1 1MX      0.293500
     34 H7         -1.2500    2.0360   -0.7550 h1        1 1MX      0.071700
     35 H7A        -1.7250    0.3210   -1.2000 h1        1 1MX      0.071700
     36 HN7        -5.6730    1.7260    0.8190 hn        1 1MX      0.307500
     37 H8         -1.2380    1.3490    1.7100 h1        1 1MX      0.075200
     38 H8A        -1.7670   -0.3370    1.2180 h1        1 1MX      0.075200
     39 H11        -5.5880   -1.3900   -1.2040 ha        1 1MX      0.148500
     40 H12        -7.6580   -2.6260   -1.7480 ha        1 1MX      0.133500
     41 H13        -9.8660   -1.8760   -0.8530 ha        1 1MX      0.133000
     42 H14        -9.9850    0.1440    0.6100 ha        1 1MX      0.133500
     43 H15        -7.9410    1.4030    1.1800 ha        1 1MX      0.148500
@<TRIPOS>BOND
     1    1    2 1   
     2    1    5 1   
     3    1    8 2   
     4    2   28 1   
     5    2   29 1   
     6    3    4 2   
     7    4    5 1   
     8    4    7 1   
     9    5   30 1   
    10    6   16 2   
    11    7   10 ar  
    12    7   13 ar  
    13    8   10 1   
    14    9   21 2   
    15   10   11 ar  
    16   11   12 ar  
    17   12   14 ar  
    18   12   16 1   
    19   13   14 ar  
    20   14   31 1   
    21   15   16 1   
    22   15   18 1   
    23   15   32 1   
    24   17   20 1   
    25   17   21 1   
    26   17   33 1   
    27   18   20 1   
    28   18   34 1   
    29   18   35 1   
    30   19   21 1   
    31   19   22 1   
    32   19   36 1   
    33   20   37 1   
    34   20   38 1   
    35   22   23 ar  
    36   22   27 ar  
    37   23   24 ar  
    38   23   39 1   
    39   24   25 ar  
    40   24   40 1   
    41   25   26 ar  
    42   25   41 1   
    43   26   27 ar  
    44   26   42 1   
    45   27   43 1   
@<TRIPOS>SUBSTRUCTURE
     1 1MX         1 TEMP              0 ****  ****    0 ROOT
