@<TRIPOS>MOLECULE
1MX
   47    49     1     0     0
SMALL
bcc


@<TRIPOS>ATOM
      1 C           1.1610   -0.7850    0.6200 cc        1 1MX      0.625800
      2 N           1.3480   -1.9360   -0.3320 n4        1 1MX     -0.811600
      3 O           2.8400    2.2350    1.3720 o         1 1MX     -0.381500
      4 C1          1.9930    1.3580    1.4430 c         1 1MX      0.600000
      5 N1          2.1010    0.2300    0.5710 n         1 1MX     -0.492400
      6 O1         -2.7020    2.1500    5.7690 o         1 1MX     -0.371100
      7 C2          0.8150    1.3320    2.3720 ca        1 1MX      0.319500
      8 N2          0.1000   -0.8640    1.4180 nd        1 1MX     -0.668700
      9 O2         -7.5050   -2.6770    6.2690 o         1 1MX     -0.285100
     10 C3         -0.1060    0.2010    2.3250 ca        1 1MX      0.546000
     11 N3         -1.1830    0.1600    3.1620 nb        1 1MX     -0.613000
     12 C4         -1.3270    1.2120    4.0100 ca        1 1MX      0.209500
     13 N4          0.6460    2.3600    3.2240 nb        1 1MX     -0.505000
     14 C5         -0.4190    2.3150    4.0480 ca        1 1MX      0.415900
     15 N5         -3.4610    0.0950    4.9480 n4        1 1MX     -0.677800
     16 C6         -2.4540    1.2760    4.9610 c         1 1MX      0.490600
     17 N6         -6.6500   -0.6080    7.0220 n4        1 1MX     -0.643800
     18 C7         -4.5400    0.2940    5.9540 c3        1 1MX      0.077800
     19 N7         -8.7930   -1.6680    8.0060 n4        1 1MX     -0.467200
     20 C8         -5.5780   -0.8500    5.9920 c3        1 1MX      0.088800
     21 C9         -7.6530   -1.7450    7.0370 c         1 1MX      0.477100
     22 C10        -8.8300   -0.4860    8.8580 ca        1 1MX     -0.195400
     23 C11        -9.6120    0.6250    8.4650 ca        1 1MX     -0.101000
     24 C12        -9.8160    1.6590    9.3720 ca        1 1MX     -0.089000
     25 C13        -9.2650    1.6000   10.6590 ca        1 1MX      0.006000
     26 C14        -8.4800    0.5020   11.0350 ca        1 1MX     -0.089000
     27 C15        -8.2580   -0.5470   10.1510 ca        1 1MX     -0.101000
     28 HN          1.3250   -1.5910   -1.3060 hn        1 1MX      0.506467
     29 HNA         0.5910   -2.6310   -0.2080 hn        1 1MX      0.506467
     30 HN1         2.8840    0.2250   -0.0620 hn        1 1MX      0.392500
     31 H5         -0.5410    3.1750    4.7450 h4        1 1MX      0.112100
     32 HN5        -2.9360   -0.7700    5.1400 hn        1 1MX      0.483800
     33 HN6        -7.1500    0.2760    6.8190 hn        1 1MX      0.500800
     34 H7         -4.0400    0.4060    6.9650 hx        1 1MX      0.142700
     35 H7A        -5.0480    1.2780    5.7110 hx        1 1MX      0.142700
     36 HN7        -9.6750   -1.7210    7.4460 hn        1 1MX      0.531800
     37 H8         -6.0890   -0.9590    4.9870 hx        1 1MX      0.147700
     38 H8A        -5.0780   -1.8350    6.2450 hx        1 1MX      0.147700
     39 H11       -10.1090    0.6720    7.4790 ha        1 1MX      0.171000
     40 H12       -10.4500    2.5230    9.0820 ha        1 1MX      0.215000
     41 H13        -9.4660    2.4140   11.3870 ha        1 1MX      0.221000
     42 H14        -8.0580    0.4520   12.0600 ha        1 1MX      0.215000
     43 H15        -7.6860   -1.4270   10.4960 ha        1 1MX      0.171000
     44 HN3         2.2550   -2.3960   -0.1490 hn        1 1MX      0.506467
     45 H52        -3.8530    0.0240    3.9990 hn        1 1MX      0.483800
     46 H62        -6.2300   -0.5210    7.9640 hn        1 1MX      0.500800
     47 H72        -8.7450   -2.5260    8.6040 hn        1 1MX      0.531800
@<TRIPOS>BOND
     1    1    2 1   
     2    1    5 1   
     3    1    8 2   
     4    2   28 1   
     5    2   29 1   
     6    2   44 1   
     7    3    4 2   
     8    4    5 1   
     9    4    7 1   
    10    5   30 1   
    11    6   16 2   
    12    7   10 ar  
    13    7   13 ar  
    14    8   10 1   
    15    9   21 2   
    16   10   11 ar  
    17   11   12 ar  
    18   12   14 ar  
    19   12   16 1   
    20   13   14 ar  
    21   14   31 1   
    22   15   16 1   
    23   15   18 1   
    24   15   32 1   
    25   15   45 1   
    26   17   20 1   
    27   17   21 1   
    28   17   33 1   
    29   17   46 1   
    30   18   20 1   
    31   18   34 1   
    32   18   35 1   
    33   19   21 1   
    34   19   22 1   
    35   19   36 1   
    36   19   47 1   
    37   20   37 1   
    38   20   38 1   
    39   22   23 ar  
    40   22   27 ar  
    41   23   24 ar  
    42   23   39 1   
    43   24   25 ar  
    44   24   40 1   
    45   25   26 ar  
    46   25   41 1   
    47   26   27 ar  
    48   26   42 1   
    49   27   43 1   
@<TRIPOS>SUBSTRUCTURE
     1 1MX         1 TEMP              0 ****  ****    0 ROOT
