@<TRIPOS>MOLECULE
1MX
   46    48     1     0     0
SMALL
bcc


@<TRIPOS>ATOM
      1 C           0.2960   -0.0660   -0.1380 cc        1 1MX      0.610800
      2 N          -0.3440   -0.1170   -1.5000 n4        1 1MX     -0.810600
      3 O           3.5790    0.0430    1.1680 o         1 1MX     -0.399500
      4 C1          2.3570    0.0160    1.1680 c         1 1MX      0.604000
      5 N1          1.6810   -0.0340   -0.0910 n         1 1MX     -0.497400
      6 O1         -0.6080    0.1080    6.8630 o         1 1MX     -0.363100
      7 C2          1.4630    0.0290    2.3700 ca        1 1MX      0.308500
      8 N2         -0.5440   -0.0570    0.8890 nd        1 1MX     -0.654700
      9 O2         -7.3610    0.0590    6.5880 o         1 1MX     -0.472100
     10 C3          0.0220   -0.0080    2.1830 ca        1 1MX      0.535000
     11 N3         -0.8120    0.0030    3.2660 nb        1 1MX     -0.603000
     12 C4         -0.2180    0.0500    4.4820 ca        1 1MX      0.223500
     13 N4          2.0280    0.0750    3.5940 nb        1 1MX     -0.511000
     14 C5          1.2020    0.0860    4.6550 ca        1 1MX      0.405900
     15 N5         -2.5490    0.0260    5.5610 n4        1 1MX     -0.664800
     16 C6         -1.0310    0.0660    5.7220 c         1 1MX      0.471600
     17 N6         -5.4920    0.0360    8.0260 n4        1 1MX     -0.707800
     18 C7         -3.2510    0.0460    6.8770 c3        1 1MX      0.074800
     19 N7         -7.8410   -0.1990    8.8990 n         1 1MX     -0.347100
     20 C8         -4.7840    0.0080    6.7270 c3        1 1MX      0.088800
     21 C9         -7.0960    0.0100    7.7860 c         1 1MX      0.651100
     22 C10        -9.2550    0.0360    8.8870 ca        1 1MX     -0.055400
     23 C11       -10.0540   -0.3800    7.8050 ca        1 1MX     -0.111000
     24 C12       -11.4360   -0.2170    7.8780 ca        1 1MX     -0.098000
     25 C13       -12.0240    0.3600    9.0040 ca        1 1MX     -0.068000
     26 C14       -11.2260    0.7850   10.0690 ca        1 1MX     -0.098000
     27 C15        -9.8430    0.6380   10.0210 ca        1 1MX     -0.111000
     28 HN         -0.0740    0.7180   -2.0420 hn        1 1MX      0.502800
     29 HNA        -1.3740   -0.1380   -1.4080 hn        1 1MX      0.502800
     30 HN1         2.2580   -0.0430   -0.9140 hn        1 1MX      0.385500
     31 H5          1.6810    0.1240    5.6600 h4        1 1MX      0.111100
     32 HN5        -2.8370    0.8370    4.9940 hn        1 1MX      0.481300
     33 HN6        -5.2640    0.8930    8.5350 hn        1 1MX      0.453800
     34 H7         -2.8850   -0.8450    7.4720 hx        1 1MX      0.134700
     35 H7A        -2.9260    0.9830    7.4230 hx        1 1MX      0.134700
     36 HN7        -7.4210   -0.1860    9.8090 hn        1 1MX      0.354500
     37 H8         -5.1480    0.8930    6.1210 hx        1 1MX      0.135700
     38 H8A        -5.1090   -0.9310    6.1840 hx        1 1MX      0.135700
     39 H11        -9.6050   -0.8310    6.9050 ha        1 1MX      0.150500
     40 H12       -12.0650   -0.5520    7.0360 ha        1 1MX      0.175000
     41 H13       -13.1200    0.4840    9.0530 ha        1 1MX      0.179000
     42 H14       -11.6920    1.2420   10.9590 ha        1 1MX      0.175000
     43 H15        -9.2350    0.9770   10.8740 ha        1 1MX      0.150500
     44 HN3        -0.0360   -0.9680   -1.9960 hn        1 1MX      0.502800
     45 H52        -2.7980   -0.8260    5.0390 hn        1 1MX      0.481300
     46 H62        -5.2160   -0.7680    8.5950 hn        1 1MX      0.453800
@<TRIPOS>BOND
     1    1    2 1   
     2    1    5 1   
     3    1    8 2   
     4    2   28 1   
     5    2   29 1   
     6    2   44 1   
     7    3    4 2   
     8    4    5 1   
     9    4    7 1   
    10    5   30 1   
    11    6   16 2   
    12    7   10 ar  
    13    7   13 ar  
    14    8   10 1   
    15    9   21 2   
    16   10   11 ar  
    17   11   12 ar  
    18   12   14 ar  
    19   12   16 1   
    20   13   14 ar  
    21   14   31 1   
    22   15   16 1   
    23   15   18 1   
    24   15   32 1   
    25   15   45 1   
    26   17   20 1   
    27   17   21 1   
    28   17   33 1   
    29   17   46 1   
    30   18   20 1   
    31   18   34 1   
    32   18   35 1   
    33   19   21 1   
    34   19   22 1   
    35   19   36 1   
    36   20   37 1   
    37   20   38 1   
    38   22   23 ar  
    39   22   27 ar  
    40   23   24 ar  
    41   23   39 1   
    42   24   25 ar  
    43   24   40 1   
    44   25   26 ar  
    45   25   41 1   
    46   26   27 ar  
    47   26   42 1   
    48   27   43 1   
@<TRIPOS>SUBSTRUCTURE
     1 1MX         1 TEMP              0 ****  ****    0 ROOT
