@<TRIPOS>MOLECULE
1MX
   46    48     1     0     0
SMALL
bcc


@<TRIPOS>ATOM
      1 C           0.2960   -0.0640   -0.1370 cc        1 1MX      0.610800
      2 N          -0.3430   -0.1140   -1.4990 nz        1 1MX     -0.810600
      3 O           3.5800    0.0410    1.1690 o         1 1MX     -0.399500
      4 C1          2.3570    0.0150    1.1690 c         1 1MX      0.604000
      5 N1          1.6820   -0.0330   -0.0900 ns        1 1MX     -0.497400
      6 O1         -0.6080    0.1050    6.8640 o         1 1MX     -0.363100
      7 C2          1.4630    0.0280    2.3710 ca        1 1MX      0.308500
      8 N2         -0.5440   -0.0550    0.8900 nd        1 1MX     -0.654700
      9 O2         -7.3610    0.0600    6.5880 o         1 1MX     -0.472100
     10 C3          0.0220   -0.0080    2.1830 ca        1 1MX      0.535000
     11 N3         -0.8120    0.0030    3.2670 nb        1 1MX     -0.603000
     12 C4         -0.2170    0.0480    4.4820 ca        1 1MX      0.223500
     13 N4          2.0280    0.0720    3.5950 nb        1 1MX     -0.511000
     14 C5          1.2020    0.0830    4.6560 ca        1 1MX      0.405900
     15 N5         -2.5490    0.0250    5.5610 ny        1 1MX     -0.664800
     16 C6         -1.0310    0.0640    5.7230 c         1 1MX      0.471600
     17 N6         -5.4920    0.0350    8.0260 ny        1 1MX     -0.707800
     18 C7         -3.2510    0.0440    6.8770 c3        1 1MX      0.074800
     19 N7         -7.8420   -0.1990    8.8990 ns        1 1MX     -0.347100
     20 C8         -4.7840    0.0070    6.7270 c3        1 1MX      0.088800
     21 C9         -7.0960    0.0110    7.7860 c         1 1MX      0.651100
     22 C10        -9.2560    0.0370    8.8860 ca        1 1MX     -0.055400
     23 C11       -10.0540   -0.3790    7.8040 ca        1 1MX     -0.111000
     24 C12       -11.4360   -0.2150    7.8770 ca        1 1MX     -0.098000
     25 C13       -12.0240    0.3620    9.0020 ca        1 1MX     -0.068000
     26 C14       -11.2260    0.7860   10.0680 ca        1 1MX     -0.098000
     27 C15        -9.8440    0.6390   10.0200 ca        1 1MX     -0.111000
     28 HN         -0.0730    0.7220   -2.0410 hn        1 1MX      0.502800
     29 HNA        -1.3740   -0.1330   -1.4080 hn        1 1MX      0.502800
     30 HN1         2.2590   -0.0430   -0.9130 hn        1 1MX      0.385500
     31 H5          1.6810    0.1200    5.6610 h4        1 1MX      0.111100
     32 HN5        -2.8360    0.8370    4.9940 hn        1 1MX      0.481300
     33 HN6        -5.2630    0.8920    8.5360 hn        1 1MX      0.453800
     34 H7         -2.8860   -0.8480    7.4710 hx        1 1MX      0.134700
     35 H7A        -2.9250    0.9810    7.4240 hx        1 1MX      0.134700
     36 HN7        -7.4210   -0.1860    9.8090 hn        1 1MX      0.354500
     37 H8         -5.1090   -0.9310    6.1830 hx        1 1MX      0.135700
     38 H8A        -5.1470    0.8930    6.1220 hx        1 1MX      0.135700
     39 H11        -9.6060   -0.8290    6.9040 ha        1 1MX      0.150500
     40 H12       -12.0660   -0.5490    7.0350 ha        1 1MX      0.175000
     41 H13       -13.1200    0.4860    9.0520 ha        1 1MX      0.179000
     42 H14       -11.6920    1.2430   10.9590 ha        1 1MX      0.175000
     43 H15        -9.2360    0.9780   10.8740 ha        1 1MX      0.150500
     44 HN3        -0.0370   -0.9650   -1.9960 hn        1 1MX      0.502800
     45 H52        -2.7990   -0.8270    5.0380 hn        1 1MX      0.481300
     46 H62        -5.2170   -0.7700    8.5940 hn        1 1MX      0.453800
@<TRIPOS>BOND
     1    1    2 1   
     2    1    5 1   
     3    1    8 2   
     4    2   28 1   
     5    2   29 1   
     6    2   44 1   
     7    3    4 2   
     8    4    5 1   
     9    4    7 1   
    10    5   30 1   
    11    6   16 2   
    12    7   10 ar  
    13    7   13 ar  
    14    8   10 1   
    15    9   21 2   
    16   10   11 ar  
    17   11   12 ar  
    18   12   14 ar  
    19   12   16 1   
    20   13   14 ar  
    21   14   31 1   
    22   15   16 1   
    23   15   18 1   
    24   15   32 1   
    25   15   45 1   
    26   17   20 1   
    27   17   21 1   
    28   17   33 1   
    29   17   46 1   
    30   18   20 1   
    31   18   34 1   
    32   18   35 1   
    33   19   21 1   
    34   19   22 1   
    35   19   36 1   
    36   20   37 1   
    37   20   38 1   
    38   22   23 ar  
    39   22   27 ar  
    40   23   24 ar  
    41   23   39 1   
    42   24   25 ar  
    43   24   40 1   
    44   25   26 ar  
    45   25   41 1   
    46   26   27 ar  
    47   26   42 1   
    48   27   43 1   
@<TRIPOS>SUBSTRUCTURE
     1 1MX         1 TEMP              0 ****  ****    0 ROOT
