@<TRIPOS>MOLECULE
1MY
   52    54     1     0     0
SMALL
bcc


@<TRIPOS>ATOM
      1 C20        -0.0790   -0.5090    0.1150 ca        1 1MY     -0.128000
      2 C19         1.3060   -0.4040   -0.0350 ca        1 1MY      0.012400
      3 Cl2         2.0770   -1.2330   -1.3110 cl        1 1MY     -0.123400
      4 C18         2.0660    0.3720    0.8440 ca        1 1MY     -0.129000
      5 C17         1.4240    1.0500    1.8790 ca        1 1MY     -0.127000
      6 C16         0.0430    0.9500    2.0430 ca        1 1MY     -0.083000
      7 C10        -0.7130    0.1620    1.1680 ca        1 1MY     -0.059300
      8 C6         -2.2020    0.0740    1.2960 c3        1 1MY      0.174400
      9 O1         -2.6220    0.8400    2.4190 os        1 1MY     -0.395600
     10 C7         -4.0410    0.9920    2.4910 c3        1 1MY      0.089100
     11 C21        -4.5660    2.0550    1.5440 c3        1 1MY     -0.230400
     12 C22        -4.3910    3.4720    2.1440 c         1 1MY      0.921600
     13 O5         -4.3070    4.4280    1.3260 o         1 1MY     -0.834300
     14 O4         -4.3640    3.5870    3.4010 o         1 1MY     -0.834300
     15 C8         -4.7880   -0.3260    2.2740 c         1 1MY      0.667500
     16 O2         -5.9820   -0.4450    2.6140 o         1 1MY     -0.643500
     17 N1         -4.1540   -1.3960    1.6260 n         1 1MY     -0.489800
     18 C1         -4.9630   -2.5340    1.2260 c3        1 1MY      0.073700
     19 C3         -4.4650   -3.3070   -0.0010 c3        1 1MY     -0.082400
     20 C4         -4.4870   -2.4840   -1.2610 c3        1 1MY     -0.094100
     21 C2         -5.2520   -3.5440    2.3620 c3        1 1MY      0.111400
     22 O3         -4.2470   -4.5240    2.5150 oh        1 1MY     -0.614800
     23 C5         -2.7130   -1.3940    1.4710 c3        1 1MY      0.134000
     24 C9         -1.9750   -2.0910    2.5940 ca        1 1MY     -0.103300
     25 C11        -1.1730   -3.2020    2.3050 ca        1 1MY     -0.104500
     26 C12        -0.4680   -3.8500    3.3170 ca        1 1MY     -0.130000
     27 C13        -0.5720   -3.3880    4.6320 ca        1 1MY      0.017400
     28 Cl1         0.2860   -4.1790    5.8740 cl        1 1MY     -0.114400
     29 C14        -1.3730   -2.2840    4.9360 ca        1 1MY     -0.130000
     30 C15        -2.0720   -1.6410    3.9150 ca        1 1MY     -0.104500
     31 H1         -0.6690   -1.1110   -0.5920 ha        1 1MY      0.139000
     32 H2          3.1550    0.4530    0.7170 ha        1 1MY      0.137000
     33 H3          2.0120    1.6740    2.5690 ha        1 1MY      0.135000
     34 H4         -0.4660    1.5010    2.8530 ha        1 1MY      0.177000
     35 H5         -2.6610    0.4940    0.3510 h1        1 1MY      0.073700
     36 H6         -4.2050    1.3490    3.5580 h1        1 1MY      0.152700
     37 H7         -4.0460    2.0130    0.5570 hc        1 1MY      0.047200
     38 H8         -5.6620    1.8990    1.3810 hc        1 1MY      0.047200
     39 H10        -5.9780   -2.0960    0.9550 h1        1 1MY      0.080700
     40 H11        -3.4400   -3.7210    0.1880 hc        1 1MY      0.046700
     41 H12        -5.1460   -4.1930   -0.1220 hc        1 1MY      0.046700
     42 H13        -5.5170   -2.0980   -1.4600 hc        1 1MY      0.035033
     43 H14        -3.8000   -1.6070   -1.1870 hc        1 1MY      0.035033
     44 H15        -4.1690   -3.1070   -2.1320 hc        1 1MY      0.035033
     45 H16        -6.1720   -4.1310    2.0930 h1        1 1MY      0.053700
     46 H17        -5.4280   -3.0030    3.3290 h1        1 1MY      0.053700
     47 H18        -3.4320   -4.0630    2.7550 ho        1 1MY      0.406000
     48 H19        -2.4580   -1.9320    0.5070 h1        1 1MY      0.058700
     49 H20        -1.0910   -3.5680    1.2700 ha        1 1MY      0.152500
     50 H21         0.1640   -4.7180    3.0790 ha        1 1MY      0.144500
     51 H22        -1.4520   -1.9170    5.9700 ha        1 1MY      0.144500
     52 H23        -2.6890   -0.7530    4.1420 ha        1 1MY      0.152500
@<TRIPOS>BOND
     1    1    2 ar  
     2    1    7 ar  
     3    1   31 1   
     4    2    3 1   
     5    2    4 ar  
     6    4    5 ar  
     7    4   32 1   
     8    5    6 ar  
     9    5   33 1   
    10    6    7 ar  
    11    6   34 1   
    12    7    8 1   
    13    8    9 1   
    14    8   23 1   
    15    8   35 1   
    16    9   10 1   
    17   10   11 1   
    18   10   15 1   
    19   10   36 1   
    20   11   12 1   
    21   11   37 1   
    22   11   38 1   
    23   12   13 1   
    24   12   14 1   
    25   15   16 2   
    26   15   17 1   
    27   17   18 1   
    28   17   23 1   
    29   18   19 1   
    30   18   21 1   
    31   18   39 1   
    32   19   20 1   
    33   19   40 1   
    34   19   41 1   
    35   20   42 1   
    36   20   43 1   
    37   20   44 1   
    38   21   22 1   
    39   21   45 1   
    40   21   46 1   
    41   22   47 1   
    42   23   24 1   
    43   23   48 1   
    44   24   25 ar  
    45   24   30 ar  
    46   25   26 ar  
    47   25   49 1   
    48   26   27 ar  
    49   26   50 1   
    50   27   28 1   
    51   27   29 ar  
    52   29   30 ar  
    53   29   51 1   
    54   30   52 1   
@<TRIPOS>SUBSTRUCTURE
     1 1MY         1 TEMP              0 ****  ****    0 ROOT
