@<TRIPOS>MOLECULE
1MY
   52    54     1     0     0
SMALL
bcc


@<TRIPOS>ATOM
      1 C20        -0.0800   -0.5220    0.1080 ca        1 1MY     -0.128000
      2 C19         1.3040   -0.4240   -0.0450 ca        1 1MY      0.012400
      3 CL2         2.0690   -1.2580   -1.3220 cl        1 1MY     -0.123400
      4 C18         2.0700    0.3500    0.8310 ca        1 1MY     -0.129000
      5 C17         1.4340    1.0320    1.8660 ca        1 1MY     -0.127000
      6 C16         0.0530    0.9400    2.0340 ca        1 1MY     -0.083000
      7 C10        -0.7090    0.1540    1.1610 ca        1 1MY     -0.059300
      8 C6         -2.1980    0.0730    1.2920 c3        1 1MY      0.174400
      9 O1         -2.6130    0.8430    2.4150 os        1 1MY     -0.395600
     10 C7         -4.0300    1.0020    2.4900 c3        1 1MY      0.089100
     11 C21        -4.5520    2.0670    1.5420 c3        1 1MY     -0.230400
     12 C22        -4.3690    3.4830    2.1400 c         1 1MY      0.921600
     13 O5         -4.2820    4.4380    1.3220 o         1 1MY     -0.834300
     14 O4         -4.3390    3.6000    3.3970 o         1 1MY     -0.834300
     15 C8         -4.7850   -0.3120    2.2760 c         1 1MY      0.667500
     16 O2         -5.9780   -0.4250    2.6170 o         1 1MY     -0.643500
     17 N1         -4.1570   -1.3870    1.6280 n         1 1MY     -0.489800
     18 C1         -4.9720   -2.5210    1.2310 c3        1 1MY      0.073700
     19 C3         -4.4800   -3.2980    0.0040 c3        1 1MY     -0.082400
     20 C4         -4.5010   -2.4770   -1.2570 c3        1 1MY     -0.094100
     21 C2         -5.2640   -3.5280    2.3690 c3        1 1MY      0.111400
     22 O3         -4.2640   -4.5120    2.5220 oh        1 1MY     -0.614800
     23 C5         -2.7170   -1.3910    1.4700 c3        1 1MY      0.134000
     24 C9         -1.9800   -2.0910    2.5920 ca        1 1MY     -0.103300
     25 C11        -1.1830   -3.2060    2.3040 ca        1 1MY     -0.104500
     26 C12        -0.4800   -3.8570    3.3160 ca        1 1MY     -0.130000
     27 C13        -0.5800   -3.3920    4.6300 ca        1 1MY      0.017400
     28 CL1         0.2770   -4.1850    5.8710 cl        1 1MY     -0.114400
     29 C14        -1.3750   -2.2830    4.9340 ca        1 1MY     -0.130000
     30 C15        -2.0720   -1.6390    3.9130 ca        1 1MY     -0.104500
     31 H1         -0.6750   -1.1220   -0.5970 ha        1 1MY      0.139000
     32 H2          3.1600    0.4250    0.7020 ha        1 1MY      0.137000
     33 H3          2.0260    1.6540    2.5540 ha        1 1MY      0.135000
     34 H4         -0.4520    1.4940    2.8440 ha        1 1MY      0.177000
     35 H5         -2.6570    0.4950    0.3480 h1        1 1MY      0.073700
     36 H6         -4.1910    1.3610    3.5560 h1        1 1MY      0.152700
     37 H7         -4.0340    2.0210    0.5550 hc        1 1MY      0.047200
     38 H8         -5.6490    1.9160    1.3820 hc        1 1MY      0.047200
     39 H10        -5.9860   -2.0780    0.9610 h1        1 1MY      0.080700
     40 H11        -3.4570   -3.7170    0.1920 hc        1 1MY      0.046700
     41 H12        -5.1660   -4.1810   -0.1150 hc        1 1MY      0.046700
     42 H13        -4.1870   -3.1020   -2.1280 hc        1 1MY      0.035033
     43 H14        -5.5290   -2.0870   -1.4550 hc        1 1MY      0.035033
     44 H15        -3.8090   -1.6020   -1.1850 hc        1 1MY      0.035033
     45 H16        -6.1880   -4.1110    2.1030 h1        1 1MY      0.053700
     46 H17        -5.4360   -2.9850    3.3360 h1        1 1MY      0.053700
     47 H18        -3.4470   -4.0550    2.7600 ho        1 1MY      0.406000
     48 H19        -2.4660   -1.9320    0.5060 h1        1 1MY      0.058700
     49 H20        -1.1050   -3.5740    1.2690 ha        1 1MY      0.152500
     50 H21         0.1470   -4.7280    3.0780 ha        1 1MY      0.144500
     51 H22        -1.4490   -1.9150    5.9680 ha        1 1MY      0.144500
     52 H23        -2.6840   -0.7470    4.1400 ha        1 1MY      0.152500
@<TRIPOS>BOND
     1    1    2 ar  
     2    1    7 ar  
     3    1   31 1   
     4    2    3 1   
     5    2    4 ar  
     6    4    5 ar  
     7    4   32 1   
     8    5    6 ar  
     9    5   33 1   
    10    6    7 ar  
    11    6   34 1   
    12    7    8 1   
    13    8    9 1   
    14    8   23 1   
    15    8   35 1   
    16    9   10 1   
    17   10   11 1   
    18   10   15 1   
    19   10   36 1   
    20   11   12 1   
    21   11   37 1   
    22   11   38 1   
    23   12   13 1   
    24   12   14 1   
    25   15   16 2   
    26   15   17 1   
    27   17   18 1   
    28   17   23 1   
    29   18   19 1   
    30   18   21 1   
    31   18   39 1   
    32   19   20 1   
    33   19   40 1   
    34   19   41 1   
    35   20   42 1   
    36   20   43 1   
    37   20   44 1   
    38   21   22 1   
    39   21   45 1   
    40   21   46 1   
    41   22   47 1   
    42   23   24 1   
    43   23   48 1   
    44   24   25 ar  
    45   24   30 ar  
    46   25   26 ar  
    47   25   49 1   
    48   26   27 ar  
    49   26   50 1   
    50   27   28 1   
    51   27   29 ar  
    52   29   30 ar  
    53   29   51 1   
    54   30   52 1   
@<TRIPOS>SUBSTRUCTURE
     1 1MY         1 TEMP              0 ****  ****    0 ROOT
