@<TRIPOS>MOLECULE
1MY
   52    54     1     0     0
SMALL
bcc


@<TRIPOS>ATOM
      1 C20        -0.0720   -0.5020    0.1280 ca        1 1MY     -0.128000
      2 C19         1.3130   -0.4000   -0.0170 ca        1 1MY      0.012400
      3 CL2         2.0840   -1.2180   -1.3010 cl        1 1MY     -0.123400
      4 C18         2.0750    0.3630    0.8710 ca        1 1MY     -0.129000
      5 C17         1.4330    1.0320    1.9120 ca        1 1MY     -0.127000
      6 C16         0.0510    0.9360    2.0720 ca        1 1MY     -0.083000
      7 C10        -0.7050    0.1610    1.1870 ca        1 1MY     -0.059300
      8 C6         -2.1960    0.0780    1.3090 c3        1 1MY      0.175400
      9 O1         -2.6160    0.8330    2.4400 os        1 1MY     -0.395600
     10 C7         -4.0340    0.9910    2.5110 c3        1 1MY      0.089100
     11 C21        -4.5520    2.0670    1.5750 c3        1 1MY     -0.230400
     12 C22        -4.3720    3.4760    2.1910 c         1 1MY      0.921600
     13 O5         -4.2810    4.4410    1.3850 o         1 1MY     -0.834300
     14 O4         -4.3480    3.5770    3.4500 o         1 1MY     -0.834300
     15 C8         -4.7860   -0.3220    2.2770 c         1 1MY      0.667500
     16 O2         -5.9810   -0.4400    2.6110 o         1 1MY     -0.643500
     17 N1         -4.1550   -1.3870    1.6180 n         1 1MY     -0.489800
     18 C1         -4.9680   -2.5170    1.2040 c3        1 1MY      0.073700
     19 C3         -4.4690   -3.2810   -0.0290 c3        1 1MY     -0.082400
     20 C4         -4.4850   -2.4460   -1.2800 c3        1 1MY     -0.094100
     21 C2         -5.2650   -3.5370    2.3290 c3        1 1MY      0.111400
     22 O3         -4.2650   -4.5230    2.4760 oh        1 1MY     -0.614800
     23 C5         -2.7140   -1.3890    1.4660 c3        1 1MY      0.134000
     24 C9         -1.9820   -2.1030    2.5830 ca        1 1MY     -0.103300
     25 C11        -1.1840   -3.2140    2.2840 ca        1 1MY     -0.104500
     26 C12        -0.4840   -3.8770    3.2900 ca        1 1MY     -0.130000
     27 C13        -0.5890   -3.4290    4.6100 ca        1 1MY      0.017400
     28 CL1         0.2620   -4.2380    5.8440 cl        1 1MY     -0.114400
     29 C14        -1.3860   -2.3240    4.9240 ca        1 1MY     -0.130000
     30 C15        -2.0790   -1.6670    3.9090 ca        1 1MY     -0.104500
     31 H1         -0.6630   -1.0930   -0.5880 ha        1 1MY      0.139000
     32 H2          3.1650    0.4400    0.7480 ha        1 1MY      0.137000
     33 H3          2.0210    1.6460    2.6100 ha        1 1MY      0.135000
     34 H4         -0.4570    1.4810    2.8870 ha        1 1MY      0.177000
     35 H5         -2.6500    0.5110    0.3690 h1        1 1MY      0.073700
     36 H6         -4.1990    1.3360    3.5810 h1        1 1MY      0.152700
     37 H7         -5.6480    1.9170    1.4070 hc        1 1MY      0.047200
     38 H8         -4.0290    2.0330    0.5890 hc        1 1MY      0.047200
     39 H10        -5.9800   -2.0720    0.9340 h1        1 1MY      0.080700
     40 H11        -3.4460   -3.7000    0.1600 hc        1 1MY      0.046700
     41 H12        -5.1530   -4.1630   -0.1600 hc        1 1MY      0.046700
     42 H13        -3.7950   -1.5710   -1.1960 hc        1 1MY      0.035033
     43 H14        -5.5130   -2.0550   -1.4790 hc        1 1MY      0.035033
     44 H15        -4.1660   -3.0610   -2.1560 hc        1 1MY      0.035033
     45 H16        -5.4420   -3.0050    3.3020 h1        1 1MY      0.053700
     46 H17        -6.1870   -4.1170    2.0520 h1        1 1MY      0.053700
     47 H18        -3.4490   -4.0690    2.7230 ho        1 1MY      0.406000
     48 H19        -2.4590   -1.9170    0.4970 h1        1 1MY      0.058700
     49 H20        -1.1010   -3.5690    1.2450 ha        1 1MY      0.152500
     50 H21         0.1440   -4.7460    3.0440 ha        1 1MY      0.144500
     51 H22        -1.4650   -1.9690    5.9630 ha        1 1MY      0.144500
     52 H23        -2.6920   -0.7790    4.1450 ha        1 1MY      0.152500
@<TRIPOS>BOND
     1    1    2 ar  
     2    1    7 ar  
     3    1   31 1   
     4    2    3 1   
     5    2    4 ar  
     6    4    5 ar  
     7    4   32 1   
     8    5    6 ar  
     9    5   33 1   
    10    6    7 ar  
    11    6   34 1   
    12    7    8 1   
    13    8    9 1   
    14    8   23 1   
    15    8   35 1   
    16    9   10 1   
    17   10   11 1   
    18   10   15 1   
    19   10   36 1   
    20   11   12 1   
    21   11   37 1   
    22   11   38 1   
    23   12   13 1   
    24   12   14 1   
    25   15   16 2   
    26   15   17 1   
    27   17   18 1   
    28   17   23 1   
    29   18   19 1   
    30   18   21 1   
    31   18   39 1   
    32   19   20 1   
    33   19   40 1   
    34   19   41 1   
    35   20   42 1   
    36   20   43 1   
    37   20   44 1   
    38   21   22 1   
    39   21   45 1   
    40   21   46 1   
    41   22   47 1   
    42   23   24 1   
    43   23   48 1   
    44   24   25 ar  
    45   24   30 ar  
    46   25   26 ar  
    47   25   49 1   
    48   26   27 ar  
    49   26   50 1   
    50   27   28 1   
    51   27   29 ar  
    52   29   30 ar  
    53   29   51 1   
    54   30   52 1   
@<TRIPOS>SUBSTRUCTURE
     1 1MY         1 TEMP              0 ****  ****    0 ROOT
