@<TRIPOS>MOLECULE
1MY
   52    45     1     0     0
SMALL
bcc


@<TRIPOS>ATOM
      1 C20         3.0200    1.3740    0.6080 c1        1 1MY     -0.111333
      2 C19         4.4190    1.3860    0.6320 c1        1 1MY     -0.058000
      3 CL2         5.2600    1.9870    2.0340 cl        1 1MY     -0.033000
      4 C18         5.1350    1.0070   -0.4950 c1        1 1MY     -0.111333
      5 C17         4.4630    0.6150   -1.6470 c1        1 1MY     -0.132500
      6 C16         3.0670    0.6020   -1.6710 c1        1 1MY     -0.132500
      7 C10         2.3480    0.9820   -0.5420 c1        1 1MY     -0.058000
      8 C6          0.8420    1.0550   -0.5970 c2        1 1MY      0.056000
      9 O1          0.4040    1.9890    0.3670 os        1 1MY     -0.250000
     10 C7         -0.9570    2.0980    0.4800 c3        1 1MY      0.027000
     11 C21        -1.5880    2.9010   -0.8100 c3        1 1MY     -0.261000
     12 C22        -1.9100    4.3600   -0.4060 c1        1 1MY      0.342000
     13 O5         -1.3360    5.3170   -0.9970 os        1 1MY     -0.564000
     14 O4         -2.8160    4.5960    0.4460 o         1 1MY     -0.573000
     15 C8         -1.5680    0.7770    0.6660 c2        1 1MY      0.282000
     16 O2         -2.6450    0.6790    1.2320 o         1 1MY     -0.361000
     17 N1         -1.1770   -0.2020   -0.3000 n         1 1MY     -0.347000
     18 C1         -2.1040   -1.2690   -0.6770 c3        1 1MY     -0.010000
     19 C3         -3.5180   -0.7770   -0.5550 c3        1 1MY     -0.179000
     20 C4         -4.4200   -1.9190    0.0040 c3        1 1MY     -0.215000
     21 C2         -1.8380   -1.6840   -2.0960 c3        1 1MY     -0.038000
     22 O3         -2.6300   -2.8110   -2.4150 oh        1 1MY     -0.327000
     23 C5          0.2570   -0.4200   -0.4060 c3        1 1MY      0.053000
     24 C9          0.7730   -1.0250    0.7930 c2        1 1MY     -0.084000
     25 C11         1.5750   -2.1570    0.7090 c2        1 1MY     -0.119000
     26 C12         2.0640   -2.7520    1.8700 c1        1 1MY     -0.134000
     27 C13         1.7470   -2.2110    3.1180 c1        1 1MY     -0.058000
     28 CL1         2.3540   -2.9670    4.5810 cl        1 1MY     -0.033000
     29 C14         0.9460   -1.0800    3.2030 c1        1 1MY     -0.111333
     30 C15         0.4570   -0.4840    2.0410 c1        1 1MY     -0.085000
     31 H1          2.5140    1.6410    1.4030 ha        1 1MY      0.156333
     32 H2          6.1150    1.0160   -0.4790 ha        1 1MY      0.156333
     33 H3          4.9750    0.3430   -2.4510 ha        1 1MY      0.126000
     34 H4          2.5910    0.3240   -2.4860 ha        1 1MY      0.126000
     35 H5          0.5810    1.3780   -1.4790 h4        1 1MY      0.110000
     36 H6         -1.2060    2.7030    1.2220 h1        1 1MY      0.195000
     37 H7         -2.4030    2.4570   -1.0990 hc        1 1MY      0.086500
     38 H8         -0.9410    2.9020   -1.5410 hc        1 1MY      0.086500
     39 H10        -1.9750   -2.0320   -0.0880 h1        1 1MY      0.146000
     40 H11        -3.8460   -0.5030   -1.4410 hc        1 1MY      0.079000
     41 H12        -3.5450   -0.0150    0.0530 hc        1 1MY      0.079000
     42 H13        -5.3620   -1.6220    0.0090 hc        1 1MY      0.076333
     43 H14        -4.1400   -2.1400    0.9260 hc        1 1MY      0.076333
     44 H15        -4.3310   -2.7140   -0.5640 hc        1 1MY      0.076333
     45 H16        -2.0650   -0.9390   -2.7040 h1        1 1MY      0.091500
     46 H17        -0.8940   -1.9100   -2.1980 h1        1 1MY      0.091500
     47 H18        -2.1540   -3.3800   -2.9000 ho        1 1MY      0.191000
     48 H19         0.4610   -0.9700   -1.1820 h1        1 1MY      0.088000
     49 H20         1.7970   -2.5360   -0.1650 ha        1 1MY      0.128000
     50 H21         2.5890   -3.5790    1.8140 ha        1 1MY      0.137000
     51 H22         0.7240   -0.7000    4.0810 ha        1 1MY      0.156333
     52 H23        -0.1070    0.3120    2.0990 ha        1 1MY      0.169000
@<TRIPOS>BOND
     1    1    7 1   
     2    1   31 1   
     3    2    4 1   
     4    4   32 1   
     5    5    6 1   
     6    5   33 1   
     7    6   34 1   
     8    8    9 1   
     9    8   23 1   
    10    8   35 1   
    11    9   10 1   
    12   10   11 1   
    13   10   15 1   
    14   10   36 1   
    15   11   12 1   
    16   11   37 1   
    17   11   38 1   
    18   12   14 1   
    19   15   16 1   
    20   15   17 1   
    21   17   18 1   
    22   17   23 1   
    23   18   19 1   
    24   18   21 1   
    25   18   39 1   
    26   19   20 1   
    27   19   40 1   
    28   19   41 1   
    29   20   42 1   
    30   20   43 1   
    31   20   44 1   
    32   21   22 1   
    33   21   45 1   
    34   21   46 1   
    35   22   47 1   
    36   23   24 1   
    37   23   48 1   
    38   24   25 1   
    39   24   30 1   
    40   25   26 1   
    41   25   49 1   
    42   26   50 1   
    43   27   29 1   
    44   29   51 1   
    45   30   52 1   
@<TRIPOS>SUBSTRUCTURE
     1 1MY         1 TEMP              0 ****  ****    0 ROOT
