@<TRIPOS>MOLECULE
1MY
   52    54     1     0     0
SMALL
bcc


@<TRIPOS>ATOM
      1 C20         0.1020   -2.4000   -1.1080 ca        1 1MY     -0.128000
      2 C19        -0.4830   -3.6670   -1.0780 ca        1 1MY      0.012400
      3 CL2        -0.8390   -4.4620   -2.5460 cl        1 1MY     -0.123400
      4 C18        -0.7770   -4.2950    0.1350 ca        1 1MY     -0.129000
      5 C17        -0.4760   -3.6390    1.3270 ca        1 1MY     -0.127000
      6 C16         0.1040   -2.3710    1.3130 ca        1 1MY     -0.083000
      7 C10         0.3860   -1.7420    0.0950 ca        1 1MY     -0.059300
      8 C6          1.0500   -0.4010    0.0520 c3        1 1MY      0.174400
      9 O1          1.2530    0.0650    1.3810 os        1 1MY     -0.395600
     10 C7          2.0730    1.2330    1.4440 c3        1 1MY      0.089100
     11 C21         3.5510    0.9210    1.3080 c3        1 1MY     -0.230400
     12 C22         4.1460    0.4390    2.6540 c         1 1MY      0.921600
     13 O5          5.1650   -0.3010    2.5920 o         1 1MY     -0.834300
     14 O4          3.5950    0.8290    3.7220 o         1 1MY     -0.834300
     15 C8          1.6610    2.3000    0.4260 c         1 1MY      0.667500
     16 O2          2.0430    3.4800    0.5500 o         1 1MY     -0.643500
     17 N1          0.9020    1.9440   -0.6980 n         1 1MY     -0.489800
     18 C1          0.7370    2.9260   -1.7550 c3        1 1MY      0.073700
     19 C3          0.5380    2.3600   -3.1660 c3        1 1MY     -0.082400
     20 C4          1.7380    1.6010   -3.6670 c3        1 1MY     -0.094100
     21 C2         -0.3670    3.9770   -1.4850 c3        1 1MY      0.111400
     22 O3         -1.6520    3.5630   -1.8960 oh        1 1MY     -0.614800
     23 C5          0.2180    0.6670   -0.7320 c3        1 1MY      0.134000
     24 C9         -1.2060    0.7210   -0.2210 ca        1 1MY     -0.103300
     25 C11        -2.2580    0.3690   -1.0750 ca        1 1MY     -0.104500
     26 C12        -3.5770    0.3920   -0.6240 ca        1 1MY     -0.130000
     27 C13        -3.8460    0.7780    0.6930 ca        1 1MY      0.017400
     28 CL1        -5.4560    0.8100    1.2480 cl        1 1MY     -0.114400
     29 C14        -2.8060    1.1370    1.5550 ca        1 1MY     -0.130000
     30 C15        -1.4910    1.1080    1.0940 ca        1 1MY     -0.104500
     31 H1          0.3440   -1.9230   -2.0700 ha        1 1MY      0.139000
     32 H2         -1.2350   -5.2940    0.1500 ha        1 1MY      0.137000
     33 H3         -0.6920   -4.1280    2.2890 ha        1 1MY      0.135000
     34 H4          0.3580   -1.8600    2.2580 ha        1 1MY      0.177000
     35 H5          2.0470   -0.5180   -0.4690 h1        1 1MY      0.073700
     36 H6          1.8840    1.6210    2.4960 h1        1 1MY      0.152700
     37 H7          3.7310    0.1380    0.5320 hc        1 1MY      0.047200
     38 H8          4.1020    1.8500    1.0170 hc        1 1MY      0.047200
     39 H10         1.7100    3.5170   -1.7660 h1        1 1MY      0.080700
     40 H11        -0.3830    1.7210   -3.2040 hc        1 1MY      0.046700
     41 H12         0.3430    3.2370   -3.8410 hc        1 1MY      0.046700
     42 H13         2.6470    2.2510   -3.6540 hc        1 1MY      0.035033
     43 H14         1.9470    0.7050   -3.0330 hc        1 1MY      0.035033
     44 H15         1.5650    1.2570   -4.7150 hc        1 1MY      0.035033
     45 H16        -0.3720    4.2670   -0.4010 h1        1 1MY      0.053700
     46 H17        -0.1550    4.8860   -2.1100 h1        1 1MY      0.053700
     47 H18        -1.8810    2.7810   -1.3770 ho        1 1MY      0.406000
     48 H19         0.1830    0.3100   -1.8060 h1        1 1MY      0.058700
     49 H20        -2.0480    0.0660   -2.1120 ha        1 1MY      0.152500
     50 H21        -4.3960    0.1090   -1.3000 ha        1 1MY      0.144500
     51 H22        -3.0180    1.4370    2.5920 ha        1 1MY      0.144500
     52 H23        -0.6610    1.3670    1.7750 ha        1 1MY      0.152500
@<TRIPOS>BOND
     1    1    2 ar  
     2    1    7 ar  
     3    1   31 1   
     4    2    3 1   
     5    2    4 ar  
     6    4    5 ar  
     7    4   32 1   
     8    5    6 ar  
     9    5   33 1   
    10    6    7 ar  
    11    6   34 1   
    12    7    8 1   
    13    8    9 1   
    14    8   23 1   
    15    8   35 1   
    16    9   10 1   
    17   10   11 1   
    18   10   15 1   
    19   10   36 1   
    20   11   12 1   
    21   11   37 1   
    22   11   38 1   
    23   12   13 1   
    24   12   14 1   
    25   15   16 2   
    26   15   17 1   
    27   17   18 1   
    28   17   23 1   
    29   18   19 1   
    30   18   21 1   
    31   18   39 1   
    32   19   20 1   
    33   19   40 1   
    34   19   41 1   
    35   20   42 1   
    36   20   43 1   
    37   20   44 1   
    38   21   22 1   
    39   21   45 1   
    40   21   46 1   
    41   22   47 1   
    42   23   24 1   
    43   23   48 1   
    44   24   25 ar  
    45   24   30 ar  
    46   25   26 ar  
    47   25   49 1   
    48   26   27 ar  
    49   26   50 1   
    50   27   28 1   
    51   27   29 ar  
    52   29   30 ar  
    53   29   51 1   
    54   30   52 1   
@<TRIPOS>SUBSTRUCTURE
     1 1MY         1 TEMP              0 ****  ****    0 ROOT
