@<TRIPOS>MOLECULE
1MZ
   13     8     1     0     0
SMALL
bcc


@<TRIPOS>ATOM
      1 N1         -0.2630    0.0020   -0.3570 n2        1 1MZ     -0.107500
      2 C2          1.0930    0.0020   -0.3570 c1        1 1MZ      0.026000
      3 N3          1.5120    0.0020    0.9320 n2        1 1MZ     -0.107500
      4 C4          0.4320    0.0020    1.7180 c1        1 1MZ     -0.087500
      5 C5         -0.6760    0.0020    0.9140 c1        1 1MZ     -0.087500
      6 CM1        -1.0990   -0.0030   -1.5090 c2        1 1MZ     -0.106000
      7 H2          1.6660    0.0020   -1.1470 DU        1 1MZ      0.263250
      8 HN3         2.3800    0.0020    1.2130 DU        1 1MZ      0.263250
      9 H4          0.4320    0.0020    2.6940 DU        1 1MZ      0.263250
     10 H5         -1.6040    0.0020    1.2150 DU        1 1MZ      0.263250
     11 HM11       -1.8470    0.6100   -1.3710 ha        1 1MZ      0.139000
     12 HM12       -1.4420   -0.9040   -1.6590 ha        1 1MZ      0.139000
     13 HM13       -0.5840    0.2830   -2.2870 ha        1 1MZ      0.139000
@<TRIPOS>BOND
     1    1    2 1   
     2    1    5 1   
     3    2    3 1   
     4    3    4 1   
     5    4    5 1   
     6    6   11 1   
     7    6   12 1   
     8    6   13 1   
@<TRIPOS>SUBSTRUCTURE
     1 1MZ         1 TEMP              0 ****  ****    0 ROOT
