@<TRIPOS>MOLECULE
1MZ
   13    13     1     0     0
SMALL
bcc


@<TRIPOS>ATOM
      1 N1         -0.0110   -0.0030   -0.0220 na        1 1MZ     -0.012100
      2 C2          1.3630   -0.0320   -0.0340 cc        1 1MZ     -0.022600
      3 N3          1.8110   -0.0230    1.2650 na        1 1MZ     -0.136100
      4 C4          0.7030    0.0130    2.1230 cc        1 1MZ     -0.105300
      5 C5         -0.4420    0.0260    1.3160 cd        1 1MZ     -0.118300
      6 CM1        -0.8700    0.0030   -1.1760 c3        1 1MZ     -0.007400
      7 H2          2.0010   -0.0590   -0.9360 h5        1 1MZ      0.262000
      8 HN3         2.7670   -0.0400    1.5470 hn        1 1MZ      0.363700
      9 H4          0.8010    0.0260    3.2150 h4        1 1MZ      0.239000
     10 H5         -1.5020    0.0520    1.5910 h4        1 1MZ      0.238000
     11 HM11       -1.4590    0.9610   -1.1950 h1        1 1MZ      0.099700
     12 HM12       -0.2550   -0.0780   -2.1120 h1        1 1MZ      0.099700
     13 HM13       -1.5770   -0.8700   -1.1140 h1        1 1MZ      0.099700
@<TRIPOS>BOND
     1    1    2 2   
     2    1    5 1   
     3    1    6 1   
     4    2    3 1   
     5    2    7 1   
     6    3    4 1   
     7    3    8 1   
     8    4    5 2   
     9    4    9 1   
    10    5   10 1   
    11    6   11 1   
    12    6   12 1   
    13    6   13 1   
@<TRIPOS>SUBSTRUCTURE
     1 1MZ         1 TEMP              0 ****  ****    0 ROOT
