@<TRIPOS>MOLECULE
1MZ
   13    13     1     0     0
SMALL
bcc


@<TRIPOS>ATOM
      1 N1         -0.0130   -0.0020   -0.0210 na        1 1MZ     -0.012100
      2 C2          1.3620   -0.0310   -0.0380 cc        1 1MZ     -0.022600
      3 N3          1.8150   -0.0240    1.2600 na        1 1MZ     -0.136100
      4 C4          0.7100    0.0120    2.1210 cc        1 1MZ     -0.105300
      5 C5         -0.4390    0.0260    1.3190 cd        1 1MZ     -0.118300
      6 CM1        -0.8760    0.0030   -1.1720 c3        1 1MZ     -0.007400
      7 H2          1.9960   -0.0580   -0.9420 h5        1 1MZ      0.262000
      8 HN3         2.7720   -0.0410    1.5380 hn        1 1MZ      0.363700
      9 H4          0.8120    0.0250    3.2130 h4        1 1MZ      0.239000
     10 H5         -1.4980    0.0530    1.5980 h4        1 1MZ      0.238000
     11 HM11       -1.4890    0.9460   -1.1710 h1        1 1MZ      0.099700
     12 HM12       -0.2630   -0.0450   -2.1110 h1        1 1MZ      0.099700
     13 HM13       -1.5610   -0.8890   -1.1240 h1        1 1MZ      0.099700
@<TRIPOS>BOND
     1    1    2 2   
     2    1    5 1   
     3    1    6 1   
     4    2    3 1   
     5    2    7 1   
     6    3    4 1   
     7    3    8 1   
     8    4    5 2   
     9    4    9 1   
    10    5   10 1   
    11    6   11 1   
    12    6   12 1   
    13    6   13 1   
@<TRIPOS>SUBSTRUCTURE
     1 1MZ         1 TEMP              0 ****  ****    0 ROOT
