@<TRIPOS>MOLECULE
1MZ
   13    13     1     0     0
SMALL
bcc


@<TRIPOS>ATOM
      1 N1          0.7090    0.0020   -0.0020 na        1 1MZ     -0.012100
      2 C2         -0.1210   -1.0910   -0.0890 cc        1 1MZ     -0.022600
      3 N3         -1.4230   -0.6530   -0.0560 na        1 1MZ     -0.136100
      4 C4         -1.4260    0.7440    0.0550 cc        1 1MZ     -0.105300
      5 C5         -0.0880    1.1570    0.0890 cd        1 1MZ     -0.118300
      6 CM1         2.1470   -0.0230    0.0020 c3        1 1MZ     -0.007400
      7 H2          0.2040   -2.1430   -0.1720 h5        1 1MZ      0.262000
      8 HN3        -2.2310   -1.2370   -0.1030 hn        1 1MZ      0.363700
      9 H4         -2.3500    1.3310    0.1000 h4        1 1MZ      0.239000
     10 H5          0.3420    2.1620    0.1680 h4        1 1MZ      0.238000
     11 HM11        2.5300    0.6330   -0.8280 h1        1 1MZ      0.099700
     12 HM12        2.5220    0.3650    0.9890 h1        1 1MZ      0.099700
     13 HM13        2.5120   -1.0740   -0.1520 h1        1 1MZ      0.099700
@<TRIPOS>BOND
     1    1    2 2   
     2    1    5 1   
     3    1    6 1   
     4    2    3 1   
     5    2    7 1   
     6    3    4 1   
     7    3    8 1   
     8    4    5 2   
     9    4    9 1   
    10    5   10 1   
    11    6   11 1   
    12    6   12 1   
    13    6   13 1   
@<TRIPOS>SUBSTRUCTURE
     1 1MZ         1 TEMP              0 ****  ****    0 ROOT
