@<TRIPOS>MOLECULE
1N0
   40    41     1     0     0
SMALL
bcc


@<TRIPOS>ATOM
      1 O20        -0.0180   -0.0040    0.1330 o         1 1N0     -0.584500
      2 C15         1.2160   -0.0180    0.1160 c         1 1N0      0.698500
      3 C16         2.1360   -0.0670    1.3330 c3        1 1N0     -0.163400
      4 C17         3.5530   -0.0720    0.7650 c3        1 1N0     -0.163400
      5 C18         3.3770   -0.0250   -0.7510 c         1 1N0      0.698500
      6 O19         4.2810   -0.0180   -1.5910 o         1 1N0     -0.584500
      7 N14         2.0000   -0.0060   -1.0580 n         1 1N0     -0.514400
      8 C13         1.4660    0.0740   -2.3900 c3        1 1N0      0.100000
      9 C12         1.2590    1.4960   -2.9130 c3        1 1N0     -0.101400
     10 C11         0.6960    1.4460   -4.3180 c3        1 1N0     -0.076400
     11 C10         0.4790    2.8410   -4.8640 c3        1 1N0     -0.076400
     12 C9         -0.0830    2.7910   -6.2690 c3        1 1N0     -0.101400
     13 C8         -0.2900    4.2130   -6.7920 c3        1 1N0      0.100000
     14 N4         -0.8230    4.2930   -8.1250 n         1 1N0     -0.514400
     15 C3         -2.2000    4.3090   -8.4340 c         1 1N0      0.698500
     16 O7         -3.1060    4.2990   -7.5940 o         1 1N0     -0.584500
     17 C2         -2.3750    4.3570   -9.9490 c3        1 1N0     -0.163400
     18 C5         -0.0380    4.3090   -9.2980 c         1 1N0      0.698500
     19 O6          1.1960    4.2980   -9.3140 o         1 1N0     -0.584500
     20 C1         -0.9570    4.3570  -10.5160 c3        1 1N0     -0.163400
     21 H1          1.9170   -0.9890    1.9270 hc        1 1N0      0.089200
     22 H2          4.1440    0.8170    1.0970 hc        1 1N0      0.089200
     23 H3          2.1790   -0.4670   -3.0770 h1        1 1N0      0.068700
     24 H4          0.4730   -0.4640   -2.3930 h1        1 1N0      0.068700
     25 H5          2.2340    2.0500   -2.9160 hc        1 1N0      0.052700
     26 H6          0.5530    2.0530   -2.2430 hc        1 1N0      0.052700
     27 H7          1.4000    0.8850   -4.9870 hc        1 1N0      0.044700
     28 H8         -0.2780    0.8880   -4.3150 hc        1 1N0      0.044700
     29 H9         -0.2260    3.4020   -4.1950 hc        1 1N0      0.044700
     30 H10         1.4530    3.3990   -4.8660 hc        1 1N0      0.044700
     31 H11         0.6230    2.2350   -6.9390 hc        1 1N0      0.052700
     32 H12        -1.0580    2.2370   -6.2670 hc        1 1N0      0.052700
     33 H13         0.7020    4.7520   -6.7880 h1        1 1N0      0.068700
     34 H14        -1.0050    4.7530   -6.1050 h1        1 1N0      0.068700
     35 H15        -2.9620    3.4670  -10.2830 hc        1 1N0      0.089200
     36 H16        -0.7610    3.4660  -11.1620 hc        1 1N0      0.089200
     37 H17         1.9440    0.8240    1.9790 hc        1 1N0      0.089200
     38 H18         4.1160   -0.9960    1.0440 hc        1 1N0      0.089200
     39 H19        -2.9400    5.2800  -10.2280 hc        1 1N0      0.089200
     40 H20        -0.7390    5.2790  -11.1080 hc        1 1N0      0.089200
@<TRIPOS>BOND
     1    1    2 2   
     2    2    3 1   
     3    2    7 1   
     4    3    4 1   
     5    3   21 1   
     6    3   37 1   
     7    4    5 1   
     8    4   22 1   
     9    4   38 1   
    10    5    6 2   
    11    5    7 1   
    12    7    8 1   
    13    8    9 1   
    14    8   23 1   
    15    8   24 1   
    16    9   10 1   
    17    9   25 1   
    18    9   26 1   
    19   10   11 1   
    20   10   27 1   
    21   10   28 1   
    22   11   12 1   
    23   11   29 1   
    24   11   30 1   
    25   12   13 1   
    26   12   31 1   
    27   12   32 1   
    28   13   14 1   
    29   13   33 1   
    30   13   34 1   
    31   14   15 1   
    32   14   18 1   
    33   15   16 2   
    34   15   17 1   
    35   17   20 1   
    36   17   35 1   
    37   17   39 1   
    38   18   19 2   
    39   18   20 1   
    40   20   36 1   
    41   20   40 1   
@<TRIPOS>SUBSTRUCTURE
     1 1N0         1 TEMP              0 ****  ****    0 ROOT
