@<TRIPOS>MOLECULE
1N0
   40    38     1     0     0
SMALL
bcc


@<TRIPOS>ATOM
      1 O20         2.3830   -3.1580    3.1420 o         1 1N0     -0.309000
      2 C15         1.3270   -3.2260    3.7570 c1        1 1N0      0.306000
      3 C16         1.1110   -3.9250    5.1290 c2        1 1N0     -0.192000
      4 C17        -0.3430   -3.5250    5.5120 c3        1 1N0     -0.192000
      5 C18        -0.6930   -2.5050    4.5160 c1        1 1N0      0.306000
      6 O19        -1.6090   -1.7130    4.5990 o         1 1N0     -0.309000
      7 N14         0.1220   -2.7480    3.3360 n2        1 1N0     -0.343000
      8 C13        -0.2400   -2.4250    1.9580 c3        1 1N0     -0.016000
      9 C12         0.1170   -0.9410    1.6620 c3        1 1N0     -0.180000
     10 C11        -0.1860   -0.6280    0.1890 c3        1 1N0     -0.155000
     11 C10         0.1050    0.8640   -0.0950 c3        1 1N0     -0.155000
     12 C9         -0.0830    1.1460   -1.5910 c3        1 1N0     -0.180000
     13 C8          0.0420    2.6710   -1.8500 c3        1 1N0     -0.016000
     14 N4         -0.1320    2.9370   -3.2640 n         1 1N0     -0.343000
     15 C3         -1.1630    3.3100   -3.8050 c2        1 1N0      0.306000
     16 O7         -2.1580    3.7140   -3.2460 o         1 1N0     -0.309000
     17 C2         -1.0350    2.9200   -5.3930 c3        1 1N0     -0.192000
     18 C5          0.9630    3.1700   -4.2560 c1        1 1N0      0.306000
     19 O6          2.1470    3.0010   -4.0630 o         1 1N0     -0.309000
     20 C1          0.2570    3.3050   -5.6720 c2        1 1N0     -0.192000
     21 H1          1.8340   -3.7760    5.7860 ha        1 1N0      0.128500
     22 H2         -0.8920   -4.3260    5.6090 hc        1 1N0      0.128500
     23 H3          0.2570   -3.0110    1.3420 h1        1 1N0      0.108000
     24 H4         -1.2050   -2.5610    1.8320 h1        1 1N0      0.108000
     25 H5         -0.4160   -0.3570    2.2360 hc        1 1N0      0.092000
     26 H6          1.0690   -0.7930    1.8390 hc        1 1N0      0.092000
     27 H7         -1.1190   -0.8160    0.0040 hc        1 1N0      0.084000
     28 H8          0.3780   -1.1850   -0.3850 hc        1 1N0      0.084000
     29 H9          1.0360    1.0740    0.1660 hc        1 1N0      0.084000
     30 H10        -0.5100    1.4190    0.4210 hc        1 1N0      0.084000
     31 H11         0.6030    0.6710   -2.1010 hc        1 1N0      0.092000
     32 H12        -0.9660    0.8400   -1.8710 hc        1 1N0      0.092000
     33 H13        -0.6500    3.1470   -1.3400 h1        1 1N0      0.108000
     34 H14         0.9260    2.9780   -1.5660 h1        1 1N0      0.108000
     35 H15        -1.3550    2.0170   -5.6300 hc        1 1N0      0.128500
     36 H16         0.3030    4.2130   -6.0270 ha        1 1N0      0.128500
     37 H17         1.1460   -4.9080    5.0300 ha        1 1N0      0.128500
     38 H18        -0.4250   -3.1220    6.4060 hc        1 1N0      0.128500
     39 H19        -1.6290    3.4750   -5.9330 hc        1 1N0      0.128500
     40 H20         0.6870    2.7770   -6.3830 ha        1 1N0      0.128500
@<TRIPOS>BOND
     1    1    2 1   
     2    2    7 1   
     3    3    4 1   
     4    3   21 1   
     5    3   37 1   
     6    4    5 1   
     7    4   22 1   
     8    4   38 1   
     9    5    6 1   
    10    7    8 1   
    11    8    9 1   
    12    8   23 1   
    13    8   24 1   
    14    9   10 1   
    15    9   25 1   
    16    9   26 1   
    17   10   11 1   
    18   10   27 1   
    19   10   28 1   
    20   11   12 1   
    21   11   29 1   
    22   11   30 1   
    23   12   13 1   
    24   12   31 1   
    25   12   32 1   
    26   13   14 1   
    27   13   33 1   
    28   13   34 1   
    29   14   15 1   
    30   14   18 1   
    31   15   16 1   
    32   15   17 1   
    33   17   20 1   
    34   17   35 1   
    35   17   39 1   
    36   18   19 1   
    37   20   36 1   
    38   20   40 1   
@<TRIPOS>SUBSTRUCTURE
     1 1N0         1 TEMP              0 ****  ****    0 ROOT
