@<TRIPOS>MOLECULE
1N0
   40    41     1     0     0
SMALL
bcc


@<TRIPOS>ATOM
      1 O20         4.6810   -2.3160   -0.2060 o         1 1N0     -0.584500
      2 C15         5.0870   -1.1640   -0.0290 c         1 1N0      0.698500
      3 C16         6.4430   -0.7620    0.5450 c3        1 1N0     -0.163400
      4 C17         6.4430    0.7650    0.5440 c3        1 1N0     -0.163400
      5 C18         5.0870    1.1650   -0.0310 c         1 1N0      0.698500
      6 O19         4.6800    2.3170   -0.2090 o         1 1N0     -0.584500
      7 N14         4.3570    0.0000   -0.3520 n         1 1N0     -0.514400
      8 C13         3.0210   -0.0000   -0.8830 c3        1 1N0      0.100000
      9 C12         1.9120    0.0000    0.1720 c3        1 1N0     -0.101400
     10 C11         0.5610   -0.0000   -0.5100 c3        1 1N0     -0.076400
     11 C10        -0.5600    0.0000    0.5080 c3        1 1N0     -0.076400
     12 C9         -1.9110   -0.0000   -0.1730 c3        1 1N0     -0.101400
     13 C8         -3.0190    0.0000    0.8810 c3        1 1N0      0.100000
     14 N4         -4.3560   -0.0000    0.3500 n         1 1N0     -0.514400
     15 C3         -5.0860   -1.1650    0.0290 c         1 1N0      0.698500
     16 O7         -4.6790   -2.3170    0.2070 o         1 1N0     -0.584500
     17 C2         -6.4420   -0.7650   -0.5460 c3        1 1N0     -0.163400
     18 C5         -5.0860    1.1640    0.0270 c         1 1N0      0.698500
     19 O6         -4.6790    2.3160    0.2040 o         1 1N0     -0.584500
     20 C1         -6.4420    0.7620   -0.5470 c3        1 1N0     -0.163400
     21 H1          6.5480   -1.1830    1.5750 hc        1 1N0      0.089200
     22 H2          6.5470    1.1870    1.5740 hc        1 1N0      0.089200
     23 H3          2.9090    0.9180   -1.5290 h1        1 1N0      0.068700
     24 H4          2.9100   -0.9200   -1.5280 h1        1 1N0      0.068700
     25 H5          2.0060   -0.9040    0.8270 hc        1 1N0      0.052700
     26 H6          2.0060    0.9060    0.8260 hc        1 1N0      0.052700
     27 H7          0.4690    0.9030   -1.1700 hc        1 1N0      0.044700
     28 H8          0.4690   -0.9050   -1.1680 hc        1 1N0      0.044700
     29 H9         -0.4680   -0.9030    1.1680 hc        1 1N0      0.044700
     30 H10        -0.4680    0.9050    1.1670 hc        1 1N0      0.044700
     31 H11        -2.0050    0.9040   -0.8290 hc        1 1N0      0.052700
     32 H12        -2.0040   -0.9060   -0.8280 hc        1 1N0      0.052700
     33 H13        -2.9080   -0.9180    1.5270 h1        1 1N0      0.068700
     34 H14        -2.9090    0.9200    1.5260 h1        1 1N0      0.068700
     35 H15        -6.5460   -1.1870   -1.5750 hc        1 1N0      0.089200
     36 H16        -6.5460    1.1830   -1.5770 hc        1 1N0      0.089200
     37 H17         7.2570   -1.1840   -0.0940 hc        1 1N0      0.089200
     38 H18         7.2560    1.1860   -0.0960 hc        1 1N0      0.089200
     39 H19        -7.2550   -1.1860    0.0940 hc        1 1N0      0.089200
     40 H20        -7.2550    1.1840    0.0920 hc        1 1N0      0.089200
@<TRIPOS>BOND
     1    1    2 2   
     2    2    3 1   
     3    2    7 1   
     4    3    4 1   
     5    3   21 1   
     6    3   37 1   
     7    4    5 1   
     8    4   22 1   
     9    4   38 1   
    10    5    6 2   
    11    5    7 1   
    12    7    8 1   
    13    8    9 1   
    14    8   23 1   
    15    8   24 1   
    16    9   10 1   
    17    9   25 1   
    18    9   26 1   
    19   10   11 1   
    20   10   27 1   
    21   10   28 1   
    22   11   12 1   
    23   11   29 1   
    24   11   30 1   
    25   12   13 1   
    26   12   31 1   
    27   12   32 1   
    28   13   14 1   
    29   13   33 1   
    30   13   34 1   
    31   14   15 1   
    32   14   18 1   
    33   15   16 2   
    34   15   17 1   
    35   17   20 1   
    36   17   35 1   
    37   17   39 1   
    38   18   19 2   
    39   18   20 1   
    40   20   36 1   
    41   20   40 1   
@<TRIPOS>SUBSTRUCTURE
     1 1N0         1 TEMP              0 ****  ****    0 ROOT
