@<TRIPOS>MOLECULE
1N0
   40    41     1     0     0
SMALL
bcc


@<TRIPOS>ATOM
      1 O20        -0.0210   -0.0170    0.1250 o         1 1N0     -0.584500
      2 C15         1.2140   -0.0300    0.1110 c         1 1N0      0.698500
      3 C16         2.1310   -0.0810    1.3300 c3        1 1N0     -0.163400
      4 C17         3.5490   -0.0820    0.7640 c3        1 1N0     -0.163400
      5 C18         3.3770   -0.0320   -0.7510 c         1 1N0      0.698500
      6 O19         4.2830   -0.0220   -1.5900 o         1 1N0     -0.584500
      7 N14         2.0000   -0.0140   -1.0610 n         1 1N0     -0.514400
      8 C13         1.4680    0.0680   -2.3950 c3        1 1N0      0.100000
      9 C12         1.2580    1.4920   -2.9140 c3        1 1N0     -0.101400
     10 C11         0.6980    1.4430   -4.3200 c3        1 1N0     -0.076400
     11 C10         0.4780    2.8390   -4.8630 c3        1 1N0     -0.076400
     12 C9         -0.0820    2.7910   -6.2690 c3        1 1N0     -0.101400
     13 C8         -0.2910    4.2150   -6.7880 c3        1 1N0      0.100000
     14 N4         -0.8230    4.2970   -8.1220 n         1 1N0     -0.514400
     15 C3         -2.2000    4.3170   -8.4320 c         1 1N0      0.698500
     16 O7         -3.1050    4.3110   -7.5930 o         1 1N0     -0.584500
     17 C2         -2.3720    4.3660   -9.9470 c3        1 1N0     -0.163400
     18 C5         -0.0370    4.3090   -9.2940 c         1 1N0      0.698500
     19 O6          1.1980    4.2930   -9.3090 o         1 1N0     -0.584500
     20 C1         -0.9540    4.3610  -10.5130 c3        1 1N0     -0.163400
     21 H1          1.9360    0.8090    1.9770 hc        1 1N0      0.089200
     22 H2          4.1380    0.8060    1.1000 hc        1 1N0      0.089200
     23 H3          0.4780   -0.4720   -2.4020 h1        1 1N0      0.068700
     24 H4          2.1850   -0.4690   -3.0820 h1        1 1N0      0.068700
     25 H5          0.5500    2.0440   -2.2430 hc        1 1N0      0.052700
     26 H6          2.2320    2.0480   -2.9140 hc        1 1N0      0.052700
     27 H7         -0.2740    0.8830   -4.3210 hc        1 1N0      0.044700
     28 H8          1.4050    0.8860   -4.9900 hc        1 1N0      0.044700
     29 H9          1.4510    3.4000   -4.8620 hc        1 1N0      0.044700
     30 H10        -0.2280    3.3970   -4.1930 hc        1 1N0      0.044700
     31 H11        -1.0560    2.2350   -6.2690 hc        1 1N0      0.052700
     32 H12         0.6260    2.2380   -6.9390 hc        1 1N0      0.052700
     33 H13        -1.0070    4.7520   -6.1020 h1        1 1N0      0.068700
     34 H14         0.7000    4.7540   -6.7820 h1        1 1N0      0.068700
     35 H15        -2.9630    3.4780  -10.2810 hc        1 1N0      0.089200
     36 H16        -0.7610    3.4690  -11.1590 hc        1 1N0      0.089200
     37 H17         1.9110   -1.0040    1.9210 hc        1 1N0      0.089200
     38 H18         4.1130   -1.0060    1.0430 hc        1 1N0      0.089200
     39 H19        -2.9340    5.2910  -10.2270 hc        1 1N0      0.089200
     40 H20        -0.7320    5.2820  -11.1050 hc        1 1N0      0.089200
@<TRIPOS>BOND
     1    1    2 2   
     2    2    3 1   
     3    2    7 1   
     4    3    4 1   
     5    3   21 1   
     6    3   37 1   
     7    4    5 1   
     8    4   22 1   
     9    4   38 1   
    10    5    6 2   
    11    5    7 1   
    12    7    8 1   
    13    8    9 1   
    14    8   23 1   
    15    8   24 1   
    16    9   10 1   
    17    9   25 1   
    18    9   26 1   
    19   10   11 1   
    20   10   27 1   
    21   10   28 1   
    22   11   12 1   
    23   11   29 1   
    24   11   30 1   
    25   12   13 1   
    26   12   31 1   
    27   12   32 1   
    28   13   14 1   
    29   13   33 1   
    30   13   34 1   
    31   14   15 1   
    32   14   18 1   
    33   15   16 2   
    34   15   17 1   
    35   17   20 1   
    36   17   35 1   
    37   17   39 1   
    38   18   19 2   
    39   18   20 1   
    40   20   36 1   
    41   20   40 1   
@<TRIPOS>SUBSTRUCTURE
     1 1N0         1 TEMP              0 ****  ****    0 ROOT
