@<TRIPOS>MOLECULE
1N0
   40    41     1     0     0
SMALL
bcc


@<TRIPOS>ATOM
      1 O20        -0.0200   -0.0200    0.1280 o         1 1N0     -0.584500
      2 C15         1.2150   -0.0330    0.1110 c         1 1N0      0.698500
      3 C16         2.1340   -0.0840    1.3290 c3        1 1N0     -0.163400
      4 C17         3.5520   -0.0860    0.7610 c3        1 1N0     -0.163400
      5 C18         3.3760   -0.0350   -0.7540 c         1 1N0      0.698500
      6 O19         4.2810   -0.0240   -1.5950 o         1 1N0     -0.584500
      7 N14         1.9990   -0.0170   -1.0620 n         1 1N0     -0.514400
      8 C13         1.4660    0.0660   -2.3950 c3        1 1N0      0.100000
      9 C12         1.2600    1.4900   -2.9150 c3        1 1N0     -0.101400
     10 C11         0.6970    1.4430   -4.3200 c3        1 1N0     -0.076400
     11 C10         0.4810    2.8400   -4.8640 c3        1 1N0     -0.076400
     12 C9         -0.0820    2.7920   -6.2680 c3        1 1N0     -0.101400
     13 C8         -0.2870    4.2160   -6.7880 c3        1 1N0      0.100000
     14 N4         -0.8220    4.2990   -8.1210 n         1 1N0     -0.514400
     15 C3         -2.2000    4.3210   -8.4270 c         1 1N0      0.698500
     16 O7         -3.1030    4.3140   -7.5870 o         1 1N0     -0.584500
     17 C2         -2.3760    4.3700   -9.9430 c3        1 1N0     -0.163400
     18 C5         -0.0390    4.3110   -9.2950 c         1 1N0      0.698500
     19 O6          1.1960    4.2950   -9.3130 o         1 1N0     -0.584500
     20 C1         -0.9590    4.3640  -10.5120 c3        1 1N0     -0.163400
     21 H1          1.9400    0.8050    1.9770 hc        1 1N0      0.089200
     22 H2          4.1160   -1.0100    1.0380 hc        1 1N0      0.089200
     23 H3          0.4730   -0.4700   -2.4000 h1        1 1N0      0.068700
     24 H4          2.1790   -0.4730   -3.0830 h1        1 1N0      0.068700
     25 H5          0.5540    2.0460   -2.2430 hc        1 1N0      0.052700
     26 H6          2.2350    2.0430   -2.9170 hc        1 1N0      0.052700
     27 H7          1.4000    0.8830   -4.9900 hc        1 1N0      0.044700
     28 H8         -0.2780    0.8860   -4.3180 hc        1 1N0      0.044700
     29 H9         -0.2220    3.4000   -4.1930 hc        1 1N0      0.044700
     30 H10         1.4560    3.3960   -4.8660 hc        1 1N0      0.044700
     31 H11         0.6230    2.2360   -6.9400 hc        1 1N0      0.052700
     32 H12        -1.0580    2.2400   -6.2660 hc        1 1N0      0.052700
     33 H13        -1.0000    4.7560   -6.1000 h1        1 1N0      0.068700
     34 H14         0.7060    4.7520   -6.7850 h1        1 1N0      0.068700
     35 H15        -2.9380    5.2950  -10.2210 hc        1 1N0      0.089200
     36 H16        -0.7380    5.2850  -11.1040 hc        1 1N0      0.089200
     37 H17         1.9150   -1.0080    1.9190 hc        1 1N0      0.089200
     38 H18         4.1410    0.8030    1.0950 hc        1 1N0      0.089200
     39 H19        -2.9680    3.4830  -10.2750 hc        1 1N0      0.089200
     40 H20        -0.7680    3.4730  -11.1590 hc        1 1N0      0.089200
@<TRIPOS>BOND
     1    1    2 2   
     2    2    3 1   
     3    2    7 1   
     4    3    4 1   
     5    3   21 1   
     6    3   37 1   
     7    4    5 1   
     8    4   22 1   
     9    4   38 1   
    10    5    6 2   
    11    5    7 1   
    12    7    8 1   
    13    8    9 1   
    14    8   23 1   
    15    8   24 1   
    16    9   10 1   
    17    9   25 1   
    18    9   26 1   
    19   10   11 1   
    20   10   27 1   
    21   10   28 1   
    22   11   12 1   
    23   11   29 1   
    24   11   30 1   
    25   12   13 1   
    26   12   31 1   
    27   12   32 1   
    28   13   14 1   
    29   13   33 1   
    30   13   34 1   
    31   14   15 1   
    32   14   18 1   
    33   15   16 2   
    34   15   17 1   
    35   17   20 1   
    36   17   35 1   
    37   17   39 1   
    38   18   19 2   
    39   18   20 1   
    40   20   36 1   
    41   20   40 1   
@<TRIPOS>SUBSTRUCTURE
     1 1N0         1 TEMP              0 ****  ****    0 ROOT
