@<TRIPOS>MOLECULE
1N1
   59    55     1     0     0
SMALL
bcc


@<TRIPOS>ATOM
      1 C1         -0.1510    0.4810   -4.1460 c1        1 1N1     -0.028000
      2 C2          1.2600    0.7950   -4.1870 c1        1 1N1     -0.550000
      3 C3          2.0610    1.1640   -5.4350 c1        1 1N1      0.395000
      4 N6         -3.1040   -0.9720    6.2140 n3        1 1N1     -0.257000
      5 C7          5.8440    2.0580   -8.7180 c1        1 1N1     -0.122500
      6 C8          6.0310    2.8330   -7.5990 c1        1 1N1     -0.122500
      7 C9          5.2240    2.6570   -6.4970 c1        1 1N1     -0.083000
      8 C10         5.4080    3.5460   -5.2620 c3        1 1N1     -0.182000
      9 C11        -0.3650   -0.6430    0.2990 c1        1 1N1      0.190000
     10 C12        -0.4710   -0.4410    1.6590 c1        1 1N1     -0.347000
     11 C13        -1.4730   -1.0430    2.3630 c1        1 1N1      0.192000
     12 C14        -2.2440   -2.0240    0.3830 c1        1 1N1      0.105000
     13 C15        -3.2150   -2.9010   -0.3110 c2        1 1N1     -0.162000
     14 C16        -1.7520   -2.0580    4.4690 c3        1 1N1     -0.036500
     15 C19        -2.6720    0.0960    4.0490 c3        1 1N1     -0.036500
     16 C20        -3.2120   -0.7550    7.6210 c3        1 1N1     -0.073000
     17 C21        -4.6260   -1.1680    8.1000 c3        1 1N1     -0.020000
     18 N           0.7690   -0.1670   -0.3970 n2        1 1N1     -0.234000
     19 C           0.6770    0.1380   -1.8500 c2        1 1N1     -0.139000
     20 N1         -0.5250    0.0650   -2.6660 n2        1 1N1     -0.185000
     21 S           1.8350    0.5930   -2.7530 ss        1 1N1      0.644000
     22 N2          3.4470    1.4490   -5.3270 n3        1 1N1     -0.336000
     23 C4          4.2270    1.7020   -6.5170 c2        1 1N1      0.060000
     24 C5          4.0410    0.9240   -7.6410 c2        1 1N1     -0.045000
     25 C6          4.8480    1.1020   -8.7390 c1        1 1N1     -0.122000
     26 CL          2.8210   -0.3420   -7.6420 cl        1 1N1      0.003000
     27 O           1.5410    1.1340   -6.5090 o         1 1N1     -0.330000
     28 N3         -2.3480   -1.8220    1.7400 n2        1 1N1     -0.253000
     29 N4         -1.2410   -1.4220   -0.3240 n2        1 1N1     -0.282000
     30 N5         -1.5930   -0.8110    3.7960 n3        1 1N1     -0.232000
     31 C17        -2.0180   -1.8850    5.9500 c3        1 1N1     -0.076500
     32 C18        -2.9450    0.2700    5.5500 c3        1 1N1     -0.076500
     33 O1         -4.8060   -0.7650    9.4120 oh        1 1N1     -0.332000
     34 H1         -0.7590    0.5190   -4.8910 DU        1 1N1      0.200000
     35 H7          6.4080    2.1800   -9.4860 ha        1 1N1      0.136500
     36 H8          6.7310    3.5050   -7.5860 ha        1 1N1      0.136500
     37 H101        6.1540    4.2010   -5.4310 hc        1 1N1      0.086333
     38 H102        5.6300    2.9940   -4.4960 hc        1 1N1      0.086333
     39 H103        4.5600    4.0460   -5.0790 hc        1 1N1      0.086333
     40 H12         0.1840    0.1420    2.1260 ha        1 1N1      0.154000
     41 H151       -3.9760   -3.0810    0.2830 ha        1 1N1      0.104333
     42 H152       -2.7630   -3.7800   -0.5600 ha        1 1N1      0.104333
     43 H153       -3.5350   -2.4550   -1.1260 ha        1 1N1      0.104333
     44 H161       -0.9170   -2.5990    4.3500 h1        1 1N1      0.095250
     45 H162       -2.5390   -2.5640    4.0490 h1        1 1N1      0.095250
     46 H191       -2.4490    0.9600    3.6670 h1        1 1N1      0.095250
     47 H192       -3.5040   -0.2530    3.6040 h1        1 1N1      0.095250
     48 H201       -3.0610    0.2000    7.8210 h1        1 1N1      0.090000
     49 H202       -2.5340   -1.3000    8.0900 h1        1 1N1      0.090000
     50 H211       -5.2990   -0.7420    7.5340 h1        1 1N1      0.068500
     51 H212       -4.7210   -2.1680    8.0400 h1        1 1N1      0.068500
     52 HN          1.5880   -0.1160    0.0350 hn        1 1N1      0.265000
     53 HN2         3.8310    1.5410   -4.5030 hn        1 1N1      0.224000
     54 H6          4.7200    0.5660   -9.5160 ha        1 1N1      0.148000
     55 H171       -2.2330   -2.7370    6.3280 h1        1 1N1      0.083750
     56 H172       -1.1720   -1.5290    6.3960 h1        1 1N1      0.083750
     57 H181       -2.1920    0.7580    5.9590 h1        1 1N1      0.083750
     58 H182       -3.7720    0.8030    5.6670 h1        1 1N1      0.083750
     59 HO1        -5.6530   -0.8790    9.6420 ho        1 1N1      0.204000
@<TRIPOS>BOND
     1    1    2 1   
     2    1   20 1   
     3    2   21 1   
     4    3   22 1   
     5    3   27 1   
     6    4   16 1   
     7    4   31 1   
     8    4   32 1   
     9    5    6 1   
    10    5   35 1   
    11    6   36 1   
    12    7    8 1   
    13    7   23 1   
    14    8   37 1   
    15    8   38 1   
    16    8   39 1   
    17    9   10 1   
    18    9   29 1   
    19   10   40 1   
    20   11   28 1   
    21   11   30 1   
    22   12   28 1   
    23   12   29 1   
    24   13   41 1   
    25   13   42 1   
    26   13   43 1   
    27   14   30 1   
    28   14   31 1   
    29   14   44 1   
    30   14   45 1   
    31   15   30 1   
    32   15   32 1   
    33   15   46 1   
    34   15   47 1   
    35   16   17 1   
    36   16   48 1   
    37   16   49 1   
    38   17   33 1   
    39   17   50 1   
    40   17   51 1   
    41   18   19 1   
    42   18   52 1   
    43   19   20 1   
    44   19   21 1   
    45   22   23 1   
    46   22   53 1   
    47   23   24 1   
    48   24   25 1   
    49   24   26 1   
    50   25   54 1   
    51   31   55 1   
    52   31   56 1   
    53   32   57 1   
    54   32   58 1   
    55   33   59 1   
@<TRIPOS>SUBSTRUCTURE
     1 1N1         1 TEMP              0 ****  ****    0 ROOT
