@<TRIPOS>MOLECULE
1N1
   59    62     1     0     0
SMALL
bcc


@<TRIPOS>ATOM
      1 C1          2.9220    0.5690    1.8010 cc        1 1N1      0.399200
      2 C2          2.1740   -0.2050    0.9050 cd        1 1N1     -0.369000
      3 C3          2.5830   -0.5850   -0.4550 c         1 1N1      0.719700
      4 N6         -5.4540   -0.6130    9.0400 n3        1 1N1     -0.741600
      5 C7          4.7280   -0.0210   -5.1130 ca        1 1N1     -0.125000
      6 C8          5.0220   -1.0510   -4.2260 ca        1 1N1     -0.123000
      7 C9          4.6280   -0.9910   -2.8850 ca        1 1N1     -0.043300
      8 C10         4.9820   -2.1070   -1.9770 c3        1 1N1     -0.063800
      9 C11        -0.9760   -0.3020    4.2440 ca        1 1N1      0.701200
     10 C12        -1.7210   -0.1220    5.4440 ca        1 1N1     -0.453600
     11 C13        -3.0440   -0.6440    5.4820 ca        1 1N1      0.699200
     12 C14        -2.7840   -1.4070    3.2880 ca        1 1N1      0.724300
     13 C15        -3.3690   -2.1150    2.0850 c3        1 1N1     -0.139400
     14 C16        -5.2420   -0.8360    6.5570 c3        1 1N1      0.191300
     15 C19        -3.2280   -0.6730    7.9090 c3        1 1N1      0.191300
     16 C20        -6.2420   -0.1310   10.1660 c3        1 1N1      0.125800
     17 C21        -7.4280   -1.0440   10.5050 c3        1 1N1      0.135400
     18 N           0.3370    0.1740    4.1960 nh        1 1N1     -0.820600
     19 C           1.1310    0.1500    3.0550 cd        1 1N1      0.595300
     20 N1          2.3480    0.7820    3.0220 nc        1 1N1     -0.705000
     21 S           0.7320   -0.6810    1.6040 ss        1 1N1      0.153700
     22 N2          3.5120    0.2560   -1.0710 n         1 1N1     -0.465100
     23 C4          3.8990    0.1320   -2.4220 ca        1 1N1      0.050600
     24 C5          3.6150    1.1740   -3.3410 ca        1 1N1     -0.008600
     25 C6          4.0290    1.0990   -4.6700 ca        1 1N1     -0.119000
     26 CL          2.7610    2.5610   -2.8350 cl        1 1N1     -0.102400
     27 O           2.1490   -1.6120   -1.0110 o         1 1N1     -0.591100
     28 N3         -3.5700   -1.2980    4.3910 nb        1 1N1     -0.776000
     29 N4         -1.5040   -0.9450    3.1560 nb        1 1N1     -0.800000
     30 N5         -3.8510   -0.4080    6.6200 nh        1 1N1     -0.739300
     31 C17        -6.0690   -0.3210    7.7530 c3        1 1N1      0.162800
     32 C18        -4.0730   -0.1570    9.0920 c3        1 1N1      0.162800
     33 O1         -7.0130   -2.2710   11.0660 oh        1 1N1     -0.599800
     34 H1          3.9160    0.9970    1.6170 h4        1 1N1      0.045100
     35 H7          5.0470   -0.0870   -6.1630 ha        1 1N1      0.138000
     36 H8          5.5790   -1.9320   -4.5810 ha        1 1N1      0.138000
     37 H101        4.0540   -2.6510   -1.6590 hc        1 1N1      0.056367
     38 H102        5.4940   -1.7230   -1.0600 hc        1 1N1      0.056367
     39 H103        5.6640   -2.8350   -2.4810 hc        1 1N1      0.056367
     40 H12        -1.2910    0.4210    6.2930 ha        1 1N1      0.156000
     41 H151       -4.3930   -2.5050    2.3040 hc        1 1N1      0.067033
     42 H152       -3.4290   -1.3980    1.2300 hc        1 1N1      0.067033
     43 H153       -2.7100   -2.9700    1.7960 hc        1 1N1      0.067033
     44 H161       -5.3190   -1.9600    6.5150 h1        1 1N1      0.055700
     45 H162       -5.7070   -0.4130    5.6230 h1        1 1N1      0.055700
     46 H191       -2.2330   -0.1520    7.9600 h1        1 1N1      0.055700
     47 H192       -3.0530   -1.7800    8.0440 h1        1 1N1      0.055700
     48 H201       -6.6430    0.9080    9.9830 h1        1 1N1      0.045700
     49 H202       -5.5780   -0.0880   11.0760 h1        1 1N1      0.045700
     50 H211       -8.0730   -1.2280    9.6060 h1        1 1N1      0.045200
     51 H212       -8.0420   -0.5570   11.3100 h1        1 1N1      0.045200
     52 HN          0.6540    0.7080    4.9770 hn        1 1N1      0.466800
     53 HN2         3.6080    1.1730   -0.6890 hn        1 1N1      0.318500
     54 H6          3.7980    1.9200   -5.3670 ha        1 1N1      0.148000
     55 H171       -7.0670   -0.8400    7.7180 h1        1 1N1      0.043450
     56 H172       -6.2490    0.7860    7.6190 h1        1 1N1      0.043450
     57 H181       -3.6070   -0.5590   10.0350 h1        1 1N1      0.043450
     58 H182       -4.0050    0.9700    9.1210 h1        1 1N1      0.043450
     59 HO1        -6.4410   -2.7060   10.4220 ho        1 1N1      0.412000
@<TRIPOS>BOND
     1    1    2 2   
     2    1   20 1   
     3    1   34 1   
     4    2    3 1   
     5    2   21 1   
     6    3   22 1   
     7    3   27 2   
     8    4   16 1   
     9    4   31 1   
    10    4   32 1   
    11    5    6 ar  
    12    5   25 ar  
    13    5   35 1   
    14    6    7 ar  
    15    6   36 1   
    16    7    8 1   
    17    7   23 ar  
    18    8   37 1   
    19    8   38 1   
    20    8   39 1   
    21    9   10 ar  
    22    9   18 1   
    23    9   29 ar  
    24   10   11 ar  
    25   10   40 1   
    26   11   28 ar  
    27   11   30 1   
    28   12   13 1   
    29   12   28 ar  
    30   12   29 ar  
    31   13   41 1   
    32   13   42 1   
    33   13   43 1   
    34   14   30 1   
    35   14   31 1   
    36   14   44 1   
    37   14   45 1   
    38   15   30 1   
    39   15   32 1   
    40   15   46 1   
    41   15   47 1   
    42   16   17 1   
    43   16   48 1   
    44   16   49 1   
    45   17   33 1   
    46   17   50 1   
    47   17   51 1   
    48   18   19 1   
    49   18   52 1   
    50   19   20 2   
    51   19   21 1   
    52   22   23 1   
    53   22   53 1   
    54   23   24 ar  
    55   24   25 ar  
    56   24   26 1   
    57   25   54 1   
    58   31   55 1   
    59   31   56 1   
    60   32   57 1   
    61   32   58 1   
    62   33   59 1   
@<TRIPOS>SUBSTRUCTURE
     1 1N1         1 TEMP              0 ****  ****    0 ROOT
