@<TRIPOS>MOLECULE
1N1
   61    64     1     0     0
SMALL
bcc


@<TRIPOS>ATOM
      1 C1          3.4180   -0.2880    2.2640 cc        1 1N1      0.413200
      2 C2          2.5900   -0.8990    1.2810 cd        1 1N1     -0.441000
      3 C3          3.0590   -1.4930    0.0450 c         1 1N1      0.611700
      4 N6         -5.7510   -0.7710    8.4440 n3        1 1N1     -0.727600
      5 C7          3.4020    1.3670   -4.1130 ca        1 1N1     -0.048000
      6 C8          3.6900    0.0100   -4.2080 ca        1 1N1     -0.106000
      7 C9          3.9790   -0.7530   -3.0690 ca        1 1N1     -0.005300
      8 C10         4.3110   -2.1900   -3.2170 c3        1 1N1     -0.102800
      9 C11        -0.8600   -0.3860    4.2050 ca        1 1N1      0.555200
     10 C12        -1.6820   -0.2790    5.3240 ca        1 1N1     -0.423600
     11 C13        -3.0210   -0.8460    5.1920 ca        1 1N1      0.741200
     12 C14        -2.4720   -1.5280    3.0010 ca        1 1N1      0.775300
     13 C15        -2.8750   -2.2190    1.7180 c3        1 1N1     -0.151400
     14 C16        -5.1940   -1.4750    6.1220 c3        1 1N1      0.195300
     15 C19        -3.5470   -0.1440    7.4670 c3        1 1N1      0.195300
     16 C20        -6.7990   -0.4860    9.4160 c3        1 1N1      0.165800
     17 C21        -6.3330   -0.5580   10.8750 c3        1 1N1      0.127400
     18 N           0.5060    0.2140    4.2940 n4        1 1N1     -0.708400
     19 C           1.4200   -0.1580    3.2190 cd        1 1N1      0.331300
     20 N1          2.7630    0.1360    3.3660 nc        1 1N1     -0.593000
     21 S           1.0150   -0.9280    1.7860 ss        1 1N1      0.527700
     22 N2          4.2850   -0.8730   -0.5970 n4        1 1N1     -0.523200
     23 C4          3.9610   -0.1130   -1.8090 ca        1 1N1     -0.083400
     24 C5          3.6850    1.2720   -1.7170 ca        1 1N1      0.028400
     25 C6          3.4040    2.0040   -2.8680 ca        1 1N1     -0.099000
     26 CL          3.7200    2.0670   -0.2170 cl        1 1N1     -0.063400
     27 O           2.5810   -2.4610   -0.5300 o         1 1N1     -0.402100
     28 N3         -3.3660   -1.4870    4.0060 nb        1 1N1     -0.735000
     29 N4         -1.2000   -0.9860    3.0370 nb        1 1N1     -0.863000
     30 N5         -3.9350   -0.7390    6.1970 nh        1 1N1     -0.685300
     31 C17        -6.2800   -1.0110    7.1110 c3        1 1N1      0.152800
     32 C18        -4.7170    0.2470    8.3920 c3        1 1N1      0.152800
     33 O1         -5.6080    0.6280   11.1570 oh        1 1N1     -0.622800
     34 H1          4.5110   -0.1550    2.2320 h4        1 1N1      0.075100
     35 H7          3.1800    1.9520   -5.0240 ha        1 1N1      0.186000
     36 H8          3.6990   -0.4810   -5.1980 ha        1 1N1      0.183000
     37 H101        4.2190   -2.5110   -4.2880 hc        1 1N1      0.079700
     38 H102        3.6180   -2.8310   -2.6140 hc        1 1N1      0.079700
     39 H103        5.3670   -2.3890   -2.9020 hc        1 1N1      0.079700
     40 H12        -1.3530    0.1850    6.2620 ha        1 1N1      0.180000
     41 H151       -3.9060   -2.6480    1.8020 hc        1 1N1      0.085700
     42 H152       -2.1600   -3.0480    1.4960 hc        1 1N1      0.085700
     43 H153       -2.8620   -1.4800    0.8780 hc        1 1N1      0.085700
     44 H161       -4.9650   -2.5650    6.3080 h1        1 1N1      0.071200
     45 H162       -5.6300   -1.3710    5.0870 h1        1 1N1      0.071200
     46 H191       -2.9720    0.8060    7.2700 h1        1 1N1      0.071200
     47 H192       -2.8780   -0.8740    8.0100 h1        1 1N1      0.071200
     48 H201       -7.2590    0.5300    9.2430 h1        1 1N1      0.057200
     49 H202       -7.6010   -1.2680    9.2860 h1        1 1N1      0.057200
     50 H211       -5.6760   -1.4500   11.0580 h1        1 1N1      0.046200
     51 H212       -7.2440   -0.6260   11.5280 h1        1 1N1      0.046200
     52 HN          0.4000    1.2440    4.2910 hn        1 1N1      0.487300
     53 HN2         4.9310   -1.6350   -0.8620 hn        1 1N1      0.472300
     54 H6          3.1930    3.0860   -2.7990 ha        1 1N1      0.189000
     55 H171       -7.0410   -1.8400    7.1670 h1        1 1N1      0.068700
     56 H172       -6.7900   -0.0970    6.6860 h1        1 1N1      0.068700
     57 H181       -5.1240    1.2450    8.0530 h1        1 1N1      0.068700
     58 H182       -4.2920    0.3810    9.4290 h1        1 1N1      0.068700
     59 HO1        -5.5620    0.7100   12.1170 ho        1 1N1      0.418000
     60 HN3         0.9180   -0.0690    5.2010 hn        1 1N1      0.487300
     61 H22         4.7560   -0.2460    0.0710 hn        1 1N1      0.472300
@<TRIPOS>BOND
     1    1    2 2   
     2    1   20 1   
     3    1   34 1   
     4    2    3 1   
     5    2   21 1   
     6    3   22 1   
     7    3   27 2   
     8    4   16 1   
     9    4   31 1   
    10    4   32 1   
    11    5    6 ar  
    12    5   25 ar  
    13    5   35 1   
    14    6    7 ar  
    15    6   36 1   
    16    7    8 1   
    17    7   23 ar  
    18    8   37 1   
    19    8   38 1   
    20    8   39 1   
    21    9   10 ar  
    22    9   18 1   
    23    9   29 ar  
    24   10   11 ar  
    25   10   40 1   
    26   11   28 ar  
    27   11   30 1   
    28   12   13 1   
    29   12   28 ar  
    30   12   29 ar  
    31   13   41 1   
    32   13   42 1   
    33   13   43 1   
    34   14   30 1   
    35   14   31 1   
    36   14   44 1   
    37   14   45 1   
    38   15   30 1   
    39   15   32 1   
    40   15   46 1   
    41   15   47 1   
    42   16   17 1   
    43   16   48 1   
    44   16   49 1   
    45   17   33 1   
    46   17   50 1   
    47   17   51 1   
    48   18   19 1   
    49   18   52 1   
    50   18   60 1   
    51   19   20 2   
    52   19   21 1   
    53   22   23 1   
    54   22   53 1   
    55   22   61 1   
    56   23   24 ar  
    57   24   25 ar  
    58   24   26 1   
    59   25   54 1   
    60   31   55 1   
    61   31   56 1   
    62   32   57 1   
    63   32   58 1   
    64   33   59 1   
@<TRIPOS>SUBSTRUCTURE
     1 1N1         1 TEMP              0 ****  ****    0 ROOT
