@<TRIPOS>MOLECULE
1N1
   59    62     1     0     0
SMALL
bcc


@<TRIPOS>ATOM
      1 C1          2.9230    0.5740    1.8080 cc        1 1N1      0.398200
      2 C2          2.1790   -0.2020    0.9110 cd        1 1N1     -0.369000
      3 C3          2.5890   -0.5780   -0.4490 c         1 1N1      0.719700
      4 N6         -5.4600   -0.6250    9.0350 n3        1 1N1     -0.740600
      5 C7          4.7340    0.0000   -5.1060 ca        1 1N1     -0.125000
      6 C8          5.0320   -1.0300   -4.2190 ca        1 1N1     -0.123000
      7 C9          4.6380   -0.9730   -2.8780 ca        1 1N1     -0.043300
      8 C10         4.9970   -2.0880   -1.9710 c3        1 1N1     -0.063800
      9 C11        -0.9750   -0.3080    4.2460 ca        1 1N1      0.701200
     10 C12        -1.7210   -0.1300    5.4460 ca        1 1N1     -0.453600
     11 C13        -3.0450   -0.6510    5.4810 ca        1 1N1      0.699200
     12 C14        -2.7820   -1.4110    3.2860 ca        1 1N1      0.724300
     13 C15        -3.3660   -2.1160    2.0810 c3        1 1N1     -0.139400
     14 C16        -5.2450   -0.8440    6.5530 c3        1 1N1      0.191300
     15 C19        -3.2330   -0.6850    7.9070 c3        1 1N1      0.191300
     16 C20        -6.2490   -0.1440   10.1610 c3        1 1N1      0.125800
     17 C21        -7.4360   -1.0560   10.4970 c3        1 1N1      0.135400
     18 N           0.3390    0.1660    4.2010 nu        1 1N1     -0.819600
     19 C           1.1330    0.1480    3.0610 cd        1 1N1      0.595300
     20 N1          2.3480    0.7840    3.0290 nc        1 1N1     -0.705000
     21 S           0.7370   -0.6820    1.6090 ss        1 1N1      0.153700
     22 N2          3.5150    0.2680   -1.0640 ns        1 1N1     -0.465100
     23 C4          3.9040    0.1470   -2.4150 ca        1 1N1      0.050600
     24 C5          3.6150    1.1880   -3.3330 ca        1 1N1     -0.008600
     25 C6          4.0300    1.1170   -4.6620 ca        1 1N1     -0.119000
     26 Cl          2.7540    2.5710   -2.8260 cl        1 1N1     -0.102400
     27 O           2.1600   -1.6070   -1.0060 o         1 1N1     -0.591100
     28 N3         -3.5700   -1.3030    4.3880 nb        1 1N1     -0.776000
     29 N4         -1.5020   -0.9490    3.1560 nb        1 1N1     -0.800000
     30 N5         -3.8530   -0.4170    6.6180 nh        1 1N1     -0.739300
     31 C17        -6.0720   -0.3300    7.7480 c3        1 1N1      0.162800
     32 C18        -4.0790   -0.1700    9.0900 c3        1 1N1      0.162800
     33 O1         -7.0230   -2.2840   11.0570 oh        1 1N1     -0.599800
     34 H1          3.9160    1.0060    1.6260 h4        1 1N1      0.045100
     35 H7          5.0550   -0.0640   -6.1560 ha        1 1N1      0.138000
     36 H8          5.5940   -1.9080   -4.5750 ha        1 1N1      0.138000
     37 H101        5.5070   -1.7030   -1.0540 hc        1 1N1      0.056367
     38 H102        4.0710   -2.6360   -1.6540 hc        1 1N1      0.056367
     39 H103        5.6810   -2.8130   -2.4760 hc        1 1N1      0.056367
     40 H12        -1.2930    0.4120    6.2960 ha        1 1N1      0.156000
     41 H151       -4.3900   -2.5050    2.2970 hc        1 1N1      0.067033
     42 H152       -3.4230   -1.3980    1.2260 hc        1 1N1      0.067033
     43 H153       -2.7070   -2.9720    1.7920 hc        1 1N1      0.067033
     44 H161       -5.3220   -1.9680    6.5090 h1        1 1N1      0.055700
     45 H162       -5.7080   -0.4200    5.6180 h1        1 1N1      0.055700
     46 H191       -3.0580   -1.7920    8.0410 h1        1 1N1      0.055700
     47 H192       -2.2370   -0.1650    7.9610 h1        1 1N1      0.055700
     48 H201       -6.6490    0.8960    9.9790 h1        1 1N1      0.045700
     49 H202       -5.5860   -0.1030   11.0720 h1        1 1N1      0.045700
     50 H211       -8.0510   -0.5700   11.3030 h1        1 1N1      0.045200
     51 H212       -8.0810   -1.2380    9.5970 h1        1 1N1      0.045200
     52 HN          0.6540    0.7010    4.9830 hn        1 1N1      0.466800
     53 HN2         3.6070    1.1840   -0.6800 hn        1 1N1      0.318500
     54 H6          3.7950    1.9370   -5.3580 ha        1 1N1      0.148000
     55 H171       -6.2520    0.7770    7.6160 h1        1 1N1      0.043450
     56 H172       -7.0710   -0.8490    7.7110 h1        1 1N1      0.043450
     57 H181       -3.6140   -0.5740   10.0330 h1        1 1N1      0.043450
     58 H182       -4.0090    0.9570    9.1210 h1        1 1N1      0.043450
     59 HO1        -6.4510   -2.7190   10.4130 ho        1 1N1      0.412000
@<TRIPOS>BOND
     1    1    2 2   
     2    1   20 1   
     3    1   34 1   
     4    2    3 1   
     5    2   21 1   
     6    3   22 1   
     7    3   27 2   
     8    4   16 1   
     9    4   31 1   
    10    4   32 1   
    11    5    6 ar  
    12    5   25 ar  
    13    5   35 1   
    14    6    7 ar  
    15    6   36 1   
    16    7    8 1   
    17    7   23 ar  
    18    8   37 1   
    19    8   38 1   
    20    8   39 1   
    21    9   10 ar  
    22    9   18 1   
    23    9   29 ar  
    24   10   11 ar  
    25   10   40 1   
    26   11   28 ar  
    27   11   30 1   
    28   12   13 1   
    29   12   28 ar  
    30   12   29 ar  
    31   13   41 1   
    32   13   42 1   
    33   13   43 1   
    34   14   30 1   
    35   14   31 1   
    36   14   44 1   
    37   14   45 1   
    38   15   30 1   
    39   15   32 1   
    40   15   46 1   
    41   15   47 1   
    42   16   17 1   
    43   16   48 1   
    44   16   49 1   
    45   17   33 1   
    46   17   50 1   
    47   17   51 1   
    48   18   19 1   
    49   18   52 1   
    50   19   20 2   
    51   19   21 1   
    52   22   23 1   
    53   22   53 1   
    54   23   24 ar  
    55   24   25 ar  
    56   24   26 1   
    57   25   54 1   
    58   31   55 1   
    59   31   56 1   
    60   32   57 1   
    61   32   58 1   
    62   33   59 1   
@<TRIPOS>SUBSTRUCTURE
     1 1N1         1 TEMP              0 ****  ****    0 ROOT
