@<TRIPOS>MOLECULE
1N1
   59    62     1     0     0
SMALL
bcc


@<TRIPOS>ATOM
      1 C1         -2.6790   -1.6550   -1.4010 cc        1 1N1      0.398200
      2 C2         -2.8220   -0.9110   -0.2230 cd        1 1N1     -0.369000
      3 C3         -4.0920   -0.5760    0.4350 c         1 1N1      0.719700
      4 N6          8.3150   -0.2270   -0.3910 n3        1 1N1     -0.741600
      5 C7         -9.0580    0.7760    0.7910 ca        1 1N1     -0.125000
      6 C8         -8.5010   -0.3510    1.3850 ca        1 1N1     -0.123000
      7 C9         -7.2310   -0.8130    1.0210 ca        1 1N1     -0.043300
      8 C10        -6.6910   -2.0300    1.6710 c3        1 1N1     -0.063800
      9 C11         1.7570   -0.5930   -0.3470 ca        1 1N1      0.701200
     10 C12         3.1370   -0.6720   -0.6900 ca        1 1N1     -0.453600
     11 C13         4.0570    0.0570    0.1140 ca        1 1N1      0.699200
     12 C14         2.2770    0.8250    1.4200 ca        1 1N1      0.724300
     13 C15         1.7920    1.6580    2.5860 c3        1 1N1     -0.139400
     14 C16         6.3060    0.9520    0.5200 c3        1 1N1      0.191300
     15 C19         6.0260   -1.2090   -0.5550 c3        1 1N1      0.191300
     16 C20         9.6430   -0.1130   -0.9780 c3        1 1N1      0.125800
     17 C21        10.7350    0.1910    0.0580 c3        1 1N1      0.135400
     18 N           0.8390   -1.3280   -1.1030 nh        1 1N1     -0.819600
     19 C          -0.5390   -1.2530   -0.9380 cd        1 1N1      0.595300
     20 N1         -1.3960   -1.8580   -1.8220 nc        1 1N1     -0.705000
     21 S          -1.3250   -0.4640    0.3720 ss        1 1N1      0.153700
     22 N2         -5.2200   -0.5560   -0.3870 n         1 1N1     -0.465100
     23 C4         -6.4890   -0.1100    0.0410 ca        1 1N1      0.050600
     24 C5         -7.0780    1.0340   -0.5560 ca        1 1N1     -0.008600
     25 C6         -8.3500    1.4690   -0.1880 ca        1 1N1     -0.119000
     26 CL         -6.2400    1.9070   -1.7580 cl        1 1N1     -0.102400
     27 O          -4.1610   -0.3540    1.6600 o         1 1N1     -0.591100
     28 N3          3.6150    0.8040    1.1820 nb        1 1N1     -0.776000
     29 N4          1.3170    0.1580    0.7100 nb        1 1N1     -0.800000
     30 N5          5.4260    0.0800   -0.2450 nh        1 1N1     -0.739300
     31 C17         7.7100    1.0660   -0.1080 c3        1 1N1      0.162800
     32 C18         7.4310   -1.0740   -1.1770 c3        1 1N1      0.162800
     33 O1         10.9880   -0.9090    0.9050 oh        1 1N1     -0.599800
     34 H1         -3.4920   -2.0940   -1.9950 h4        1 1N1      0.045100
     35 H7        -10.0580    1.1220    1.0910 ha        1 1N1      0.138000
     36 H8         -9.0680   -0.8970    2.1550 ha        1 1N1      0.138000
     37 H101       -6.3520   -2.7700    0.9040 hc        1 1N1      0.056367
     38 H102       -5.8100   -1.7620    2.3120 hc        1 1N1      0.056367
     39 H103       -7.4620   -2.5190    2.3150 hc        1 1N1      0.056367
     40 H12         3.4650   -1.2540   -1.5580 ha        1 1N1      0.156000
     41 H151        1.1240    2.4700    2.2060 hc        1 1N1      0.067033
     42 H152        1.2120    1.0130    3.2920 hc        1 1N1      0.067033
     43 H153        2.6470    2.1200    3.1360 hc        1 1N1      0.067033
     44 H161        5.8620    1.9870    0.5380 h1        1 1N1      0.055700
     45 H162        6.4080    0.5920    1.5840 h1        1 1N1      0.055700
     46 H191        6.0990   -1.8460    0.3750 h1        1 1N1      0.055700
     47 H192        5.3840   -1.7530   -1.3020 h1        1 1N1      0.055700
     48 H201        9.9050   -1.0960   -1.4650 h1        1 1N1      0.045700
     49 H202        9.6840    0.6870   -1.7720 h1        1 1N1      0.045700
     50 H211       11.7060    0.3640   -0.4800 h1        1 1N1      0.045200
     51 H212       10.4800    1.0990    0.6660 h1        1 1N1      0.045200
     52 HN          1.1890   -1.7910   -1.9150 hn        1 1N1      0.466800
     53 HN2        -5.0570   -0.4810   -1.3680 hn        1 1N1      0.318500
     54 H6         -8.7880    2.3590   -0.6640 ha        1 1N1      0.148000
     55 H171        8.3650    1.6030    0.6330 h1        1 1N1      0.043450
     56 H172        7.6410    1.7060   -1.0360 h1        1 1N1      0.043450
     57 H181        7.3240   -0.7000   -2.2360 h1        1 1N1      0.043450
     58 H182        7.8790   -2.1070   -1.2150 h1        1 1N1      0.043450
     59 HO1        10.1620   -1.1230    1.3570 ho        1 1N1      0.412000
@<TRIPOS>BOND
     1    1    2 2   
     2    1   20 1   
     3    1   34 1   
     4    2    3 1   
     5    2   21 1   
     6    3   22 1   
     7    3   27 2   
     8    4   16 1   
     9    4   31 1   
    10    4   32 1   
    11    5    6 ar  
    12    5   25 ar  
    13    5   35 1   
    14    6    7 ar  
    15    6   36 1   
    16    7    8 1   
    17    7   23 ar  
    18    8   37 1   
    19    8   38 1   
    20    8   39 1   
    21    9   10 ar  
    22    9   18 1   
    23    9   29 ar  
    24   10   11 ar  
    25   10   40 1   
    26   11   28 ar  
    27   11   30 1   
    28   12   13 1   
    29   12   28 ar  
    30   12   29 ar  
    31   13   41 1   
    32   13   42 1   
    33   13   43 1   
    34   14   30 1   
    35   14   31 1   
    36   14   44 1   
    37   14   45 1   
    38   15   30 1   
    39   15   32 1   
    40   15   46 1   
    41   15   47 1   
    42   16   17 1   
    43   16   48 1   
    44   16   49 1   
    45   17   33 1   
    46   17   50 1   
    47   17   51 1   
    48   18   19 1   
    49   18   52 1   
    50   19   20 2   
    51   19   21 1   
    52   22   23 1   
    53   22   53 1   
    54   23   24 ar  
    55   24   25 ar  
    56   24   26 1   
    57   25   54 1   
    58   31   55 1   
    59   31   56 1   
    60   32   57 1   
    61   32   58 1   
    62   33   59 1   
@<TRIPOS>SUBSTRUCTURE
     1 1N1         1 TEMP              0 ****  ****    0 ROOT
