@<TRIPOS>MOLECULE
1N3
   57    60     1     0     0
SMALL
bcc


@<TRIPOS>ATOM
      1 C1         -0.0880   -2.1020   -0.1830 c3        1 1N3      0.101700
      2 O2          1.1480   -2.6720    0.2630 os        1 1N3     -0.293900
      3 C3          1.7430   -2.1070    1.3480 ca        1 1N3      0.220100
      4 C4          2.9530   -2.7240    1.7550 ca        1 1N3     -0.187000
      5 C5          3.6390   -2.2260    2.8450 ca        1 1N3     -0.031500
      6 C6          3.1430   -1.1130    3.5560 ca        1 1N3     -0.278900
      7 C7          1.9400   -0.5070    3.1470 ca        1 1N3     -0.031500
      8 C8          1.2440   -0.9950    2.0510 ca        1 1N3     -0.187000
      9 C9          3.8650   -0.6000    4.7030 cc        1 1N3      0.441400
     10 N10         3.2870    0.0490    5.7820 na        1 1N3     -0.339900
     11 C11         4.3120    0.4140    6.6910 ca        1 1N3      0.474800
     12 C12         5.5550   -0.0680    6.1220 ca        1 1N3     -0.235500
     13 N13         5.2320   -0.6860    4.8970 na        1 1N3     -0.207300
     14 C14         6.7790    0.1630    6.8060 ca        1 1N3      0.261600
     15 C15         6.6470    0.8840    8.0230 ca        1 1N3     -0.218200
     16 C16         5.3750    1.3120    8.4790 ca        1 1N3      0.500200
     17 N17         4.2060    1.0950    7.8590 nb        1 1N3     -0.632000
     18 Br1         8.1330    1.3010    9.0700 br        1 1N3     -0.012100
     19 N19         8.0070   -0.1910    6.2740 nu        1 1N3     -0.746600
     20 C20         8.2050   -1.4570    5.6060 c3        1 1N3      0.196800
     21 C21         9.5180   -2.1590    5.9600 c3        1 1N3     -0.120400
     22 C22        10.7180   -1.4300    5.3520 c3        1 1N3      0.081000
     23 N23        11.9850   -2.0320    5.6960 ns        1 1N3     -0.533900
     24 C24        12.9730   -2.2340    4.7760 c         1 1N3      0.702100
     25 O25        12.8000   -1.9640    3.5600 o         1 1N3     -0.664100
     26 C26        14.2990   -2.8040    5.2120 cx        1 1N3     -0.275000
     27 C27        14.3400   -4.2080    5.7860 cx        1 1N3     -0.084400
     28 C28        14.6580   -3.0480    6.6670 cx        1 1N3     -0.084400
     29 C29        15.4370   -2.3380    4.3350 c3        1 1N3      0.156800
     30 N30        15.3350   -2.8380    2.9330 nz        1 1N3     -0.846600
     31 H1          0.0660   -1.0430   -0.5010 h1        1 1N3      0.069700
     32 H2         -0.8610   -2.1770    0.6180 h1        1 1N3      0.069700
     33 H3         -0.3550   -2.7480   -1.0600 h1        1 1N3      0.069700
     34 H4          3.3210   -3.5980    1.1940 ha        1 1N3      0.177500
     35 H5          4.5670   -2.7260    3.1630 ha        1 1N3      0.141500
     36 H6          1.5430    0.3740    3.6770 ha        1 1N3      0.141500
     37 H7          0.3070   -0.5080    1.7380 ha        1 1N3      0.177500
     38 H8          2.3140    0.2230    5.9060 hn        1 1N3      0.365700
     39 H10         5.2850    1.8760    9.4340 h4        1 1N3      0.078100
     40 H11         8.7970    0.1290    6.8020 hn        1 1N3      0.439800
     41 H12         7.3660   -2.1710    5.8500 h1        1 1N3      0.053700
     42 H13         8.1900   -1.2580    4.4930 h1        1 1N3      0.053700
     43 H14         9.6270   -2.2390    7.0740 hc        1 1N3      0.071700
     44 H15         9.4610   -3.2030    5.5530 hc        1 1N3      0.071700
     45 H16        10.7320   -0.3600    5.7120 h1        1 1N3      0.076200
     46 H17        10.6140   -1.4130    4.2280 h1        1 1N3      0.076200
     47 H18        12.1410   -2.2490    6.6520 hn        1 1N3      0.328500
     48 H19        13.3840   -4.7500    5.9220 hc        1 1N3      0.103450
     49 H20        15.1540   -4.8880    5.4720 hc        1 1N3      0.103450
     50 H21        13.9610   -2.7500    7.4710 hc        1 1N3      0.103450
     51 H22        15.7070   -2.8740    6.9780 hc        1 1N3      0.103450
     52 H23        16.4230   -2.6890    4.7590 hx        1 1N3      0.117700
     53 H24        15.4350   -1.2080    4.2910 hx        1 1N3      0.117700
     54 H25        14.4430   -2.5040    2.5180 hn        1 1N3      0.471467
     55 H26        15.3380   -3.8610    2.9190 hn        1 1N3      0.471467
     56 H232        5.8820   -1.0450    4.2390 hn        1 1N3      0.346700
     57 H303       16.1220   -2.4890    2.3780 hn        1 1N3      0.471467
@<TRIPOS>BOND
     1    1    2 1   
     2    1   31 1   
     3    1   32 1   
     4    1   33 1   
     5    2    3 1   
     6    3    4 ar  
     7    3    8 ar  
     8    4    5 ar  
     9    4   34 1   
    10    5    6 ar  
    11    5   35 1   
    12    6    7 ar  
    13    6    9 1   
    14    7    8 ar  
    15    7   36 1   
    16    8   37 1   
    17    9   10 2   
    18    9   13 1   
    19   10   11 1   
    20   10   38 1   
    21   11   12 ar  
    22   11   17 ar  
    23   12   13 1   
    24   12   14 ar  
    25   13   56 1   
    26   14   15 ar  
    27   14   19 1   
    28   15   16 ar  
    29   15   18 1   
    30   16   17 ar  
    31   16   39 1   
    32   19   20 1   
    33   19   40 1   
    34   20   21 1   
    35   20   41 1   
    36   20   42 1   
    37   21   22 1   
    38   21   43 1   
    39   21   44 1   
    40   22   23 1   
    41   22   45 1   
    42   22   46 1   
    43   23   24 1   
    44   23   47 1   
    45   24   25 2   
    46   24   26 1   
    47   26   27 1   
    48   26   28 1   
    49   26   29 1   
    50   27   28 1   
    51   27   48 1   
    52   27   49 1   
    53   28   50 1   
    54   28   51 1   
    55   29   30 1   
    56   29   52 1   
    57   29   53 1   
    58   30   54 1   
    59   30   55 1   
    60   30   57 1   
@<TRIPOS>SUBSTRUCTURE
     1 1N3         1 TEMP              0 ****  ****    0 ROOT
