@<TRIPOS>MOLECULE
1N3
   55    50     1     0     0
SMALL
bcc


@<TRIPOS>ATOM
      1 C1         -1.3390    3.2850    5.9060 c3        1 1N3     -0.078000
      2 O2         -2.6650    3.3830    5.4100 os        1 1N3     -0.206000
      3 C3         -2.8140    2.9270    4.0770 c2        1 1N3      0.099000
      4 C4         -2.8260    3.8390    3.0270 c2        1 1N3     -0.163000
      5 C5         -3.0410    3.3990    1.7250 c1        1 1N3     -0.054000
      6 C6         -3.2440    2.0460    1.4730 c1        1 1N3     -0.074000
      7 C7         -3.2310    1.1330    2.5230 c1        1 1N3     -0.077000
      8 C8         -3.0170    1.5730    3.8240 c1        1 1N3     -0.209000
      9 C9         -3.4190    1.5560    0.0360 c1        1 1N3      0.052500
     10 N10        -4.5540    1.3200   -0.6820 n2        1 1N3     -0.219000
     11 C11        -4.1920    0.7580   -1.8670 c1        1 1N3      0.052500
     12 C12        -2.8290    0.6470   -1.8830 c1        1 1N3     -0.168000
     13 N13        -2.3550    1.1400   -0.7070 n1        1 1N3     -0.140500
     14 C14        -2.1890    0.1040   -2.9940 c1        1 1N3      0.171000
     15 C15        -2.9240   -0.3180   -4.0680 c1        1 1N3     -0.283000
     16 C16        -4.3090   -0.2040   -4.0490 c1        1 1N3     -0.006000
     17 N17        -4.9370    0.3300   -2.9590 n1        1 1N3     -0.140500
     18 BR1        -3.0160   -0.9250   -5.8810 br        1 1N3      0.073000
     19 N19        -0.7640    0.1680   -3.1730 n3        1 1N3     -0.263000
     20 C20        -0.0130   -1.0390   -3.4120 c3        1 1N3     -0.060000
     21 C21         1.4650   -0.8040   -3.0520 c3        1 1N3     -0.223000
     22 C22         2.0520   -2.0850   -2.4260 c3        1 1N3     -0.028000
     23 N23         3.1640   -1.7360   -1.5660 n         1 1N3     -0.373000
     24 C24         3.5540   -2.6260   -0.4910 c2        1 1N3      0.337000
     25 O25         3.0550   -3.7380   -0.4070 o         1 1N3     -0.378000
     26 C26         4.6240   -2.1740    0.5430 cx        1 1N3     -0.147000
     27 C27         5.2640   -1.2890   -0.1670 cx        1 1N3     -0.188500
     28 C28         4.3590   -0.8980    0.5990 cx        1 1N3     -0.188500
     29 C29         4.6970   -2.7900    0.9410 c3        1 1N3     -0.035000
     30 N30         3.7410   -2.7800    2.0200 n3        1 1N3     -0.344000
     31 H1         -0.7370    3.8040    5.3330 h1        1 1N3      0.087333
     32 H2         -1.3050    3.6390    6.8220 h1        1 1N3      0.087333
     33 H3         -1.0590    2.3440    5.9080 h1        1 1N3      0.087333
     34 H4         -2.6830    4.7960    3.2060 ha        1 1N3      0.156000
     35 H5         -3.0500    4.0430    0.9850 ha        1 1N3      0.157000
     36 H6         -3.3740    0.1800    2.3450 ha        1 1N3      0.135000
     37 H7         -3.0080    0.9290    4.5650 ha        1 1N3      0.143000
     38 H8         -5.4120    1.4960   -0.4080 DU        1 1N3      0.269000
     39 H10        -4.8370   -0.5060   -4.8200 ha        1 1N3      0.175000
     40 H11        -0.3360    0.9780   -3.1550 hn        1 1N3      0.204000
     41 H12        -0.3740   -1.7660   -2.8560 h1        1 1N3      0.107500
     42 H13        -0.0830   -1.2870   -4.3620 h1        1 1N3      0.107500
     43 H14         1.5310   -0.0650   -2.4080 hc        1 1N3      0.092500
     44 H15         1.9690   -0.5760   -3.8660 hc        1 1N3      0.092500
     45 H16         1.3590   -2.5380   -1.8980 h1        1 1N3      0.104500
     46 H17         2.3660   -2.6850   -3.1410 h1        1 1N3      0.104500
     47 H18         3.6510   -0.9790   -1.7330 hn        1 1N3      0.218000
     48 H19         5.0460   -1.2740   -1.1240 hc        1 1N3      0.119750
     49 H20         6.1830   -1.0930    0.1240 hc        1 1N3      0.119750
     50 H21         4.6620   -0.4340    1.4160 hc        1 1N3      0.119750
     51 H22         3.5240   -0.6170    0.1630 hc        1 1N3      0.119750
     52 H23         4.5360   -3.5740    0.3670 h1        1 1N3      0.075000
     53 H24         5.6110   -2.8360    1.3120 h1        1 1N3      0.075000
     54 H25         4.1690   -2.5680    2.8080 hn        1 1N3      0.152500
     55 H26         3.3560   -3.6120    2.0950 hn        1 1N3      0.152500
@<TRIPOS>BOND
     1    1    2 1   
     2    1   31 1   
     3    1   32 1   
     4    1   33 1   
     5    2    3 1   
     6    3    4 1   
     7    3    8 1   
     8    4    5 1   
     9    4   34 1   
    10    5   35 1   
    11    6    7 1   
    12    7   36 1   
    13    8   37 1   
    14    9   10 1   
    15    9   13 1   
    16   10   11 1   
    17   11   17 1   
    18   12   14 1   
    19   14   19 1   
    20   15   16 1   
    21   15   18 1   
    22   16   39 1   
    23   19   20 1   
    24   19   40 1   
    25   20   21 1   
    26   20   41 1   
    27   20   42 1   
    28   21   22 1   
    29   21   43 1   
    30   21   44 1   
    31   22   23 1   
    32   22   45 1   
    33   22   46 1   
    34   23   24 1   
    35   23   47 1   
    36   24   25 1   
    37   24   26 1   
    38   26   27 1   
    39   26   28 1   
    40   26   29 1   
    41   27   28 1   
    42   27   48 1   
    43   27   49 1   
    44   28   50 1   
    45   28   51 1   
    46   29   30 1   
    47   29   52 1   
    48   29   53 1   
    49   30   54 1   
    50   30   55 1   
@<TRIPOS>SUBSTRUCTURE
     1 1N3         1 TEMP              0 ****  ****    0 ROOT
