@<TRIPOS>MOLECULE
1N3
   55    58     1     0     0
SMALL
bcc


@<TRIPOS>ATOM
      1 C1          6.7570    5.2230   -0.6430 c3        1 1N3      0.111700
      2 O2          6.1970    4.3130   -1.5840 os        1 1N3     -0.322900
      3 C3          5.4160    3.3010   -1.0680 ca        1 1N3      0.144100
      4 C4          4.8700    2.4260   -2.0280 ca        1 1N3     -0.186000
      5 C5          4.0700    1.3710   -1.6110 ca        1 1N3     -0.065500
      6 C6          3.8100    1.1750   -0.2450 ca        1 1N3     -0.157900
      7 C7          4.3510    2.0530    0.6990 ca        1 1N3     -0.065500
      8 C8          5.1560    3.1160    0.2960 ca        1 1N3     -0.186000
      9 C9          2.9620    0.0570    0.1710 cc        1 1N3      0.477400
     10 N10         3.2010   -0.6440    1.3810 na        1 1N3     -0.371000
     11 C11         2.2260   -1.6450    1.4600 ca        1 1N3      0.429800
     12 C12         1.4090   -1.4910    0.2650 ca        1 1N3     -0.093900
     13 N13         1.8970   -0.4280   -0.5090 nd        1 1N3     -0.561100
     14 C14         0.3070   -2.3710    0.0580 ca        1 1N3      0.251600
     15 C15         0.1210   -3.3490    1.0570 ca        1 1N3     -0.207200
     16 C16         0.9800   -3.3890    2.1910 ca        1 1N3      0.459200
     17 N17         2.0140   -2.5820    2.4320 nb        1 1N3     -0.673000
     18 BR1        -1.1890   -4.6770    0.9550 br        1 1N3     -0.067100
     19 N19        -0.4460   -2.3060   -1.1230 nh        1 1N3     -0.707600
     20 C20        -1.8660   -2.0440   -1.0420 c3        1 1N3      0.176800
     21 C21        -2.2550   -0.5680   -0.9350 c3        1 1N3     -0.144400
     22 C22        -3.7800   -0.4550   -0.9420 c3        1 1N3      0.087000
     23 N23        -4.2750    0.8930   -0.9020 n         1 1N3     -0.559900
     24 C24        -4.8950    1.4240    0.2130 c         1 1N3      0.689100
     25 O25        -5.1810    0.7150    1.2000 o         1 1N3     -0.612100
     26 C26        -5.2290    2.8890    0.1920 cx        1 1N3     -0.247000
     27 C27        -6.6600    3.2900   -0.0700 cx        1 1N3     -0.109900
     28 C28        -5.6050    3.5930   -1.0870 cx        1 1N3     -0.109900
     29 C29        -4.4360    3.6600    1.2360 c3        1 1N3      0.195800
     30 N30        -4.6480    3.2800    2.6060 n3        1 1N3     -0.899800
     31 H1          7.3320    5.9370   -1.2850 h1        1 1N3      0.047700
     32 H2          5.9510    5.7560   -0.0830 h1        1 1N3      0.047700
     33 H3          7.4390    4.6890    0.0630 h1        1 1N3      0.047700
     34 H4          5.0830    2.5920   -3.0940 ha        1 1N3      0.149500
     35 H5          3.6370    0.6860   -2.3580 ha        1 1N3      0.146000
     36 H6          4.1360    1.9260    1.7720 ha        1 1N3      0.146000
     37 H7          5.5720    3.7990    1.0500 ha        1 1N3      0.149500
     38 H8          3.9420   -0.4940    2.0130 hn        1 1N3      0.318700
     39 H10         0.8080   -4.1560    2.9740 h4        1 1N3      0.038100
     40 H11        -0.0070   -1.7240   -1.8130 hn        1 1N3      0.408800
     41 H12        -2.3150   -2.4720   -1.9850 h1        1 1N3      0.067700
     42 H13        -2.3070   -2.5990   -0.1660 h1        1 1N3      0.067700
     43 H14        -1.8410   -0.1310    0.0110 hc        1 1N3      0.053700
     44 H15        -1.8200    0.0090   -1.7920 hc        1 1N3      0.053700
     45 H16        -4.1730   -0.9370   -1.8840 h1        1 1N3      0.064700
     46 H17        -4.1970   -1.0220   -0.0590 h1        1 1N3      0.064700
     47 H18        -3.9310    1.5190   -1.5910 hn        1 1N3      0.308500
     48 H19        -7.4040    2.5010   -0.2820 hc        1 1N3      0.078950
     49 H20        -7.0880    4.1140    0.5290 hc        1 1N3      0.078950
     50 H21        -5.2710    4.6380   -1.2240 hc        1 1N3      0.078950
     51 H22        -5.6080    3.0380   -2.0420 hc        1 1N3      0.078950
     52 H23        -3.3390    3.5380    1.0050 h1        1 1N3      0.054700
     53 H24        -4.6890    4.7540    1.1330 h1        1 1N3      0.054700
     54 H25        -5.6060    3.4110    2.8650 hn        1 1N3      0.358300
     55 H26        -4.4120    2.3150    2.7500 hn        1 1N3      0.358300
@<TRIPOS>BOND
     1    1    2 1   
     2    1   31 1   
     3    1   32 1   
     4    1   33 1   
     5    2    3 1   
     6    3    4 ar  
     7    3    8 ar  
     8    4    5 ar  
     9    4   34 1   
    10    5    6 ar  
    11    5   35 1   
    12    6    7 ar  
    13    6    9 1   
    14    7    8 ar  
    15    7   36 1   
    16    8   37 1   
    17    9   10 1   
    18    9   13 2   
    19   10   11 1   
    20   10   38 1   
    21   11   12 ar  
    22   11   17 ar  
    23   12   13 1   
    24   12   14 ar  
    25   14   15 ar  
    26   14   19 1   
    27   15   16 ar  
    28   15   18 1   
    29   16   17 ar  
    30   16   39 1   
    31   19   20 1   
    32   19   40 1   
    33   20   21 1   
    34   20   41 1   
    35   20   42 1   
    36   21   22 1   
    37   21   43 1   
    38   21   44 1   
    39   22   23 1   
    40   22   45 1   
    41   22   46 1   
    42   23   24 1   
    43   23   47 1   
    44   24   25 2   
    45   24   26 1   
    46   26   27 1   
    47   26   28 1   
    48   26   29 1   
    49   27   28 1   
    50   27   48 1   
    51   27   49 1   
    52   28   50 1   
    53   28   51 1   
    54   29   30 1   
    55   29   52 1   
    56   29   53 1   
    57   30   54 1   
    58   30   55 1   
@<TRIPOS>SUBSTRUCTURE
     1 1N3         1 TEMP              0 ****  ****    0 ROOT
