@<TRIPOS>MOLECULE
1N3
   57    60     1     0     0
SMALL
bcc


@<TRIPOS>ATOM
      1 C1          5.7370   -2.4660   -1.1630 c3        1 1N3      0.123700
      2 O2          6.6200   -2.6760   -0.0490 os        1 1N3     -0.413900
      3 C3          6.2040   -2.1180    1.1480 ca        1 1N3      0.085100
      4 C4          6.1120   -0.7290    1.3140 ca        1 1N3     -0.178000
      5 C5          5.9650   -0.2070    2.5980 ca        1 1N3     -0.082000
      6 C6          5.9130   -1.0730    3.6980 ca        1 1N3     -0.159900
      7 C7          5.8750   -2.4620    3.5110 ca        1 1N3     -0.082000
      8 C8          6.0260   -2.9920    2.2330 ca        1 1N3     -0.178000
      9 C9          6.0110   -0.5390    5.0600 cc        1 1N3      0.501400
     10 N10         5.1770    0.4580    5.5840 na        1 1N3     -0.324000
     11 C11         5.6550    0.7460    6.8750 ca        1 1N3      0.436800
     12 C12         6.8000   -0.1290    7.0740 ca        1 1N3     -0.049900
     13 N13         6.9870   -0.9100    5.9320 nd        1 1N3     -0.694100
     14 C14         7.5330   -0.0480    8.2900 ca        1 1N3      0.186600
     15 C15         7.0780    0.9050    9.2130 ca        1 1N3     -0.186200
     16 C16         5.9360    1.7130    8.9090 ca        1 1N3      0.479200
     17 N17         5.2160    1.6610    7.7890 nb        1 1N3     -0.617000
     18 BR1         7.9210    1.1630   10.8540 br        1 1N3     -0.003100
     19 N19         8.6790   -0.8660    8.4460 nh        1 1N3     -0.749600
     20 C20         8.3920   -2.2560    8.7840 c3        1 1N3      0.148800
     21 C21         9.4610   -3.2110    8.2570 c3        1 1N3     -0.110400
     22 C22         9.2710   -3.5860    6.7960 c3        1 1N3      0.125800
     23 N23         9.3200   -2.4090    5.8730 n4        1 1N3     -0.695800
     24 C24         9.4590   -2.8030    4.4560 c         1 1N3      0.586100
     25 O25         8.9280   -3.8570    4.0970 o         1 1N3     -0.478100
     26 C26        10.1940   -1.9200    3.5070 cx        1 1N3     -0.300000
     27 C27        11.7150   -2.0260    3.4690 cx        1 1N3     -0.069400
     28 C28        11.0850   -0.7720    3.9600 cx        1 1N3     -0.069400
     29 C29         9.4500   -1.6840    2.2120 c3        1 1N3      0.141800
     30 N30         9.1530   -2.9130    1.4240 n4        1 1N3     -0.843600
     31 H1          4.7420   -2.9250   -0.9490 h1        1 1N3      0.069700
     32 H2          6.2530   -2.9960   -2.0040 h1        1 1N3      0.069700
     33 H3          5.6380   -1.3740   -1.3720 h1        1 1N3      0.069700
     34 H4          6.1500   -0.0580    0.4400 ha        1 1N3      0.176000
     35 H5          5.9070    0.8850    2.7420 ha        1 1N3      0.169000
     36 H6          5.7220   -3.1340    4.3710 ha        1 1N3      0.169000
     37 H7          5.9780   -4.0800    2.0620 ha        1 1N3      0.176000
     38 H8          4.3630    0.8370    5.1630 hn        1 1N3      0.350700
     39 H10         5.5800    2.4610    9.6520 h4        1 1N3      0.076100
     40 H11         9.3250   -0.4660    9.1070 hn        1 1N3      0.409800
     41 H12         8.3320   -2.3950    9.9040 h1        1 1N3      0.076200
     42 H13         7.3910   -2.5510    8.3590 h1        1 1N3      0.076200
     43 H14        10.4910   -2.8020    8.4310 hc        1 1N3      0.096200
     44 H15         9.3840   -4.1720    8.8410 hc        1 1N3      0.096200
     45 H16         8.2690   -4.0850    6.6460 hx        1 1N3      0.104200
     46 H17        10.0770   -4.3120    6.4870 hx        1 1N3      0.104200
     47 H18         8.3790   -1.8530    5.9590 hn        1 1N3      0.506800
     48 H19        12.2210   -2.7060    4.1820 hc        1 1N3      0.117450
     49 H20        12.2140   -2.0370    2.4790 hc        1 1N3      0.117450
     50 H21        11.1120    0.1390    3.3260 hc        1 1N3      0.117450
     51 H22        11.1520   -0.4950    5.0290 hc        1 1N3      0.117450
     52 H23        10.0660   -0.9970    1.5550 hx        1 1N3      0.129700
     53 H24         8.4560   -1.1780    2.4240 hx        1 1N3      0.129700
     54 H25        10.0080   -3.4470    1.2420 hn        1 1N3      0.478800
     55 H26         8.7110   -2.6510    0.5260 hn        1 1N3      0.478800
     56 H232       10.0740   -1.7790    6.1600 hn        1 1N3      0.506800
     57 H303        8.4870   -3.5150    1.9360 hn        1 1N3      0.478800
@<TRIPOS>BOND
     1    1    2 1   
     2    1   31 1   
     3    1   32 1   
     4    1   33 1   
     5    2    3 1   
     6    3    4 ar  
     7    3    8 ar  
     8    4    5 ar  
     9    4   34 1   
    10    5    6 ar  
    11    5   35 1   
    12    6    7 ar  
    13    6    9 1   
    14    7    8 ar  
    15    7   36 1   
    16    8   37 1   
    17    9   10 1   
    18    9   13 2   
    19   10   11 1   
    20   10   38 1   
    21   11   12 ar  
    22   11   17 ar  
    23   12   13 1   
    24   12   14 ar  
    25   14   15 ar  
    26   14   19 1   
    27   15   16 ar  
    28   15   18 1   
    29   16   17 ar  
    30   16   39 1   
    31   19   20 1   
    32   19   40 1   
    33   20   21 1   
    34   20   41 1   
    35   20   42 1   
    36   21   22 1   
    37   21   43 1   
    38   21   44 1   
    39   22   23 1   
    40   22   45 1   
    41   22   46 1   
    42   23   24 1   
    43   23   47 1   
    44   23   56 1   
    45   24   25 2   
    46   24   26 1   
    47   26   27 1   
    48   26   28 1   
    49   26   29 1   
    50   27   28 1   
    51   27   48 1   
    52   27   49 1   
    53   28   50 1   
    54   28   51 1   
    55   29   30 1   
    56   29   52 1   
    57   29   53 1   
    58   30   54 1   
    59   30   55 1   
    60   30   57 1   
@<TRIPOS>SUBSTRUCTURE
     1 1N3         1 TEMP              0 ****  ****    0 ROOT
