@<TRIPOS>MOLECULE
1N3
   58    61     1     0     0
SMALL
bcc


@<TRIPOS>ATOM
      1 C1          0.5220    0.0780   -0.2830 c3        1 1N3      0.102700
      2 O2          1.8430    0.5400    0.0180 os        1 1N3     -0.299900
      3 C3          2.3040    0.3310    1.2840 ca        1 1N3      0.208100
      4 C4          3.5830    0.8750    1.5510 ca        1 1N3     -0.194000
      5 C5          4.1440    0.7180    2.8050 ca        1 1N3     -0.035500
      6 C6          3.4510    0.0240    3.8180 ca        1 1N3     -0.246900
      7 C7          2.1840   -0.5190    3.5410 ca        1 1N3     -0.035500
      8 C8          1.6110   -0.3710    2.2860 ca        1 1N3     -0.194000
      9 C9          4.0490   -0.1000    5.1370 cc        1 1N3      0.622400
     10 N10         3.2640   -0.2760    6.2990 na        1 1N3     -0.358000
     11 C11         4.1400   -0.3280    7.3910 ca        1 1N3      0.447800
     12 C12         5.4860   -0.1760    6.7970 ca        1 1N3      0.002100
     13 N13         5.3940   -0.0510    5.4160 nd        1 1N3     -0.669100
     14 C14         6.5720   -0.1640    7.6810 ca        1 1N3     -0.021400
     15 C15         6.3280   -0.3240    9.0610 ca        1 1N3     -0.148200
     16 C16         4.9900   -0.4730    9.5020 ca        1 1N3      0.456200
     17 N17         3.9020   -0.4790    8.7120 nb        1 1N3     -0.567000
     18 BR1         7.7150   -0.3140   10.3050 br        1 1N3     -0.012100
     19 N19         7.9160    0.0650    7.1460 n4        1 1N3     -0.613400
     20 C20         8.4980   -1.1930    6.5880 c3        1 1N3      0.104800
     21 C21         9.9120   -1.0050    6.0320 c3        1 1N3     -0.136400
     22 C22        10.4100   -2.3630    5.5380 c3        1 1N3      0.110800
     23 N23        11.7910   -2.2970    4.9540 n4        1 1N3     -0.668800
     24 C24        12.3040   -3.6360    4.4760 c         1 1N3      0.587100
     25 O25        11.5320   -4.5840    4.5410 o         1 1N3     -0.422100
     26 C26        13.6980   -3.7120    3.9700 cx        1 1N3     -0.319000
     27 C27        14.8530   -3.3900    4.9200 cx        1 1N3     -0.059900
     28 C28        14.5760   -2.4750    3.7840 cx        1 1N3     -0.059900
     29 C29        13.8790   -4.8050    2.9370 c3        1 1N3      0.143800
     30 N30        13.8000   -6.1910    3.4810 n4        1 1N3     -0.843600
     31 H1         -0.2250    0.5660    0.3880 h1        1 1N3      0.067367
     32 H2          0.4730   -1.0340   -0.2000 h1        1 1N3      0.067367
     33 H3          0.3800    0.4070   -1.3450 h1        1 1N3      0.067367
     34 H4          4.1050    1.4280    0.7550 ha        1 1N3      0.171500
     35 H5          5.1310    1.1580    3.0120 ha        1 1N3      0.141000
     36 H6          1.6290   -1.0860    4.3060 ha        1 1N3      0.141000
     37 H7          0.6170   -0.8010    2.0840 ha        1 1N3      0.171500
     38 H8          2.2720   -0.2990    6.3490 hn        1 1N3      0.356700
     39 H10         4.7690   -0.5920   10.5870 h4        1 1N3      0.088100
     40 H11         7.8440    0.7750    6.4010 hn        1 1N3      0.470800
     41 H12         7.8000   -1.5510    5.7720 hx        1 1N3      0.130700
     42 H13         8.5030   -1.9620    7.4150 hx        1 1N3      0.130700
     43 H14         9.8940   -0.2620    5.1880 hc        1 1N3      0.089700
     44 H15        10.5930   -0.6070    6.8320 hc        1 1N3      0.089700
     45 H16        10.4340   -3.1060    6.3890 hx        1 1N3      0.132700
     46 H17         9.7190   -2.7660    4.7380 hx        1 1N3      0.132700
     47 H18        11.7900   -1.6480    4.1510 hn        1 1N3      0.476300
     48 H19        15.7510   -4.0420    4.8890 hc        1 1N3      0.126700
     49 H20        14.6250   -3.0790    5.9580 hc        1 1N3      0.126700
     50 H21        15.2660   -2.4570    2.9110 hc        1 1N3      0.126700
     51 H22        14.1630   -1.4650    3.9630 hc        1 1N3      0.126700
     52 H23        14.8960   -4.6860    2.4480 hx        1 1N3      0.144700
     53 H24        13.0900   -4.7090    2.1300 hx        1 1N3      0.144700
     54 H25        14.5190   -6.3450    4.1980 hn        1 1N3      0.481800
     55 H26        12.8740   -6.3700    3.8950 hn        1 1N3      0.481800
     56 H192        8.5170    0.4290    7.9030 hn        1 1N3      0.470800
     57 H232       12.4460   -1.9270    5.6580 hn        1 1N3      0.476300
     58 H303       13.9530   -6.8660    2.7150 hn        1 1N3      0.481800
@<TRIPOS>BOND
     1    1    2 1   
     2    1   31 1   
     3    1   32 1   
     4    1   33 1   
     5    2    3 1   
     6    3    4 ar  
     7    3    8 ar  
     8    4    5 ar  
     9    4   34 1   
    10    5    6 ar  
    11    5   35 1   
    12    6    7 ar  
    13    6    9 1   
    14    7    8 ar  
    15    7   36 1   
    16    8   37 1   
    17    9   10 1   
    18    9   13 2   
    19   10   11 1   
    20   10   38 1   
    21   11   12 ar  
    22   11   17 ar  
    23   12   13 1   
    24   12   14 ar  
    25   14   15 ar  
    26   14   19 1   
    27   15   16 ar  
    28   15   18 1   
    29   16   17 ar  
    30   16   39 1   
    31   19   20 1   
    32   19   40 1   
    33   19   56 1   
    34   20   21 1   
    35   20   41 1   
    36   20   42 1   
    37   21   22 1   
    38   21   43 1   
    39   21   44 1   
    40   22   23 1   
    41   22   45 1   
    42   22   46 1   
    43   23   24 1   
    44   23   47 1   
    45   23   57 1   
    46   24   25 2   
    47   24   26 1   
    48   26   27 1   
    49   26   28 1   
    50   26   29 1   
    51   27   28 1   
    52   27   48 1   
    53   27   49 1   
    54   28   50 1   
    55   28   51 1   
    56   29   30 1   
    57   29   52 1   
    58   29   53 1   
    59   30   54 1   
    60   30   55 1   
    61   30   58 1   
@<TRIPOS>SUBSTRUCTURE
     1 1N3         1 TEMP              0 ****  ****    0 ROOT
