@<TRIPOS>MOLECULE
1N4
   27    27     1     0     0
SMALL
bcc


@<TRIPOS>ATOM
      1 CAA        -0.0660   -0.0360    0.1290 c3        1 1N4     -0.092100
      2 CAG         1.4390    0.0150    0.0950 c3        1 1N4     -0.088400
      3 CAH         2.0260   -0.1690    1.4850 c3        1 1N4     -0.010100
      4 CAK         3.4880   -0.0530    1.4840 cc        1 1N4     -0.187600
      5 CAF         4.4450   -1.1440    1.6050 cc        1 1N4      0.305200
      6 NAI         5.7160   -0.6930    1.5210 nd        1 1N4     -0.470800
      7 NAN         5.6310    0.6220    1.2190 na        1 1N4      0.217300
      8 OAE         6.6320    1.4410    1.4940 oh        1 1N4     -0.442200
      9 CAL         4.2760    1.0900    1.3120 cd        1 1N4     -0.155600
     10 CA          3.9220    2.5020    1.0830 c3        1 1N4     -0.001200
     11 C           4.5410    2.9840   -0.3380 c         1 1N4      0.946600
     12 O           5.7650    3.2690   -0.2700 o         1 1N4     -0.751300
     13 OXT         3.7320    3.0310   -1.2720 o         1 1N4     -0.751300
     14 N           4.5350    3.3680    2.1450 nz        1 1N4     -0.826600
     15 H1         -0.4760    0.7750    0.7770 hc        1 1N4      0.033700
     16 H2         -0.4200   -1.0170    0.5290 hc        1 1N4      0.033700
     17 H3         -0.4770    0.0940   -0.9010 hc        1 1N4      0.033700
     18 H4          1.8310   -0.7890   -0.5830 hc        1 1N4      0.060200
     19 H5          1.7820    0.9970   -0.3300 hc        1 1N4      0.060200
     20 H6          1.5870    0.6030    2.1750 hc        1 1N4      0.046200
     21 H7          1.7300   -1.1770    1.8850 hc        1 1N4      0.046200
     22 H8          4.2140   -2.2040    1.7280 h4        1 1N4      0.053100
     23 H9          6.9330    1.7910    0.6150 ho        1 1N4      0.485000
     24 H10         2.8080    2.6420    1.0780 hx        1 1N4      0.112700
     25 H12         5.5370    3.4680    1.8840 hn        1 1N4      0.448133
     26 H13         4.4600    2.9470    3.0680 hn        1 1N4      0.448133
     27 HN3         4.0940    4.2850    2.1310 hn        1 1N4      0.448133
@<TRIPOS>BOND
     1    1    2 1   
     2    1   15 1   
     3    1   16 1   
     4    1   17 1   
     5    2    3 1   
     6    2   18 1   
     7    2   19 1   
     8    3    4 1   
     9    3   20 1   
    10    3   21 1   
    11    4    5 1   
    12    4    9 2   
    13    5    6 2   
    14    5   22 1   
    15    6    7 1   
    16    7    8 1   
    17    7    9 1   
    18    8   23 1   
    19    9   10 1   
    20   10   11 1   
    21   10   14 1   
    22   10   24 1   
    23   11   12 1   
    24   11   13 1   
    25   14   25 1   
    26   14   26 1   
    27   14   27 1   
@<TRIPOS>SUBSTRUCTURE
     1 1N4         1 TEMP              0 ****  ****    0 ROOT
