@<TRIPOS>MOLECULE
1N4
   27    27     1     0     0
SMALL
bcc


@<TRIPOS>ATOM
      1 CAA        -0.0750   -0.0170    0.1460 c3        1 1N4     -0.092100
      2 CAG         1.4300    0.0260    0.1040 c3        1 1N4     -0.088400
      3 CAH         2.0230   -0.1650    1.4900 c3        1 1N4     -0.010100
      4 CAK         3.4860   -0.0550    1.4820 cc        1 1N4     -0.187600
      5 CAF         4.4380   -1.1510    1.5960 cc        1 1N4      0.305200
      6 NAI         5.7110   -0.7060    1.5050 nd        1 1N4     -0.470800
      7 NAN         5.6300    0.6100    1.2060 na        1 1N4      0.217300
      8 OAE         6.6360    1.4240    1.4770 oh        1 1N4     -0.442200
      9 CAL         4.2780    1.0850    1.3070 cd        1 1N4     -0.155600
     10 CA          3.9300    2.4980    1.0820 c3        1 1N4     -0.001200
     11 C           4.5420    2.9790   -0.3420 c         1 1N4      0.946600
     12 O           5.7680    3.2590   -0.2810 o         1 1N4     -0.751300
     13 OXT         3.7290    3.0310   -1.2710 o         1 1N4     -0.751300
     14 N           4.5520    3.3590    2.1420 n4        1 1N4     -0.826600
     15 H1         -0.4910    0.1180   -0.8810 hc        1 1N4      0.033700
     16 H2         -0.4330   -0.9970    0.5460 hc        1 1N4      0.033700
     17 H3         -0.4780    0.7950    0.7980 hc        1 1N4      0.033700
     18 H4          1.8130   -0.7780   -0.5780 hc        1 1N4      0.060200
     19 H5          1.7750    1.0070   -0.3210 hc        1 1N4      0.060200
     20 H6          1.7250   -1.1720    1.8890 hc        1 1N4      0.046200
     21 H7          1.5920    0.6090    2.1840 hc        1 1N4      0.046200
     22 H8          4.2030   -2.2090    1.7190 h4        1 1N4      0.053100
     23 H9          6.9350    1.7740    0.5960 ho        1 1N4      0.485000
     24 H10         2.8160    2.6430    1.0830 hx        1 1N4      0.112700
     25 H12         4.4810    2.9380    3.0650 hn        1 1N4      0.448133
     26 H13         4.1160    4.2790    2.1310 hn        1 1N4      0.448133
     27 HN3         5.5530    3.4550    1.8760 hn        1 1N4      0.448133
@<TRIPOS>BOND
     1    1    2 1   
     2    1   15 1   
     3    1   16 1   
     4    1   17 1   
     5    2    3 1   
     6    2   18 1   
     7    2   19 1   
     8    3    4 1   
     9    3   20 1   
    10    3   21 1   
    11    4    5 1   
    12    4    9 2   
    13    5    6 2   
    14    5   22 1   
    15    6    7 1   
    16    7    8 1   
    17    7    9 1   
    18    8   23 1   
    19    9   10 1   
    20   10   11 1   
    21   10   14 1   
    22   10   24 1   
    23   11   12 1   
    24   11   13 1   
    25   14   25 1   
    26   14   26 1   
    27   14   27 1   
@<TRIPOS>SUBSTRUCTURE
     1 1N4         1 TEMP              0 ****  ****    0 ROOT
