@<TRIPOS>MOLECULE
1N4
   26    23     1     0     0
SMALL
bcc


@<TRIPOS>ATOM
      1 CAA        -3.1400    1.1260   -1.9470 c3        1 1N4     -0.082100
      2 CAG        -1.8250    0.3270   -1.8470 c3        1 1N4     -0.103400
      3 CAH        -1.4640    0.1050   -0.3510 c3        1 1N4      0.013800
      4 CAK        -0.1180   -0.7450   -0.2470 ce        1 1N4     -0.228000
      5 CAF         0.1650   -1.8810   -0.9380 cg        1 1N4      0.186000
      6 NAI         1.3610   -2.3120   -0.5480 n1        1 1N4     -0.489100
      7 NAN         1.8340   -1.4500    0.3860 ne        1 1N4     -0.175100
      8 OAE         3.0100   -1.5850    1.0870 o         1 1N4     -0.215000
      9 CAL         0.9170   -0.4880    0.5650 c1        1 1N4      0.177000
     10 CA          1.0410    0.6830    1.4870 c2        1 1N4      0.001000
     11 C           2.2700    1.4690    1.1340 c         1 1N4      0.883600
     12 O           3.3300    0.8790    0.8670 o         1 1N4     -0.822300
     13 OXT         2.2300    2.7270    1.1250 o         1 1N4     -0.822300
     14 N           1.1440    0.2130    2.8530 nh        1 1N4     -0.810600
     15 H1         -3.0200    2.0140   -1.5250 hc        1 1N4      0.019367
     16 H2         -3.8500    0.6410   -1.4880 hc        1 1N4      0.019367
     17 H3         -3.3890    1.2450   -2.9200 hc        1 1N4      0.019367
     18 H4         -1.9320   -0.5270   -2.2830 hc        1 1N4      0.073700
     19 H5         -1.1420    0.8030   -2.2620 hc        1 1N4      0.073700
     20 H6         -1.3330    0.9840    0.0920 hc        1 1N4      0.027700
     21 H7         -2.1890   -0.3770    0.0910 hc        1 1N4      0.027700
     22 H8         -0.3530   -2.2500   -1.6260 DU        1 1N4      0.159000
     23 H9          3.4000   -2.4080    0.8830 ho        1 1N4      0.268000
     24 H10         0.2520    1.2550    1.3970 h4        1 1N4      0.114000
     25 H12         2.0200    0.1890    3.1010 hn        1 1N4      0.342300
     26 H13         0.7800   -0.6400    2.9140 hn        1 1N4      0.342300
@<TRIPOS>BOND
     1    1    2 1   
     2    1   15 1   
     3    1   16 1   
     4    1   17 1   
     5    2    3 1   
     6    2   18 1   
     7    2   19 1   
     8    3    4 1   
     9    3   20 1   
    10    3   21 1   
    11    4    5 1   
    12    4    9 2   
    13    5    6 3   
    14    6    7 1   
    15    7    9 2   
    16    8   23 1   
    17   10   11 2   
    18   10   14 1   
    19   10   24 1   
    20   11   12 1   
    21   11   13 1   
    22   14   25 1   
    23   14   26 1   
@<TRIPOS>SUBSTRUCTURE
     1 1N4         1 TEMP              0 ****  ****    0 ROOT
