@<TRIPOS>MOLECULE
1N4
   26    26     1     0     0
SMALL
bcc


@<TRIPOS>ATOM
      1 CAA         4.0660    0.8600   -0.1120 c3        1 1N4     -0.082100
      2 CAG         2.7240    0.3280    0.3160 c3        1 1N4     -0.103400
      3 CAH         2.2400   -0.7660   -0.6210 c3        1 1N4      0.016900
      4 CAK         0.8950   -1.2320   -0.2710 cc        1 1N4     -0.266600
      5 CAF         0.5430   -2.5120    0.3250 cc        1 1N4      0.297200
      6 NAI        -0.7850   -2.6040    0.5390 nd        1 1N4     -0.533800
      7 NAN        -1.3340   -1.4890   -0.0160 na        1 1N4      0.197300
      8 OAE        -2.5520   -1.1090    0.3170 oh        1 1N4     -0.436200
      9 CAL        -0.3230   -0.5600   -0.4230 cd        1 1N4     -0.076600
     10 CA         -0.6350    0.8280   -0.8810 c3        1 1N4      0.073800
     11 C          -0.7930    1.6920    0.4330 c         1 1N4      0.933600
     12 O           0.1250    2.5020    0.7040 o         1 1N4     -0.822300
     13 OXT        -1.8330    1.4840    1.1240 o         1 1N4     -0.822300
     14 N          -1.7920    0.9540   -1.7420 n3        1 1N4     -0.886800
     15 H1          4.4070    1.6550    0.5930 hc        1 1N4      0.019367
     16 H2          4.8330    0.0470   -0.1270 hc        1 1N4      0.019367
     17 H3          4.0060    1.3020   -1.1360 hc        1 1N4      0.019367
     18 H4          2.7930   -0.0790    1.3580 hc        1 1N4      0.073700
     19 H5          1.9630    1.1620    0.3390 hc        1 1N4      0.073700
     20 H6          2.2370   -0.3690   -1.6740 hc        1 1N4      0.027700
     21 H7          2.9580   -1.6300   -0.5930 hc        1 1N4      0.027700
     22 H8          1.2280   -3.3240    0.5690 h4        1 1N4      0.022100
     23 H9         -2.4800   -0.3370    0.9420 ho        1 1N4      0.469000
     24 H10         0.2620    1.2090   -1.4500 h1        1 1N4      0.074700
     25 H12        -1.9070    0.1290   -2.2980 hn        1 1N4      0.342300
     26 H13        -2.6150    1.0670   -1.1760 hn        1 1N4      0.342300
@<TRIPOS>BOND
     1    1    2 1   
     2    1   15 1   
     3    1   16 1   
     4    1   17 1   
     5    2    3 1   
     6    2   18 1   
     7    2   19 1   
     8    3    4 1   
     9    3   20 1   
    10    3   21 1   
    11    4    5 1   
    12    4    9 2   
    13    5    6 2   
    14    5   22 1   
    15    6    7 1   
    16    7    8 1   
    17    7    9 1   
    18    8   23 1   
    19    9   10 1   
    20   10   11 1   
    21   10   14 1   
    22   10   24 1   
    23   11   12 1   
    24   11   13 1   
    25   14   25 1   
    26   14   26 1   
@<TRIPOS>SUBSTRUCTURE
     1 1N4         1 TEMP              0 ****  ****    0 ROOT
