@<TRIPOS>MOLECULE
1N4
   27    27     1     0     0
SMALL
bcc


@<TRIPOS>ATOM
      1 CAA        -0.0720   -0.0020    0.1110 c3        1 1N4     -0.092100
      2 CAG         1.4340    0.0340    0.0860 c3        1 1N4     -0.088400
      3 CAH         2.0100   -0.1560    1.4790 c3        1 1N4     -0.010100
      4 CAK         3.4730   -0.0540    1.4870 cc        1 1N4     -0.187600
      5 CAF         4.4190   -1.1550    1.6150 cc        1 1N4      0.305200
      6 NAI         5.6950   -0.7170    1.5370 nd        1 1N4     -0.470800
      7 NAN         5.6250    0.5990    1.2340 na        1 1N4      0.217300
      8 OAE         6.6320    1.4080    1.5150 oh        1 1N4     -0.442200
      9 CAL         4.2740    1.0800    1.3190 cd        1 1N4     -0.155600
     10 CA          3.9360    2.4960    1.0860 c3        1 1N4     -0.001200
     11 C           4.5680    2.9700   -0.3310 c         1 1N4      0.946600
     12 O           5.7940    3.2430   -0.2560 o         1 1N4     -0.751300
     13 OXT         3.7650    3.0250   -1.2700 o         1 1N4     -0.751300
     14 N           4.5510    3.3560    2.1510 n4        1 1N4     -0.826600
     15 H1         -0.4390   -0.9780    0.5090 hc        1 1N4      0.033700
     16 H2         -0.4750    0.1330   -0.9220 hc        1 1N4      0.033700
     17 H3         -0.4780    0.8150    0.7560 hc        1 1N4      0.033700
     18 H4          1.7890    1.0120   -0.3380 hc        1 1N4      0.060200
     19 H5          1.8210   -0.7740   -0.5900 hc        1 1N4      0.060200
     20 H6          1.7020   -1.1600    1.8780 hc        1 1N4      0.046200
     21 H7          1.5750    0.6220    2.1660 hc        1 1N4      0.046200
     22 H8          4.1760   -2.2120    1.7370 h4        1 1N4      0.053100
     23 H9          6.9420    1.7540    0.6360 ho        1 1N4      0.485000
     24 H10         2.8230    2.6470    1.0750 hx        1 1N4      0.112700
     25 H12         5.5560    3.4450    1.8970 hn        1 1N4      0.448133
     26 H13         4.4670    2.9370    3.0750 hn        1 1N4      0.448133
     27 HN3         4.1200    4.2770    2.1340 hn        1 1N4      0.448133
@<TRIPOS>BOND
     1    1    2 1   
     2    1   15 1   
     3    1   16 1   
     4    1   17 1   
     5    2    3 1   
     6    2   18 1   
     7    2   19 1   
     8    3    4 1   
     9    3   20 1   
    10    3   21 1   
    11    4    5 1   
    12    4    9 2   
    13    5    6 2   
    14    5   22 1   
    15    6    7 1   
    16    7    8 1   
    17    7    9 1   
    18    8   23 1   
    19    9   10 1   
    20   10   11 1   
    21   10   14 1   
    22   10   24 1   
    23   11   12 1   
    24   11   13 1   
    25   14   25 1   
    26   14   26 1   
    27   14   27 1   
@<TRIPOS>SUBSTRUCTURE
     1 1N4         1 TEMP              0 ****  ****    0 ROOT
