@<TRIPOS>MOLECULE
1N5
   25    24     1     0     0
SMALL
bcc


@<TRIPOS>ATOM
      1 C1          2.7580    0.6840    0.3220 c         1 1N5      0.892600
      2 C2          1.9400   -0.6270    0.1980 c3        1 1N5      0.010100
      3 C3          0.6680   -0.3900   -0.6130 c3        1 1N5     -0.113400
      4 O4         -0.4420    0.5010    1.4000 oh        1 1N5     -0.644800
      5 C4         -0.5780   -0.3300    0.2620 c3        1 1N5      0.161100
      6 C5         -1.7670    0.1540   -0.5740 c3        1 1N5     -0.102400
      7 C6         -3.0730   -0.0500    0.1590 c3        1 1N5     -0.078400
      8 O2          2.6900   -1.6630   -0.4170 oh        1 1N5     -0.644800
      9 O7         -5.4270    0.2390    0.0460 oh        1 1N5     -0.606800
     10 O1A         2.1920    1.6930    0.8310 o         1 1N5     -0.833800
     11 O1B         3.9470    0.6610   -0.1040 o         1 1N5     -0.833800
     12 H2          1.6790   -0.9930    1.2290 h1        1 1N5      0.046700
     13 H3          0.7670    0.5770   -1.1730 hc        1 1N5      0.045700
     14 H3A         0.5440   -1.2140   -1.3620 hc        1 1N5      0.045700
     15 H7         -4.0990    1.7200   -0.5990 h1        1 1N5      0.014700
     16 H7A        -4.2390    0.2460   -1.6650 h1        1 1N5      0.014700
     17 H4         -0.8070   -1.3560    0.6730 h1        1 1N5      0.037700
     18 H5         -1.6250    1.2430   -0.8020 hc        1 1N5      0.036700
     19 H5A        -1.7820   -0.4020   -1.5460 hc        1 1N5      0.036700
     20 H6         -2.9980    0.3940    1.1870 hc        1 1N5      0.059200
     21 H6A        -3.2850   -1.1430    0.2820 hc        1 1N5      0.059200
     22 HO2         3.5280   -1.2700   -0.7100 ho        1 1N5      0.425000
     23 HO7        -6.1260    0.7360   -0.3910 ho        1 1N5      0.385000
     24 C7         -4.2140    0.6030   -0.6000 c3        1 1N5      0.129400
     25 HO4         0.3200    1.0930    1.2610 ho        1 1N5      0.461000
@<TRIPOS>BOND
     1    1    2 1   
     2    1   10 1   
     3    1   11 1   
     4    2    3 1   
     5    2    8 1   
     6    2   12 1   
     7    3    5 1   
     8    3   13 1   
     9    3   14 1   
    10    4    5 1   
    11    4   25 1   
    12    5    6 1   
    13    5   17 1   
    14    6    7 1   
    15    6   18 1   
    16    6   19 1   
    17    7   20 1   
    18    7   21 1   
    19    7   24 1   
    20    8   22 1   
    21    9   23 1   
    22    9   24 1   
    23   15   24 1   
    24   16   24 1   
@<TRIPOS>SUBSTRUCTURE
     1 1N5         1 TEMP              0 ****  ****    0 ROOT
