@<TRIPOS>MOLECULE
1N5
   25    23     1     0     0
SMALL
bcc


@<TRIPOS>ATOM
      1 C1         -3.5080   -0.3890   -1.8080 c1        1 1N5      0.312000
      2 C2         -1.9960   -0.3890   -1.8080 c2        1 1N5     -0.051000
      3 C3         -1.4920   -0.3890   -0.3820 c3        1 1N5     -0.192000
      4 O4         -0.3580    1.7080   -0.4200 oh        1 1N5     -0.372000
      5 C7          2.6640    0.0510    2.2210 c3        1 1N5     -0.021000
      6 C4         -0.1570    0.3190   -0.3200 c3        1 1N5      0.050000
      7 C5          0.5210    0.0000    0.9940 c3        1 1N5     -0.181000
      8 C6          1.9750    0.4100    0.9230 c3        1 1N5     -0.157000
      9 O2         -1.5270   -1.5390   -2.4710 oh        1 1N5     -0.372000
     10 O7          4.0090    0.4730    2.1720 oh        1 1N5     -0.334000
     11 O1A        -4.1370    0.6550   -2.1220 o         1 1N5     -0.568500
     12 O1B        -4.1370   -1.4330   -1.4930 o         1 1N5     -0.568500
     13 H2         -1.6700    0.4080   -2.2680 h4        1 1N5      0.086000
     14 H3         -1.3870   -1.3100   -0.0740 hc        1 1N5      0.085000
     15 H3A        -2.1330    0.0740    0.1900 hc        1 1N5      0.085000
     16 HO4         0.2070    2.0470   -1.0140 ho        1 1N5      0.260000
     17 H7          2.6320   -0.9160    2.3500 h1        1 1N5      0.054000
     18 H7A         2.2110    0.4940    2.9630 h1        1 1N5      0.054000
     19 H4          0.4060    0.0170   -1.0580 h1        1 1N5      0.077000
     20 H5          0.4610   -0.9580    1.1670 hc        1 1N5      0.076000
     21 H5A         0.0800    0.4900    1.7140 hc        1 1N5      0.076000
     22 H6          2.4090   -0.0570    0.1840 hc        1 1N5      0.098500
     23 H6A         2.0350    1.3740    0.7780 hc        1 1N5      0.098500
     24 HO2        -1.5230   -1.3940   -3.3470 ho        1 1N5      0.224000
     25 HO7         4.4150    0.2570    2.9300 ho        1 1N5      0.184000
@<TRIPOS>BOND
     1    1   11 1   
     2    1   12 1   
     3    2    3 1   
     4    2    9 1   
     5    2   13 1   
     6    3    6 1   
     7    3   14 1   
     8    3   15 1   
     9    4    6 1   
    10    4   16 1   
    11    5    8 1   
    12    5   10 1   
    13    5   17 1   
    14    5   18 1   
    15    6    7 1   
    16    6   19 1   
    17    7    8 1   
    18    7   20 1   
    19    7   21 1   
    20    8   22 1   
    21    8   23 1   
    22    9   24 1   
    23   10   25 1   
@<TRIPOS>SUBSTRUCTURE
     1 1N5         1 TEMP              0 ****  ****    0 ROOT
