@<TRIPOS>MOLECULE
1N5
   25    24     1     0     0
SMALL
bcc


@<TRIPOS>ATOM
      1 C1          0.1190    0.0450    0.1880 c         1 1N5      0.932600
      2 C2          1.5930    0.5240    0.4010 c3        1 1N5      0.013100
      3 C3          2.1710   -0.1330    1.6490 c3        1 1N5     -0.142400
      4 O4          4.0790    1.4020    1.5420 oh        1 1N5     -0.631800
      5 C4          3.6730    0.0590    1.7950 c3        1 1N5      0.128100
      6 C5          4.1270   -0.3780    3.1860 c3        1 1N5     -0.140400
      7 C6          6.3880   -1.1430    2.3430 c3        1 1N5     -0.124100
      8 O2          2.3420    0.1880   -0.7540 oh        1 1N5     -0.583800
      9 O7          6.1340    0.9730    3.4820 oh        1 1N5     -0.622800
     10 O1A        -0.7120    0.9320   -0.1440 o         1 1N5     -0.828300
     11 O1B        -0.1520   -1.1640    0.4120 o         1 1N5     -0.828300
     12 H2          1.9430   -1.2320    1.5990 hc        1 1N5      0.065200
     13 H3          1.5940    1.6430    0.5300 h1        1 1N5      0.008700
     14 H3A         1.6430    0.2850    2.5440 hc        1 1N5      0.065200
     15 H7          5.8620   -0.7830    4.4190 h1        1 1N5      0.050700
     16 H7A         5.8610    1.4330    2.6760 ho        1 1N5      0.421000
     17 H4          6.3570   -0.6100    1.3620 hc        1 1N5      0.039033
     18 H5          4.2130   -0.5370    1.0040 h1        1 1N5      0.069700
     19 H5A         3.6550    0.2950    3.9490 hc        1 1N5      0.053200
     20 H6          3.7550   -1.4200    3.3610 hc        1 1N5      0.053200
     21 H6A         5.9310   -2.1530    2.2200 hc        1 1N5      0.039033
     22 HO2         3.1890    0.6430   -0.6620 ho        1 1N5      0.366000
     23 HO7         7.4560   -1.2580    2.6440 hc        1 1N5      0.039033
     24 C7          5.6360   -0.3530    3.3990 c3        1 1N5      0.151100
     25 HO4         3.4040    1.9800    1.9150 ho        1 1N5      0.407000
@<TRIPOS>BOND
     1    1    2 1   
     2    1   10 1   
     3    1   11 1   
     4    2    3 1   
     5    2    8 1   
     6    2   13 1   
     7    3    5 1   
     8    3   12 1   
     9    3   14 1   
    10    4    5 1   
    11    4   25 1   
    12    5    6 1   
    13    5   18 1   
    14    6   19 1   
    15    6   20 1   
    16    6   24 1   
    17    7   17 1   
    18    7   21 1   
    19    7   23 1   
    20    7   24 1   
    21    8   22 1   
    22    9   16 1   
    23    9   24 1   
    24   15   24 1   
@<TRIPOS>SUBSTRUCTURE
     1 1N5         1 TEMP              0 ****  ****    0 ROOT
