@<TRIPOS>MOLECULE
1N6
   54    57     1     0     0
SMALL
bcc


@<TRIPOS>ATOM
      1 FAC        -0.4820    4.1900   -2.1950 f         1 1N6     -0.216967
      2 CBD         0.5130    3.9520   -1.2900 c3        1 1N6      0.694200
      3 FAD         0.9040    5.2010   -0.8560 f         1 1N6     -0.216967
      4 FAE        -0.0940    3.3880   -0.2010 f         1 1N6     -0.216967
      5 CAV         1.6880    3.1330   -1.8390 ca        1 1N6     -0.155300
      6 CAK         2.8950    3.1750   -1.1430 ca        1 1N6     -0.064000
      7 CAI         1.5510    2.3670   -3.0000 ca        1 1N6     -0.006000
      8 CAF         2.6500    1.6520   -3.4860 ca        1 1N6     -0.097000
      9 CAH         3.8790    1.7010   -2.8320 ca        1 1N6     -0.062000
     10 CAU         3.9940    2.4650   -1.6530 ca        1 1N6     -0.080400
     11 NAR         5.2680    2.4730   -0.9170 n4        1 1N6     -0.632100
     12 C6          5.9540    3.7910   -1.0000 ca        1 1N6      0.658200
     13 N1          5.5160    4.7450   -0.1420 nb        1 1N6     -0.742000
     14 C5          7.0110    4.0220   -1.9210 ca        1 1N6     -0.379200
     15 CAY         7.5340    2.9980   -2.8430 c         1 1N6      0.715100
     16 OAB         7.0840    1.8370   -2.9050 o         1 1N6     -0.604500
     17 NAT         8.5940    3.3660   -3.6870 n         1 1N6     -0.387100
     18 CAG         9.1280    4.6170   -3.6710 cc        1 1N6      0.143600
     19 CAJ         8.6640    5.6160   -2.8270 cd        1 1N6     -0.362800
     20 C4          7.6010    5.3400   -1.9280 ca        1 1N6      0.605100
     21 N3          7.1520    6.3230   -1.0650 nb        1 1N6     -0.661000
     22 C2          6.1620    5.9670   -0.2230 ca        1 1N6      0.787900
     23 NAS         5.7130    6.9850    0.7850 n4        1 1N6     -0.752700
     24 CBC         5.1850    8.2710    0.1720 c3        1 1N6      0.136500
     25 CAN         3.9650    8.7690    0.9650 c3        1 1N6     -0.107400
     26 CAL         3.4270   10.0530    0.3640 c3        1 1N6     -0.102400
     27 CBB         4.5150   11.1340    0.3710 c3        1 1N6      0.112500
     28 NAA         3.9950   12.4490   -0.1350 n4        1 1N6     -0.837600
     29 CAM         5.7150   10.6430   -0.4490 c3        1 1N6     -0.102400
     30 CAO         6.2650    9.3610    0.1460 c3        1 1N6     -0.107400
     31 H1          2.9530    3.7530   -0.2050 ha        1 1N6      0.164000
     32 H2          0.5790    2.3280   -3.5290 ha        1 1N6      0.205000
     33 H3          2.5430    1.0360   -4.3990 ha        1 1N6      0.200000
     34 H4          4.7390    1.1350   -3.2390 ha        1 1N6      0.188000
     35 H5          5.8950    1.7400   -1.3170 hn        1 1N6      0.503800
     36 H6          9.9710    4.8090   -4.3780 h4        1 1N6      0.228000
     37 H7          9.1380    6.6120   -2.8550 ha        1 1N6      0.213000
     38 H9          4.9730    6.5640    1.3720 hn        1 1N6      0.487300
     39 H10         4.8660    8.0290   -0.8860 hx        1 1N6      0.123700
     40 H11         4.2420    8.9450    2.0400 hc        1 1N6      0.098200
     41 H12         3.1400    8.0040    0.9420 hc        1 1N6      0.098200
     42 H13         2.5380   10.3780    0.9740 hc        1 1N6      0.097450
     43 H14         3.0700    9.8660   -0.6850 hc        1 1N6      0.097450
     44 H15         4.8460   11.3220    1.4410 hx        1 1N6      0.125700
     45 H16         4.7390   13.1570   -0.0960 hn        1 1N6      0.476467
     46 H17         3.6710   12.3620   -1.1050 hn        1 1N6      0.476467
     47 H19         5.4130   10.4720   -1.5170 hc        1 1N6      0.097450
     48 H20         6.5390   11.4100   -0.4450 hc        1 1N6      0.097450
     49 H21         7.1420    9.0320   -0.4770 hc        1 1N6      0.098200
     50 H22         6.6410    9.5620    1.1870 hc        1 1N6      0.098200
     51 H23         8.9580    2.6570   -4.3070 hn        1 1N6      0.399500
     52 HAR2        5.0740    2.2420    0.0730 hn        1 1N6      0.503800
     53 HAS2        6.5240    7.2000    1.3880 hn        1 1N6      0.487300
     54 HAA3        3.2070   12.7600    0.4490 hn        1 1N6      0.476467
@<TRIPOS>BOND
     1    1    2 1   
     2    2    3 1   
     3    2    4 1   
     4    2    5 1   
     5    5    6 ar  
     6    5    7 ar  
     7    6   10 ar  
     8    6   31 1   
     9    7    8 ar  
    10    7   32 1   
    11    8    9 ar  
    12    8   33 1   
    13    9   10 ar  
    14    9   34 1   
    15   10   11 1   
    16   11   12 1   
    17   11   35 1   
    18   11   52 1   
    19   12   13 ar  
    20   12   14 ar  
    21   13   22 ar  
    22   14   15 1   
    23   14   20 ar  
    24   15   16 2   
    25   15   17 1   
    26   17   18 1   
    27   17   51 1   
    28   18   19 2   
    29   18   36 1   
    30   19   20 1   
    31   19   37 1   
    32   20   21 ar  
    33   21   22 ar  
    34   22   23 1   
    35   23   24 1   
    36   23   38 1   
    37   23   53 1   
    38   24   25 1   
    39   24   30 1   
    40   24   39 1   
    41   25   26 1   
    42   25   40 1   
    43   25   41 1   
    44   26   27 1   
    45   26   42 1   
    46   26   43 1   
    47   27   28 1   
    48   27   29 1   
    49   27   44 1   
    50   28   45 1   
    51   28   46 1   
    52   28   54 1   
    53   29   30 1   
    54   29   47 1   
    55   29   48 1   
    56   30   49 1   
    57   30   50 1   
@<TRIPOS>SUBSTRUCTURE
     1 1N6         1 TEMP              0 ****  ****    0 ROOT
