@<TRIPOS>MOLECULE
1N6
   52    55     1     0     0
SMALL
bcc


@<TRIPOS>ATOM
      1 FAC         0.3170    0.4390    1.0780 f         1 1N6     -0.232967
      2 CBD         1.5660    0.2750    0.5300 c3        1 1N6      0.687200
      3 FAD         2.4070    0.2290    1.6160 f         1 1N6     -0.232967
      4 FAE         1.5610   -1.0130    0.0530 f         1 1N6     -0.232967
      5 CAV         1.9400    1.3240   -0.5120 ca        1 1N6     -0.154300
      6 CAK         3.2820    1.6500   -0.6990 ca        1 1N6     -0.103000
      7 CAI         0.9380    1.9340   -1.2690 ca        1 1N6     -0.085000
      8 CAF         1.2910    2.8810   -2.2280 ca        1 1N6     -0.127000
      9 CAH         2.6250    3.2220   -2.4370 ca        1 1N6     -0.088000
     10 CAU         3.6380    2.6120   -1.6690 ca        1 1N6      0.132600
     11 NAR         5.0070    2.8930   -1.8820 nh        1 1N6     -0.733300
     12 C6          5.5600    4.1520   -1.8720 ca        1 1N6      0.794200
     13 N1          4.7370    5.2340   -1.7010 nb        1 1N6     -0.833000
     14 C5          6.9900    4.3330   -2.0430 ca        1 1N6     -0.483200
     15 CAY         7.9200    3.2190   -2.2020 c         1 1N6      0.729100
     16 OAB         7.6270    2.0040   -2.1860 o         1 1N6     -0.656500
     17 NAT         9.2800    3.5310   -2.3820 n         1 1N6     -0.445100
     18 CAG         9.7280    4.8260   -2.3930 cc        1 1N6      0.047600
     19 CAJ         8.8930    5.8940   -2.2250 cd        1 1N6     -0.362800
     20 C4          7.4720    5.6750   -2.0430 ca        1 1N6      0.613100
     21 N3          6.6620    6.7530   -1.8750 nb        1 1N6     -0.814000
     22 C2          5.3160    6.4860   -1.7360 ca        1 1N6      0.923900
     23 NAS         4.4070    7.5700   -1.6790 nh        1 1N6     -0.824900
     24 CBC         4.8720    8.8860   -1.3010 c3        1 1N6      0.216500
     25 CAN         3.7970    9.9470   -1.6090 c3        1 1N6     -0.102900
     26 CAL         4.3350   11.3360   -1.3360 c3        1 1N6     -0.096900
     27 CBB         4.7480   11.4460    0.1340 c3        1 1N6      0.115500
     28 NAA         5.2380   12.8370    0.4540 n4        1 1N6     -0.843600
     29 CAM         5.8170   10.4010    0.4690 c3        1 1N6     -0.096900
     30 CAO         5.2750    9.0170    0.1800 c3        1 1N6     -0.102900
     31 H1          4.0500    1.1510   -0.0850 ha        1 1N6      0.160000
     32 H2         -0.1180    1.6660   -1.1050 ha        1 1N6      0.158000
     33 H3          0.5070    3.3610   -2.8340 ha        1 1N6      0.147000
     34 H4          2.8790    3.9680   -3.2070 ha        1 1N6      0.155000
     35 H5          5.6290    2.1040   -1.8790 hn        1 1N6      0.493800
     36 H6         10.8170    4.9600   -2.5450 h4        1 1N6      0.163000
     37 H7          9.2860    6.9190   -2.2390 ha        1 1N6      0.164000
     38 H9          3.4980    7.3340   -1.3350 hn        1 1N6      0.430800
     39 H10         5.7820    9.1260   -1.9330 h1        1 1N6      0.095700
     40 H11         3.5000    9.8840   -2.6910 hc        1 1N6      0.078200
     41 H12         2.8780    9.7620   -0.9930 hc        1 1N6      0.078200
     42 H13         3.5380   12.0900   -1.5760 hc        1 1N6      0.069700
     43 H14         5.2160   11.5340   -2.0030 hc        1 1N6      0.069700
     44 H15         3.8410   11.2760    0.7910 hx        1 1N6      0.112700
     45 H16         4.5050   13.5200    0.2450 hn        1 1N6      0.458133
     46 H17         6.0650   13.0520   -0.1120 hn        1 1N6      0.458133
     47 H19         6.7380   10.5760   -0.1490 hc        1 1N6      0.069700
     48 H20         6.1030   10.4660    1.5520 hc        1 1N6      0.069700
     49 H21         6.0750    8.2650    0.4210 hc        1 1N6      0.078200
     50 H22         4.3950    8.8020    0.8420 hc        1 1N6      0.078200
     51 H23         9.9180    2.7740   -2.5050 hn        1 1N6      0.348500
     52 HAA3        5.4890   12.8960    1.4440 hn        1 1N6      0.458133
@<TRIPOS>BOND
     1    1    2 1   
     2    2    3 1   
     3    2    4 1   
     4    2    5 1   
     5    5    6 ar  
     6    5    7 ar  
     7    6   10 ar  
     8    6   31 1   
     9    7    8 ar  
    10    7   32 1   
    11    8    9 ar  
    12    8   33 1   
    13    9   10 ar  
    14    9   34 1   
    15   10   11 1   
    16   11   12 1   
    17   11   35 1   
    18   12   13 ar  
    19   12   14 ar  
    20   13   22 ar  
    21   14   15 1   
    22   14   20 ar  
    23   15   16 2   
    24   15   17 1   
    25   17   18 1   
    26   17   51 1   
    27   18   19 2   
    28   18   36 1   
    29   19   20 1   
    30   19   37 1   
    31   20   21 ar  
    32   21   22 ar  
    33   22   23 1   
    34   23   24 1   
    35   23   38 1   
    36   24   25 1   
    37   24   30 1   
    38   24   39 1   
    39   25   26 1   
    40   25   40 1   
    41   25   41 1   
    42   26   27 1   
    43   26   42 1   
    44   26   43 1   
    45   27   28 1   
    46   27   29 1   
    47   27   44 1   
    48   28   45 1   
    49   28   46 1   
    50   28   52 1   
    51   29   30 1   
    52   29   47 1   
    53   29   48 1   
    54   30   49 1   
    55   30   50 1   
@<TRIPOS>SUBSTRUCTURE
     1 1N6         1 TEMP              0 ****  ****    0 ROOT
