@<TRIPOS>MOLECULE
1N6
   51    47     1     0     0
SMALL
bcc


@<TRIPOS>ATOM
      1 FAC        -5.9630   -2.9330   -2.2410 f         1 1N6     -0.167333
      2 CBD        -5.0220   -3.5240   -1.4950 c3        1 1N6      0.467000
      3 FAD        -5.0360   -3.0030   -0.2620 f         1 1N6     -0.167333
      4 FAE        -5.2670   -4.8390   -1.4270 f         1 1N6     -0.167333
      5 CAV        -3.6640   -3.2960   -2.1220 c2        1 1N6     -0.149000
      6 CAK        -2.5190   -3.3730   -1.3450 c1        1 1N6     -0.075000
      7 CAI        -3.5660   -3.0010   -3.4730 c2        1 1N6     -0.098000
      8 CAF        -2.3230   -2.7810   -4.0460 c1        1 1N6     -0.118000
      9 CAH        -1.1780   -2.8580   -3.2680 c1        1 1N6     -0.135000
     10 CAU        -1.2760   -3.1530   -1.9170 c1        1 1N6      0.069000
     11 NAR        -0.1020   -3.2740   -1.1300 n3        1 1N6     -0.263000
     12 C6          0.5630   -2.1100   -0.6660 c1        1 1N6      0.267000
     13 N1         -0.1200   -1.1860    0.0320 n1        1 1N6     -0.291500
     14 C5          1.9140   -1.9380   -0.9000 c1        1 1N6     -0.346000
     15 CAY         2.7140   -3.0250   -1.6720 c2        1 1N6      0.371000
     16 OAB         2.1490   -4.0190   -2.0810 o         1 1N6     -0.406000
     17 NAT         4.1290   -2.8550   -1.8990 n         1 1N6     -0.297000
     18 CAG         4.7940   -1.6950   -1.4170 c2        1 1N6      0.023000
     19 CAJ         4.0270   -0.6500   -0.6790 c1        1 1N6     -0.233000
     20 C4          2.5490   -0.8370   -0.4240 c1        1 1N6      0.199000
     21 N3          1.8550    0.0950    0.2810 n1        1 1N6     -0.291500
     22 C2          0.5210   -0.0770    0.5110 c1        1 1N6      0.199000
     23 NAS        -0.1670    0.8520    1.3330 n2        1 1N6     -0.271000
     24 CBC         0.4130    2.1320    1.6060 c3        1 1N6      0.020000
     25 CAN        -0.5140    3.2160    1.0730 c3        1 1N6     -0.174000
     26 CAL        -0.0710    4.6050    1.4760 c3        1 1N6     -0.152500
     27 CBB         0.1660    4.7280    2.9700 c3        1 1N6     -0.028000
     28 NAA         0.7460    6.0090    3.2430 n3        1 1N6     -0.346000
     29 CAM         1.0930    3.6440    3.5030 c3        1 1N6     -0.152500
     30 CAO         0.6500    2.2550    3.1000 c3        1 1N6     -0.174000
     31 H1         -2.5890   -3.5810   -0.3930 ha        1 1N6      0.168000
     32 H2         -4.3720   -2.9470   -4.0210 ha        1 1N6      0.152000
     33 H3         -2.2530   -2.5730   -4.9970 ha        1 1N6      0.143000
     34 H4         -0.3020   -2.7030   -3.6710 ha        1 1N6      0.146000
     35 H5          0.2330   -4.0990   -0.9340 hn        1 1N6      0.278000
     36 H6          5.7510   -1.5810   -1.5700 h4        1 1N6      0.155000
     37 H7          4.4830    0.1470   -0.3480 ha        1 1N6      0.169000
     38 H9         -0.9760    0.6320    1.6920 hn        1 1N6      0.233000
     39 H10         1.2720    2.1960    1.1430 h1        1 1N6      0.130000
     40 H11        -1.4150    3.0590    1.4180 hc        1 1N6      0.089250
     41 H12        -0.5350    3.1620    0.0970 hc        1 1N6      0.089250
     42 H13         0.7590    4.8210    1.0050 hc        1 1N6      0.091250
     43 H14        -0.7610    5.2460    1.2120 hc        1 1N6      0.091250
     44 H15        -0.6930    4.6640    3.4320 h1        1 1N6      0.047000
     45 H16         0.8270    6.1210    4.1480 hn        1 1N6      0.146000
     46 H17         0.2090    6.6670    2.9010 hn        1 1N6      0.146000
     47 H19         1.9950    3.8010    3.1570 hc        1 1N6      0.091250
     48 H20         1.1140    3.6980    4.4790 hc        1 1N6      0.091250
     49 H21         1.3400    1.6140    3.3640 hc        1 1N6      0.089250
     50 H22        -0.1790    2.0390    3.5700 hc        1 1N6      0.089250
     51 H23         4.5980   -3.4940   -2.3500 hn        1 1N6      0.251000
@<TRIPOS>BOND
     1    1    2 1   
     2    2    3 1   
     3    2    4 1   
     4    2    5 1   
     5    5    6 1   
     6    5    7 1   
     7    6   31 1   
     8    7    8 1   
     9    7   32 1   
    10    8   33 1   
    11    9   10 1   
    12    9   34 1   
    13   10   11 1   
    14   11   12 1   
    15   11   35 1   
    16   12   14 1   
    17   13   22 1   
    18   14   15 1   
    19   15   16 1   
    20   15   17 1   
    21   17   18 1   
    22   17   51 1   
    23   18   19 1   
    24   18   36 1   
    25   19   37 1   
    26   20   21 1   
    27   23   24 1   
    28   23   38 1   
    29   24   25 1   
    30   24   30 1   
    31   24   39 1   
    32   25   26 1   
    33   25   40 1   
    34   25   41 1   
    35   26   27 1   
    36   26   42 1   
    37   26   43 1   
    38   27   28 1   
    39   27   29 1   
    40   27   44 1   
    41   28   45 1   
    42   28   46 1   
    43   29   30 1   
    44   29   47 1   
    45   29   48 1   
    46   30   49 1   
    47   30   50 1   
@<TRIPOS>SUBSTRUCTURE
     1 1N6         1 TEMP              0 ****  ****    0 ROOT
