@<TRIPOS>MOLECULE
1N6
   51    54     1     0     0
SMALL
bcc


@<TRIPOS>ATOM
      1 FAC        -5.9570   -2.7370   -1.2000 f         1 1N6     -0.237300
      2 CBD        -5.6060   -1.4350   -0.9350 c3        1 1N6      0.687200
      3 FAD        -5.4950   -0.8590   -2.1780 f         1 1N6     -0.237300
      4 FAE        -6.7520   -0.8810   -0.4140 f         1 1N6     -0.237300
      5 CAV        -4.3770   -1.2770   -0.0470 ca        1 1N6     -0.152300
      6 CAK        -3.5750   -0.1480   -0.1880 ca        1 1N6     -0.117000
      7 CAI        -4.0810   -2.2600    0.8980 ca        1 1N6     -0.097000
      8 CAF        -2.9680   -2.0950    1.7200 ca        1 1N6     -0.124000
      9 CAH        -2.1560   -0.9690    1.6080 ca        1 1N6     -0.091000
     10 CAU        -2.4440    0.0190    0.6430 ca        1 1N6      0.148600
     11 NAR        -1.6830    1.2000    0.5270 nh        1 1N6     -0.741300
     12 C6         -0.3030    1.2480    0.4220 ca        1 1N6      0.790200
     13 N1          0.4090    0.0930    0.5440 nb        1 1N6     -0.844000
     14 C5          0.3650    2.5160    0.2030 ca        1 1N6     -0.495200
     15 CAY        -0.3440    3.7740    0.0100 c         1 1N6      0.732100
     16 OAB        -1.5870    3.9310   -0.0240 o         1 1N6     -0.677500
     17 NAT         0.4280    4.9350   -0.1690 n         1 1N6     -0.452100
     18 CAG         1.8020    4.8950   -0.1830 cc        1 1N6      0.027600
     19 CAJ         2.5020    3.7360   -0.0280 cd        1 1N6     -0.344800
     20 C4          1.7930    2.4840    0.1700 ca        1 1N6      0.609100
     21 N3          2.5140    1.3480    0.3080 nb        1 1N6     -0.793000
     22 C2          1.7950    0.1800    0.5050 ca        1 1N6      0.941900
     23 NAS         2.4830   -1.0110    0.7550 nh        1 1N6     -0.824900
     24 CBC         3.8850   -1.1690    0.4110 c3        1 1N6      0.214500
     25 CAN         4.4670   -2.4190    1.0970 c3        1 1N6     -0.092900
     26 CAL         5.9510   -2.5240    0.8230 c3        1 1N6     -0.093400
     27 CBB         6.2230   -2.6280   -0.6860 c3        1 1N6      0.160500
     28 NAA         7.6270   -2.8620   -0.9660 n3        1 1N6     -0.901800
     29 CAM         5.6260   -1.3890   -1.3770 c3        1 1N6     -0.093400
     30 CAO         4.1450   -1.2710   -1.1020 c3        1 1N6     -0.092900
     31 H1         -3.8330    0.6070   -0.9500 ha        1 1N6      0.157000
     32 H2         -4.7200   -3.1510    0.9880 ha        1 1N6      0.152000
     33 H3         -2.7290   -2.8620    2.4730 ha        1 1N6      0.143000
     34 H4         -1.2910   -0.8610    2.2810 ha        1 1N6      0.160000
     35 H5         -2.1890    2.0210    0.2510 hn        1 1N6      0.484800
     36 H6          2.3100    5.8670   -0.3300 h4        1 1N6      0.155000
     37 H7          3.6000    3.7340   -0.0470 ha        1 1N6      0.168000
     38 H9          1.9370   -1.8450    0.6960 hn        1 1N6      0.432800
     39 H10         4.4430   -0.2670    0.8050 h1        1 1N6      0.088700
     40 H11         4.3010   -2.3590    2.2040 hc        1 1N6      0.050700
     41 H12         3.9470   -3.3390    0.7220 hc        1 1N6      0.050700
     42 H13         6.4790   -1.6280    1.2430 hc        1 1N6      0.048200
     43 H14         6.3560   -3.4320    1.3420 hc        1 1N6      0.048200
     44 H15         5.6700   -3.5360   -1.0750 h1        1 1N6      0.059700
     45 H16         7.7840   -2.8640   -1.9550 hn        1 1N6      0.346800
     46 H17         8.1960   -2.1510   -0.5500 hn        1 1N6      0.346800
     47 H19         6.1510   -0.4660   -1.0170 hc        1 1N6      0.048200
     48 H20         5.7870   -1.4590   -2.4850 hc        1 1N6      0.048200
     49 H21         3.6100   -2.1640   -1.5200 hc        1 1N6      0.050700
     50 H22         3.7440   -0.3590   -1.6170 hc        1 1N6      0.050700
     51 H23        -0.0510    5.7990   -0.2930 hn        1 1N6      0.338500
@<TRIPOS>BOND
     1    1    2 1   
     2    2    3 1   
     3    2    4 1   
     4    2    5 1   
     5    5    6 ar  
     6    5    7 ar  
     7    6   10 ar  
     8    6   31 1   
     9    7    8 ar  
    10    7   32 1   
    11    8    9 ar  
    12    8   33 1   
    13    9   10 ar  
    14    9   34 1   
    15   10   11 1   
    16   11   12 1   
    17   11   35 1   
    18   12   13 ar  
    19   12   14 ar  
    20   13   22 ar  
    21   14   15 1   
    22   14   20 ar  
    23   15   16 2   
    24   15   17 1   
    25   17   18 1   
    26   17   51 1   
    27   18   19 2   
    28   18   36 1   
    29   19   20 1   
    30   19   37 1   
    31   20   21 ar  
    32   21   22 ar  
    33   22   23 1   
    34   23   24 1   
    35   23   38 1   
    36   24   25 1   
    37   24   30 1   
    38   24   39 1   
    39   25   26 1   
    40   25   40 1   
    41   25   41 1   
    42   26   27 1   
    43   26   42 1   
    44   26   43 1   
    45   27   28 1   
    46   27   29 1   
    47   27   44 1   
    48   28   45 1   
    49   28   46 1   
    50   29   30 1   
    51   29   47 1   
    52   29   48 1   
    53   30   49 1   
    54   30   50 1   
@<TRIPOS>SUBSTRUCTURE
     1 1N6         1 TEMP              0 ****  ****    0 ROOT
