@<TRIPOS>MOLECULE
1N6
   52    55     1     0     0
SMALL
bcc


@<TRIPOS>ATOM
      1 FAC         0.3060    0.4440    1.0620 f         1 1N6     -0.232967
      2 CBD         1.5560    0.2770    0.5170 c3        1 1N6      0.687200
      3 FAD         2.3940    0.2300    1.6050 f         1 1N6     -0.232967
      4 FAE         1.5490   -1.0100    0.0390 f         1 1N6     -0.232967
      5 CAV         1.9340    1.3260   -0.5250 ca        1 1N6     -0.154300
      6 CAK         3.2770    1.6510   -0.7060 ca        1 1N6     -0.103000
      7 CAI         0.9360    1.9370   -1.2850 ca        1 1N6     -0.085000
      8 CAF         1.2930    2.8840   -2.2420 ca        1 1N6     -0.127000
      9 CAH         2.6280    3.2230   -2.4470 ca        1 1N6     -0.088000
     10 CAU         3.6380    2.6120   -1.6760 ca        1 1N6      0.132600
     11 NAR         5.0070    2.8920   -1.8840 nu        1 1N6     -0.733300
     12 C6          5.5620    4.1510   -1.8720 ca        1 1N6      0.794200
     13 N1          4.7380    5.2330   -1.7040 nb        1 1N6     -0.833000
     14 C5          6.9920    4.3310   -2.0370 ca        1 1N6     -0.483200
     15 CAY         7.9220    3.2160   -2.1920 c         1 1N6      0.729100
     16 OAB         7.6280    2.0010   -2.1770 o         1 1N6     -0.656500
     17 NAT         9.2830    3.5270   -2.3660 ns        1 1N6     -0.445100
     18 CAG         9.7320    4.8220   -2.3750 cc        1 1N6      0.047600
     19 CAJ         8.8980    5.8890   -2.2110 cd        1 1N6     -0.362800
     20 C4          7.4760    5.6720   -2.0340 ca        1 1N6      0.613100
     21 N3          6.6660    6.7510   -1.8700 nb        1 1N6     -0.814000
     22 C2          5.3190    6.4850   -1.7360 ca        1 1N6      0.923900
     23 NAS         4.4110    7.5700   -1.6830 nu        1 1N6     -0.824900
     24 CBC         4.8750    8.8850   -1.3030 c3        1 1N6      0.216500
     25 CAN         3.8030    9.9470   -1.6160 c3        1 1N6     -0.102900
     26 CAL         4.3400   11.3360   -1.3400 c3        1 1N6     -0.096900
     27 CBB         4.7470   11.4450    0.1330 c3        1 1N6      0.115500
     28 NAA         5.2370   12.8350    0.4550 nz        1 1N6     -0.843600
     29 CAM         5.8130   10.3990    0.4720 c3        1 1N6     -0.096900
     30 CAO         5.2710    9.0150    0.1810 c3        1 1N6     -0.102900
     31 H1          4.0430    1.1510   -0.0900 ha        1 1N6      0.160000
     32 H2         -0.1210    1.6690   -1.1250 ha        1 1N6      0.158000
     33 H3          0.5110    3.3640   -2.8520 ha        1 1N6      0.147000
     34 H4          2.8850    3.9690   -3.2160 ha        1 1N6      0.155000
     35 H5          5.6280    2.1030   -1.8790 hn        1 1N6      0.493800
     36 H6         10.8220    4.9540   -2.5230 h4        1 1N6      0.163000
     37 H7          9.2910    6.9140   -2.2230 ha        1 1N6      0.164000
     38 H9          3.5000    7.3350   -1.3430 hn        1 1N6      0.430800
     39 H10         5.7880    9.1240   -1.9300 h1        1 1N6      0.095700
     40 H11         3.5110    9.8850   -2.6990 hc        1 1N6      0.078200
     41 H12         2.8810    9.7640   -1.0040 hc        1 1N6      0.078200
     42 H13         5.2260   11.5330   -2.0020 hc        1 1N6      0.069700
     43 H14         3.5460   12.0910   -1.5830 hc        1 1N6      0.069700
     44 H15         3.8370   11.2760    0.7850 hx        1 1N6      0.112700
     45 H16         6.0660   13.0500   -0.1070 hn        1 1N6      0.458133
     46 H17         4.5050   13.5190    0.2420 hn        1 1N6      0.458133
     47 H19         6.7370   10.5730   -0.1410 hc        1 1N6      0.069700
     48 H20         6.0940   10.4640    1.5560 hc        1 1N6      0.069700
     49 H21         4.3880    8.8010    0.8380 hc        1 1N6      0.078200
     50 H22         6.0690    8.2630    0.4250 hc        1 1N6      0.078200
     51 H23         9.9210    2.7690   -2.4870 hn        1 1N6      0.348500
     52 HAA3        5.4830   12.8940    1.4470 hn        1 1N6      0.458133
@<TRIPOS>BOND
     1    1    2 1   
     2    2    3 1   
     3    2    4 1   
     4    2    5 1   
     5    5    6 ar  
     6    5    7 ar  
     7    6   10 ar  
     8    6   31 1   
     9    7    8 ar  
    10    7   32 1   
    11    8    9 ar  
    12    8   33 1   
    13    9   10 ar  
    14    9   34 1   
    15   10   11 1   
    16   11   12 1   
    17   11   35 1   
    18   12   13 ar  
    19   12   14 ar  
    20   13   22 ar  
    21   14   15 1   
    22   14   20 ar  
    23   15   16 2   
    24   15   17 1   
    25   17   18 1   
    26   17   51 1   
    27   18   19 2   
    28   18   36 1   
    29   19   20 1   
    30   19   37 1   
    31   20   21 ar  
    32   21   22 ar  
    33   22   23 1   
    34   23   24 1   
    35   23   38 1   
    36   24   25 1   
    37   24   30 1   
    38   24   39 1   
    39   25   26 1   
    40   25   40 1   
    41   25   41 1   
    42   26   27 1   
    43   26   42 1   
    44   26   43 1   
    45   27   28 1   
    46   27   29 1   
    47   27   44 1   
    48   28   45 1   
    49   28   46 1   
    50   28   52 1   
    51   29   30 1   
    52   29   47 1   
    53   29   48 1   
    54   30   49 1   
    55   30   50 1   
@<TRIPOS>SUBSTRUCTURE
     1 1N6         1 TEMP              0 ****  ****    0 ROOT
