@<TRIPOS>MOLECULE
1N8
   72    64     1     0     0
SMALL
bcc


@<TRIPOS>ATOM
      1 C22        -3.2150    0.5620   -1.0940 c1        1 1N8     -0.121000
      2 C23        -1.8290    0.7130   -1.0460 c1        1 1N8     -0.121000
      3 C11        -1.1920    0.9170    0.1760 c1        1 1N8     -0.137000
      4 C14         0.3430    1.0890    0.2290 c2        1 1N8      0.352000
      5 N3          1.1040    1.0940   -0.9810 n         1 1N8     -0.340000
      6 C15         2.5450    1.3130   -0.9350 c2        1 1N8      0.018000
      7 C20         3.3820    0.5700   -1.7630 c2        1 1N8      0.077000
      8 C19         4.7330    0.8960   -1.8610 c1        1 1N8     -0.140000
      9 C18         5.2460    1.9650   -1.1310 c1        1 1N8     -0.075000
     10 C17         4.4100    2.7070   -0.3050 c1        1 1N8     -0.168000
     11 C16         3.0600    2.3820   -0.2060 c2        1 1N8     -0.071000
     12 C21         4.9690    3.8390    0.5100 c2        1 1N8      0.471000
     13 F1          4.9710    3.4980    1.8040 f         1 1N8     -0.166000
     14 F2          6.2240    4.0980    0.1150 f         1 1N8     -0.166000
     15 F3          4.2160    4.9230    0.3370 f         1 1N8     -0.166000
     16 O1          0.8970    1.2680    1.2950 o         1 1N8     -0.335000
     17 C12        -1.9400    0.9710    1.3530 c1        1 1N8     -0.063000
     18 C13        -3.3290    0.8190    1.3050 c1        1 1N8     -0.046000
     19 C24        -3.9660    0.6150    0.0830 c1        1 1N8     -0.026000
     20 C25        -5.4760    0.5140    0.0220 c3        1 1N8     -0.189000
     21 N4          2.8530   -0.6010   -2.4840 n         1 1N8     -0.344000
     22 C26         3.7570   -1.4630   -3.2400 c2        1 1N8      0.266000
     23 C27         3.1940   -2.7280   -3.9990 c3        1 1N8     -0.046000
     24 N6          4.1940   -3.2190   -4.9320 n3        1 1N8     -0.289000
     25 C28         3.8840   -2.7340   -6.2740 c3        1 1N8     -0.042500
     26 C29         4.1840   -4.7010   -4.9270 c3        1 1N8     -0.042500
     27 C30         5.0470   -1.8430   -6.7860 c3        1 1N8     -0.248000
     28 C5          5.6270   -5.2260   -4.9340 c3        1 1N8     -0.248000
     29 N1         -5.7120    2.6300    6.6620 n1        1 1N8     -0.196000
     30 C2         -5.1460    2.8230    5.4460 c1        1 1N8     -0.016500
     31 C3         -4.9030    1.7370    4.6130 c1        1 1N8     -0.191000
     32 C4         -5.2330    0.4840    5.0220 c1        1 1N8      0.075000
     33 N5         -5.8040    0.2930    6.2510 n1        1 1N8     -0.237000
     34 C6         -6.0430    1.3670    7.0710 c1        1 1N8      0.154000
     35 C7         -4.3190    1.9350    3.3340 c1        1 1N8     -0.016500
     36 C8         -4.0860    0.8460    2.5020 c1        1 1N8     -0.074000
     37 C9         -4.4230   -0.4300    2.9200 c1        1 1N8     -0.087000
     38 C10        -4.9960   -0.6230    4.1750 c1        1 1N8     -0.129000
     39 N2         -6.6680    0.8320    8.2390 n3        1 1N8     -0.276000
     40 C1         -6.5450    1.5240    9.5040 c3        1 1N8     -0.082000
     41 O2          4.9450   -1.2140   -3.2750 o         1 1N8     -0.344000
     42 H22        -3.6680    0.4160   -1.9680 ha        1 1N8      0.138000
     43 H23        -1.2960    0.6760   -1.8840 ha        1 1N8      0.138000
     44 HN3         0.6920    0.9330   -1.7800 hn        1 1N8      0.234000
     45 H19         5.3160    0.3800   -2.4370 ha        1 1N8      0.172000
     46 H18         6.2010    2.1970   -1.2000 ha        1 1N8      0.155000
     47 H16         2.4680    2.9100    0.3820 ha        1 1N8      0.176000
     48 H12        -1.4930    1.1140    2.2100 ha        1 1N8      0.160000
     49 H251       -5.8680    1.0020    0.7800 hc        1 1N8      0.093000
     50 H252       -5.7970    0.9050   -0.8200 hc        1 1N8      0.093000
     51 H253       -5.7430   -0.4250    0.0670 hc        1 1N8      0.093000
     52 HN4         1.9640   -0.7920   -2.4500 hn        1 1N8      0.234000
     53 H271        2.9810   -3.4320   -3.3480 h1        1 1N8      0.107000
     54 H272        2.3790   -2.4800   -4.4900 h1        1 1N8      0.107000
     55 H281        3.0540   -2.2060   -6.2490 h1        1 1N8      0.083500
     56 H282        3.7650   -3.5000   -6.8810 h1        1 1N8      0.083500
     57 H291        3.7210   -5.0220   -4.1180 h1        1 1N8      0.083500
     58 H292        3.7110   -5.0300   -5.7280 h1        1 1N8      0.083500
     59 H301        4.6860   -1.1340   -7.3740 hc        1 1N8      0.085000
     60 H302        5.5040   -1.4330   -6.0240 hc        1 1N8      0.085000
     61 H303        5.6870   -2.3970   -7.2950 hc        1 1N8      0.085000
     62 H51         5.6410   -6.1490   -4.5950 hc        1 1N8      0.085000
     63 H52         6.1860   -4.6570   -4.3590 hc        1 1N8      0.085000
     64 H53         5.9770   -5.2090   -5.8510 hc        1 1N8      0.085000
     65 H2         -4.9120    3.7220    5.1560 ha        1 1N8      0.155000
     66 H7         -4.0170    2.8260    3.0680 ha        1 1N8      0.155000
     67 H9         -4.2400   -1.1920    2.3490 ha        1 1N8      0.138000
     68 H10        -5.2350   -1.5260    4.4700 ha        1 1N8      0.154000
     69 HN2        -7.0800    0.0150    8.2040 hn        1 1N8      0.228000
     70 H11        -6.7220    2.4820    9.3720 h1        1 1N8      0.085333
     71 H12A       -7.1930    1.1570   10.1420 h1        1 1N8      0.085333
     72 H13        -5.6310    1.4040    9.8570 h1        1 1N8      0.085333
@<TRIPOS>BOND
     1    1    2 1   
     2    1   42 1   
     3    2   43 1   
     4    3    4 1   
     5    3   17 1   
     6    4    5 1   
     7    4   16 1   
     8    5    6 1   
     9    5   44 1   
    10    6    7 1   
    11    6   11 1   
    12    7    8 1   
    13    7   21 1   
    14    8   45 1   
    15    9   10 1   
    16    9   46 1   
    17   10   11 1   
    18   11   47 1   
    19   12   13 1   
    20   12   14 1   
    21   12   15 1   
    22   17   48 1   
    23   18   19 1   
    24   19   20 1   
    25   20   49 1   
    26   20   50 1   
    27   20   51 1   
    28   21   22 1   
    29   21   52 1   
    30   22   23 1   
    31   22   41 1   
    32   23   24 1   
    33   23   53 1   
    34   23   54 1   
    35   24   25 1   
    36   24   26 1   
    37   25   27 1   
    38   25   55 1   
    39   25   56 1   
    40   26   28 1   
    41   26   57 1   
    42   26   58 1   
    43   27   59 1   
    44   27   60 1   
    45   27   61 1   
    46   28   62 1   
    47   28   63 1   
    48   28   64 1   
    49   29   34 1   
    50   30   31 1   
    51   30   65 1   
    52   31   35 1   
    53   32   33 1   
    54   32   38 1   
    55   34   39 1   
    56   35   66 1   
    57   36   37 1   
    58   37   67 1   
    59   38   68 1   
    60   39   40 1   
    61   39   69 1   
    62   40   70 1   
    63   40   71 1   
    64   40   72 1   
@<TRIPOS>SUBSTRUCTURE
     1 1N8         1 TEMP              0 ****  ****    0 ROOT
