@<TRIPOS>MOLECULE
1N8
   72    71     1     0     0
SMALL
bcc


@<TRIPOS>ATOM
      1 C22        -0.5190   -2.5020    2.2440 c2        1 1N8     -0.106000
      2 C23         0.7240   -2.0520    2.2190 c1        1 1N8     -0.108000
      3 C11         1.3430   -0.9780    2.7080 c2        1 1N8     -0.096000
      4 C14         2.7830   -0.7560    2.9490 c2        1 1N8      0.348000
      5 N3          3.6590   -1.7420    2.4970 n         1 1N8     -0.272000
      6 C15         5.0210   -1.4620    2.1550 c2        1 1N8     -0.176000
      7 C20         5.9810   -1.1970    3.1590 c2        1 1N8      0.210000
      8 C19         7.4430   -1.2010    2.7490 c3        1 1N8     -0.080000
      9 C18         7.9270    0.1230    2.4930 c1        1 1N8     -0.025000
     10 C17         8.3560    1.2160    2.2750 c1        1 1N8     -0.241000
     11 C16         5.3070   -1.5060    0.7890 c1        1 1N8     -0.176000
     12 C21         8.8840    2.5560    2.0090 c3        1 1N8      0.564000
     13 F1         10.2540    2.6120    1.8990 f         1 1N8     -0.153333
     14 F2          8.4280    3.1260    0.8440 f         1 1N8     -0.153333
     15 F3          8.5850    3.4840    2.9800 f         1 1N8     -0.153333
     16 O1          3.1760    0.2330    3.6110 o         1 1N8     -0.397000
     17 C12         0.3580    0.0130    3.1770 c2        1 1N8     -0.087000
     18 C13        -0.8540   -0.4520    3.5720 c2        1 1N8     -0.090000
     19 C24        -1.3050   -1.8980    3.3870 c3        1 1N8     -0.045000
     20 C25        -1.2130   -2.6660    4.6860 c3        1 1N8     -0.205000
     21 N4          5.6460   -0.9280    4.4590 n         1 1N8     -0.296000
     22 C26         6.4890   -0.7580    5.5750 c2        1 1N8      0.262000
     23 C27         5.7850   -0.2790    6.8620 c3        1 1N8     -0.080000
     24 N6          6.5790   -0.3000    8.0550 n3        1 1N8     -0.283000
     25 C28         5.5120   -6.4670    7.1650 c1        1 1N8     -0.220500
     26 C29         6.8420   -1.6270    8.5850 c3        1 1N8     -0.082000
     27 C30         6.2040   -6.1590    8.0900 c1        1 1N8     -0.220500
     28 C5          7.8330   -1.6250    9.7370 c3        1 1N8     -0.218000
     29 N1         -4.9420    1.0670    7.1350 n2        1 1N8     -0.080000
     30 C2         -3.8190    1.3380    6.6730 c1        1 1N8      0.032000
     31 C3         -2.5500    1.5330    6.3800 c2        1 1N8     -0.158000
     32 C4         -5.2250    1.2290    4.3890 c1        1 1N8     -0.098000
     33 N5         -6.3420    1.4760    5.1050 n3        1 1N8     -0.199000
     34 C6         -6.1830    1.5350    6.5550 c2        1 1N8      0.135000
     35 C7         -1.7320    0.6860    5.5350 c2        1 1N8     -0.088000
     36 C8         -1.8410    0.4270    4.2220 c2        1 1N8     -0.064000
     37 C9         -2.8600    0.9820    3.2710 c3        1 1N8      0.000000
     38 C10        -4.1590    1.1080    3.8510 c1        1 1N8     -0.166000
     39 C1         -8.3880    2.3840    6.9010 c3        1 1N8     -0.142000
     40 O2          7.7080   -0.9760    5.5320 o         1 1N8     -0.330000
     41 H22        -2.3800   -1.8820    3.0430 hc        1 1N8      0.125000
     42 H23        -1.0200   -3.1220    1.4970 ha        1 1N8      0.163000
     43 HN3         3.2540   -2.3860    1.8410 hn        1 1N8      0.239000
     44 H19         7.5760   -1.8370    1.8270 hc        1 1N8      0.158500
     45 H18         8.0790   -1.6830    3.5530 hc        1 1N8      0.158500
     46 H16         6.3190   -1.3790    0.3990 ha        1 1N8      0.069000
     47 H12         0.6850    1.0550    3.2930 ha        1 1N8      0.167000
     48 H251       -1.7610   -2.1230    5.4940 hc        1 1N8      0.086667
     49 H252       -0.1470   -2.7840    4.9970 hc        1 1N8      0.086667
     50 H253       -1.6630   -3.6800    4.5620 hc        1 1N8      0.086667
     51 HN4         4.6700   -0.7680    4.6460 hn        1 1N8      0.277000
     52 H271        5.4680    0.7890    6.6760 h1        1 1N8      0.128500
     53 H272        4.8630   -0.9050    7.0270 h1        1 1N8      0.128500
     54 H281        7.4360    0.2090    7.9290 hn        1 1N8      0.176000
     55 H282        4.8990   -6.7440    6.3450 ha        1 1N8      0.219500
     56 H291        7.2290   -2.3220    7.7810 h1        1 1N8      0.076000
     57 H292        5.8580   -2.0420    8.9470 h1        1 1N8      0.076000
     58 H301        7.7930   -4.9410   10.7960 ha        1 1N8      0.001500
     59 H302        6.8190   -5.8880    8.9120 ha        1 1N8      0.219500
     60 H303        8.3500   -4.9920   10.4140 ha        1 1N8      0.001500
     61 H51         8.8340   -1.2560    9.4060 hc        1 1N8      0.083333
     62 H52         7.4760   -0.9800   10.5750 hc        1 1N8      0.083333
     63 H53         7.9470   -2.6710   10.1140 hc        1 1N8      0.083333
     64 H2         -2.0180    2.3720    6.8680 ha        1 1N8      0.173000
     65 H7         -0.8830    0.2360    6.0910 ha        1 1N8      0.137000
     66 H9         -2.9240    0.3230    2.3570 hc        1 1N8      0.114000
     67 H10        -2.4990    1.9940    2.9240 hc        1 1N8      0.114000
     68 HN2        -7.1510    0.9650    4.8020 hn        1 1N8      0.221000
     69 H11        -8.9600    1.5370    6.4320 h1        1 1N8      0.088000
     70 H12A       -8.9540    2.7380    7.8050 h1        1 1N8      0.088000
     71 H13        -8.3390    3.2250    6.1570 h1        1 1N8      0.088000
     72 N2         -7.1010    1.9840    7.3660 n2        1 1N8     -0.180000
@<TRIPOS>BOND
     1    1    2 1   
     2    1   19 1   
     3    1   42 1   
     4    2    3 1   
     5    3    4 1   
     6    3   17 1   
     7    4    5 1   
     8    4   16 1   
     9    5    6 1   
    10    5   43 1   
    11    6    7 1   
    12    6   11 1   
    13    7    8 1   
    14    7   21 1   
    15    8    9 1   
    16    8   44 1   
    17    8   45 1   
    18    9   10 1   
    19   10   12 1   
    20   11   46 1   
    21   12   13 1   
    22   12   14 1   
    23   12   15 1   
    24   17   18 1   
    25   17   47 1   
    26   18   19 1   
    27   18   36 1   
    28   19   20 1   
    29   19   41 1   
    30   20   48 1   
    31   20   49 1   
    32   20   50 1   
    33   21   22 1   
    34   21   51 1   
    35   22   23 1   
    36   22   40 1   
    37   23   24 1   
    38   23   52 1   
    39   23   53 1   
    40   24   26 1   
    41   24   54 1   
    42   25   27 1   
    43   25   55 1   
    44   26   28 1   
    45   26   56 1   
    46   26   57 1   
    47   27   59 1   
    48   28   61 1   
    49   28   62 1   
    50   28   63 1   
    51   29   30 1   
    52   29   34 1   
    53   30   31 1   
    54   31   35 1   
    55   31   64 1   
    56   32   33 1   
    57   32   38 1   
    58   33   34 1   
    59   33   68 1   
    60   34   72 1   
    61   35   36 1   
    62   35   65 1   
    63   36   37 1   
    64   37   38 1   
    65   37   66 1   
    66   37   67 1   
    67   39   69 1   
    68   39   70 1   
    69   39   71 1   
    70   39   72 1   
    71   58   60 1   
@<TRIPOS>SUBSTRUCTURE
     1 1N8         1 TEMP              0 ****  ****    0 ROOT
