@<TRIPOS>MOLECULE
1N8
   73    75     1     0     0
SMALL
bcc


@<TRIPOS>ATOM
      1 C22        -0.9660   -0.7230    0.8220 c2        1 1N8     -0.115000
      2 C23         0.3280   -0.9720    0.8810 c1        1 1N8     -0.031000
      3 C11         1.2290   -1.1010    1.8590 c2        1 1N8     -0.026000
      4 C14         2.6510   -0.9730    1.7810 c2        1 1N8      0.023000
      5 N3          3.6120   -1.4150    2.6280 n7        1 1N8     -0.082000
      6 C15         4.8650   -1.0350    2.1200 c2        1 1N8     -0.322000
      7 C20         6.1450   -1.3960    2.8050 c3        1 1N8      0.155000
      8 C19         7.2880   -0.9540    1.9260 c2        1 1N8     -0.075000
      9 C18         8.4150   -0.4660    2.3570 c1        1 1N8     -0.116000
     10 C17         9.5460    0.0380    2.7510 c2        1 1N8     -0.183000
     11 C16         4.6380   -0.3320    0.8980 c1        1 1N8     -0.025000
     12 C21        10.7550   -0.8120    3.1240 c3        1 1N8      0.461000
     13 F1         11.9210   -0.0890    3.1850 f         1 1N8     -0.162667
     14 F2         10.6590   -1.4040    4.3610 f         1 1N8     -0.162667
     15 F3         11.0350   -1.8480    2.2700 f         1 1N8     -0.162667
     16 O1          3.2770   -0.3200    0.7270 os        1 1N8     -0.042000
     17 C12         0.5450   -1.1980    3.1610 c2        1 1N8     -0.061000
     18 C13        -0.6780   -0.6070    3.2770 c2        1 1N8     -0.115000
     19 C24        -1.4510   -0.0430    2.0850 c3        1 1N8     -0.037000
     20 C25        -1.3670    1.4660    2.0490 c3        1 1N8     -0.209000
     21 N4          6.2360   -0.8920    4.1640 ns        1 1N8     -0.373000
     22 C26         5.5920   -1.4810    5.2230 c2        1 1N8      0.318000
     23 C27         5.9570   -0.9920    6.6350 c3        1 1N8     -0.080000
     24 N6          4.7800   -0.5750    7.3810 n3        1 1N8     -0.264000
     25 C28         4.0750   -1.7080    7.9720 c3        1 1N8     -0.075000
     26 C29         5.0760    0.4770    8.3500 c3        1 1N8     -0.075000
     27 C30         2.6100   -1.4340    8.2730 c3        1 1N8     -0.211500
     28 C5          5.3130    1.8430    7.7270 c3        1 1N8     -0.211500
     29 N1         -1.9070   -2.4140    8.2950 n2        1 1N8     -0.055000
     30 C2         -1.0590   -1.5360    7.8970 c2        1 1N8     -0.034000
     31 C3         -1.3460   -0.3020    7.0750 c3        1 1N8     -0.086000
     32 C4         -2.8400   -0.0360    7.0190 c2        1 1N8      0.333000
     33 N5         -3.7150   -0.9480    7.4060 n7        1 1N8     -0.180000
     34 C6         -3.2970   -2.2820    7.9550 c2        1 1N8      0.092000
     35 C7         -0.7070   -0.4450    5.7380 c2        1 1N8     -0.209000
     36 C8         -1.3440   -0.4600    4.5580 c2        1 1N8     -0.055000
     37 C9         -3.5550    2.3440    6.2220 c1        1 1N8      0.078000
     38 C10        -3.2460    1.2400    6.5840 c1        1 1N8     -0.313000
     39 C1         -5.4960   -3.3320    7.8790 c3        1 1N8     -0.163000
     40 O2          4.7750   -2.4160    5.0520 o         1 1N8     -0.425000
     41 H22        -2.5300   -0.3550    2.1930 hc        1 1N8      0.113000
     42 H23        -1.6780   -1.0430    0.0570 ha        1 1N8      0.178000
     43 HN3         3.4780   -1.9430    3.4650 hn        1 1N8      0.295000
     44 H19         6.1980   -2.5340    2.8720 h1        1 1N8      0.130000
     45 H18         7.0970   -1.0810    0.8410 ha        1 1N8      0.199000
     46 H16         9.7210    1.1230    2.8470 ha        1 1N8      0.178000
     47 H12         1.0760   -1.6480    4.0100 ha        1 1N8      0.145000
     48 H251       -1.7390    1.8980    3.0090 hc        1 1N8      0.089000
     49 H252       -0.3120    1.7980    1.8930 hc        1 1N8      0.089000
     50 H253       -1.9900    1.8610    1.2100 hc        1 1N8      0.089000
     51 HN4         6.7810   -0.0750    4.3100 hn        1 1N8      0.239000
     52 H271        6.6830   -0.1330    6.5800 h1        1 1N8      0.106000
     53 H272        6.4950   -1.8600    7.1210 h1        1 1N8      0.106000
     54 H281        4.5760   -2.0490    8.9260 h1        1 1N8      0.085750
     55 H282        4.1230   -2.5650    7.2360 h1        1 1N8      0.085750
     56 H291        5.9710    0.2090    8.9860 h1        1 1N8      0.085750
     57 H292        4.1920    0.5600    9.0440 h1        1 1N8      0.085750
     58 H301        2.4890   -0.6650    9.0730 hc        1 1N8      0.074333
     59 H302        2.0750   -1.0800    7.3580 hc        1 1N8      0.074333
     60 H303        2.1410   -2.3860    8.6220 hc        1 1N8      0.074333
     61 H51         5.4140    2.5950    8.5470 hc        1 1N8      0.074333
     62 H52         6.2480    1.8630    7.1190 hc        1 1N8      0.074333
     63 H53         4.4610    2.1420    7.0710 hc        1 1N8      0.074333
     64 H2         -0.8770    0.5940    7.5930 hc        1 1N8      0.181000
     65 H7          0.3940   -0.5390    5.8020 ha        1 1N8      0.171000
     66 H9         -2.4410   -0.3340    4.5020 ha        1 1N8      0.117000
     67 H10        -3.8280    3.3280    5.9010 ha        1 1N8      0.271000
     68 HN2        -4.6990   -0.7390    7.3910 hn        1 1N8      0.272000
     69 H11        -5.6780   -4.3210    7.3670 h1        1 1N8      0.124000
     70 H12A       -5.9350   -2.5180    7.2450 h1        1 1N8      0.124000
     71 H13        -6.0340   -3.3560    8.8710 h1        1 1N8      0.124000
     72 H61         0.0100   -1.6980    8.1730 h4        1 1N8      0.221000
     73 N2         -4.1060   -3.2650    8.1400 n2        1 1N8     -0.071000
@<TRIPOS>BOND
     1    1    2 1   
     2    1   19 1   
     3    1   42 1   
     4    2    3 1   
     5    3    4 1   
     6    3   17 1   
     7    4    5 1   
     8    4   16 1   
     9    5    6 1   
    10    5   43 1   
    11    6    7 1   
    12    6   11 1   
    13    7    8 1   
    14    7   21 1   
    15    7   44 1   
    16    8    9 1   
    17    8   45 1   
    18    9   10 1   
    19   10   12 1   
    20   10   46 1   
    21   11   16 1   
    22   12   13 1   
    23   12   14 1   
    24   12   15 1   
    25   17   18 1   
    26   17   47 1   
    27   18   19 1   
    28   18   36 1   
    29   19   20 1   
    30   19   41 1   
    31   20   48 1   
    32   20   49 1   
    33   20   50 1   
    34   21   22 1   
    35   21   51 1   
    36   22   23 1   
    37   22   40 1   
    38   23   24 1   
    39   23   52 1   
    40   23   53 1   
    41   24   25 1   
    42   24   26 1   
    43   25   27 1   
    44   25   54 1   
    45   25   55 1   
    46   26   28 1   
    47   26   56 1   
    48   26   57 1   
    49   27   58 1   
    50   27   59 1   
    51   27   60 1   
    52   28   61 1   
    53   28   62 1   
    54   28   63 1   
    55   29   30 1   
    56   29   34 1   
    57   30   31 1   
    58   30   72 1   
    59   31   32 1   
    60   31   35 1   
    61   31   64 1   
    62   32   33 1   
    63   32   38 1   
    64   33   34 1   
    65   33   68 1   
    66   34   73 1   
    67   35   36 1   
    68   35   65 1   
    69   36   66 1   
    70   37   38 1   
    71   37   67 1   
    72   39   69 1   
    73   39   70 1   
    74   39   71 1   
    75   39   73 1   
@<TRIPOS>SUBSTRUCTURE
     1 1N8         1 TEMP              0 ****  ****    0 ROOT
