@<TRIPOS>MOLECULE
1N8
   73    74     1     0     0
SMALL
bcc


@<TRIPOS>ATOM
      1 C22         0.7520    1.0980   -0.5180 c2        1 1N8     -0.140300
      2 C23         1.8330    0.6580    0.0990 c1        1 1N8      0.102200
      3 C11         2.1530    0.4230    1.3780 ce        1 1N8     -0.254900
      4 C14         3.2000   -0.3980    1.8930 cc        1 1N8      0.560700
      5 N3          3.4040   -0.8150    3.1810 na        1 1N8     -0.325900
      6 C15         4.6160   -1.5620    3.2450 cc        1 1N8     -0.064500
      7 C20         5.1360   -2.1790    4.4050 ce        1 1N8     -0.135100
      8 C19         6.1720   -3.2370    4.2290 c3        1 1N8      0.000400
      9 C18         7.4840   -2.7850    4.6060 c1        1 1N8     -0.006100
     10 C17         8.5730   -2.4080    4.9220 c1        1 1N8     -0.245100
     11 C16         5.1150   -1.5580    1.9370 cd        1 1N8      0.135600
     12 C21         9.9100   -1.9440    5.3050 c3        1 1N8      0.749000
     13 F1          9.9060   -1.0160    6.3220 f         1 1N8     -0.223300
     14 F2         10.7450   -2.9380    5.7570 f         1 1N8     -0.223300
     15 F3         10.6110   -1.3380    4.2920 f         1 1N8     -0.223300
     16 O1          4.2240   -0.8480    1.1100 os        1 1N8     -0.274800
     17 C12         1.1030    0.9470    2.2690 ce        1 1N8     -0.172000
     18 C13        -0.1610    1.0540    1.7750 cf        1 1N8     -0.009200
     19 C24        -0.4950    0.8240    0.3040 c3        1 1N8     -0.009300
     20 C25        -1.6110    1.7150   -0.1990 c3        1 1N8     -0.089100
     21 N4          4.7130   -1.7790    5.6660 nh        1 1N8     -0.155100
     22 C26         4.5840   -2.4980    6.7770 c2        1 1N8      0.360600
     23 C27         4.1460   -1.9110    8.1170 c3        1 1N8      0.110500
     24 N6          3.6390   -0.5670    8.0140 n3        1 1N8     -0.875200
     25 C28         5.4350   -4.4720    7.8570 c3        1 1N8      0.126400
     26 C29         4.4340    0.4460    8.6580 c3        1 1N8      0.149100
     27 C30         6.8640   -4.0450    8.0610 c3        1 1N8     -0.141100
     28 C5         -2.0500    2.5970    6.6860 c2        1 1N8     -0.232000
     29 N1         -1.2380    0.2840    6.8170 ne        1 1N8     -0.536000
     30 C2         -1.9060    1.3520    6.1910 ce        1 1N8      0.132400
     31 C3         -2.4870    1.0070    4.8290 c3        1 1N8     -0.021600
     32 C4         -3.4460   -0.1760    4.9600 ce        1 1N8      0.509200
     33 N5         -3.0610   -1.3760    4.7090 n2        1 1N8     -0.738100
     34 C6         -0.7580    0.2880    7.9780 c1        1 1N8      0.570800
     35 C7         -1.3880    0.7270    3.8620 c2        1 1N8     -0.086200
     36 C8         -1.2710    1.3370    2.6730 cf        1 1N8     -0.172000
     37 C9         -5.8490    0.5530    5.7280 c1        1 1N8     -0.067500
     38 C10        -4.7520    0.2230    5.3790 cg        1 1N8     -0.256200
     39 C1         -0.4690   -0.3650   10.2570 c3        1 1N8      0.141100
     40 O2          4.8420   -3.8380    6.7050 os        1 1N8     -0.406400
     41 H22        -0.8210   -0.2540    0.2100 hc        1 1N8      0.101700
     42 H23         0.6940    1.6800   -1.4440 ha        1 1N8      0.191000
     43 HN3         2.7740   -0.6560    3.9310 hn        1 1N8      0.337700
     44 H19         6.1930   -3.5570    3.1460 hc        1 1N8      0.089200
     45 H18         5.9130   -4.1560    4.8340 hc        1 1N8      0.089200
     46 H16         5.9940   -1.9420    1.4300 h4        1 1N8      0.104100
     47 H12         1.3490    1.1850    3.3110 ha        1 1N8      0.148000
     48 H251       -2.5700    1.4500    0.3120 hc        1 1N8      0.057700
     49 H252       -1.7490    1.5700   -1.2980 hc        1 1N8      0.057700
     50 H253       -1.3840    2.7910   -0.0050 hc        1 1N8      0.057700
     51 HN4         4.4010   -0.8220    5.7360 hn        1 1N8      0.313700
     52 H271        3.3530   -2.6190    8.5020 h1        1 1N8      0.083200
     53 H272        5.0410   -1.9760    8.8050 h1        1 1N8      0.083200
     54 H281        4.8040   -4.2920    8.7640 h1        1 1N8      0.076200
     55 H282        5.3680   -5.5580    7.5610 h1        1 1N8      0.076200
     56 H291        5.4540    0.4740    8.1900 h1        1 1N8      0.048700
     57 H292        4.5580    0.2790    9.7630 h1        1 1N8      0.048700
     58 H301        7.3550   -4.7310    8.7950 hc        1 1N8      0.063033
     59 H302        7.4280   -4.0910    7.0960 hc        1 1N8      0.063033
     60 H303        6.9260   -3.0020    8.4540 hc        1 1N8      0.063033
     61 H51         3.9350    1.4380    8.5010 h1        1 1N8      0.048700
     62 H52        -2.5840    3.3810    6.1330 ha        1 1N8      0.134500
     63 H53        -1.6500    2.9030    7.6620 ha        1 1N8      0.134500
     64 H2         -3.0940    1.8910    4.4750 hc        1 1N8      0.082700
     65 H7         -0.6690   -0.0480    4.1790 ha        1 1N8      0.146000
     66 H9         -2.0030    2.0840    2.3240 ha        1 1N8      0.149000
     67 H10        -6.8230    0.8450    6.0360 ha        1 1N8      0.178500
     68 HN2        -3.7480   -2.0930    4.8260 hn        1 1N8      0.404400
     69 H11        -0.5410   -1.4860   10.2230 h1        1 1N8      0.057700
     70 H12A        0.3200   -0.0710   11.0000 h1        1 1N8      0.057700
     71 H13        -1.4570    0.0460   10.5970 h1        1 1N8      0.057700
     72 H61         2.6750   -0.5140    8.2840 hn        1 1N8      0.407800
     73 N2         -0.0490    0.1560    8.9960 n2        1 1N8     -0.575600
@<TRIPOS>BOND
     1    1    2 2   
     2    1   19 1   
     3    1   42 1   
     4    2    3 2   
     5    3    4 1   
     6    3   17 1   
     7    4    5 2   
     8    4   16 1   
     9    5    6 1   
    10    5   43 1   
    11    6    7 1   
    12    6   11 2   
    13    7    8 1   
    14    7   21 2   
    15    8    9 1   
    16    8   44 1   
    17    8   45 1   
    18    9   10 3   
    19   10   12 1   
    20   11   16 1   
    21   11   46 1   
    22   12   13 1   
    23   12   14 1   
    24   12   15 1   
    25   17   18 2   
    26   17   47 1   
    27   18   19 1   
    28   18   36 1   
    29   19   20 1   
    30   19   41 1   
    31   20   48 1   
    32   20   49 1   
    33   20   50 1   
    34   21   22 2   
    35   21   51 1   
    36   22   23 1   
    37   22   40 1   
    38   23   24 1   
    39   23   52 1   
    40   23   53 1   
    41   24   26 1   
    42   24   72 1   
    43   25   27 1   
    44   25   40 1   
    45   25   54 1   
    46   25   55 1   
    47   26   56 1   
    48   26   57 1   
    49   26   61 1   
    50   27   58 1   
    51   27   59 1   
    52   27   60 1   
    53   28   30 2   
    54   28   62 1   
    55   28   63 1   
    56   29   30 1   
    57   29   34 2   
    58   30   31 1   
    59   31   32 1   
    60   31   35 1   
    61   31   64 1   
    62   32   33 2   
    63   32   38 1   
    64   33   68 1   
    65   34   73 2   
    66   35   36 2   
    67   35   65 1   
    68   36   66 1   
    69   37   38 3   
    70   37   67 1   
    71   39   69 1   
    72   39   70 1   
    73   39   71 1   
    74   39   73 1   
@<TRIPOS>SUBSTRUCTURE
     1 1N8         1 TEMP              0 ****  ****    0 ROOT
