@<TRIPOS>MOLECULE
1N8
   72    75     1     0     0
SMALL
bcc


@<TRIPOS>ATOM
      1 C22         1.8520   -2.1210   -1.6120 ca        1 1N8     -0.141000
      2 C23         2.3760   -2.9520   -2.5960 ca        1 1N8     -0.069000
      3 C11         2.3530   -4.3410   -2.4190 ca        1 1N8     -0.155600
      4 C14         2.9380   -5.1880   -3.4990 c         1 1N8      0.678700
      5 N3          2.2660   -6.3700   -3.7910 n         1 1N8     -0.483100
      6 C15         2.5830   -7.2290   -4.8640 ca        1 1N8      0.014600
      7 C20         2.3990   -8.6490   -4.7390 ca        1 1N8      0.065600
      8 C19         2.6600   -9.4640   -5.8590 ca        1 1N8     -0.144000
      9 C18         3.1230   -8.9240   -7.0510 ca        1 1N8     -0.075000
     10 C17         3.3430   -7.5510   -7.1520 ca        1 1N8     -0.176300
     11 C16         3.0750   -6.7100   -6.0760 ca        1 1N8     -0.073000
     12 C21         3.8860   -6.9640   -8.4480 c3        1 1N8      0.692200
     13 F1          3.5380   -7.6620   -9.5800 f         1 1N8     -0.237967
     14 F2          3.4780   -5.6780   -8.7120 f         1 1N8     -0.237967
     15 F3          5.2570   -6.8990   -8.5080 f         1 1N8     -0.237967
     16 O1          3.9690   -4.8460   -4.1060 o         1 1N8     -0.576100
     17 C12         1.8220   -4.8840   -1.2480 ca        1 1N8     -0.089000
     18 C13         1.2960   -4.0480   -0.2550 cp        1 1N8     -0.051000
     19 C24         1.3070   -2.6530   -0.4360 ca        1 1N8     -0.032300
     20 C25         0.7800   -1.7380    0.6030 c3        1 1N8     -0.063800
     21 N4          1.9690   -9.1950   -3.5170 n         1 1N8     -0.468100
     22 C26         1.3250  -10.4140   -3.3580 c         1 1N8      0.659100
     23 C27         1.0020  -10.8580   -1.9210 c3        1 1N8      0.092800
     24 N6          2.0990  -10.6760   -0.9870 n3        1 1N8     -0.749600
     25 C28         3.1990  -11.6020   -1.2460 c3        1 1N8      0.165800
     26 C29         1.6630  -10.6970    0.4050 c3        1 1N8      0.165800
     27 C30         4.5370  -11.1400   -0.6920 c3        1 1N8     -0.096100
     28 C5          0.8040   -9.5120    0.8140 c3        1 1N8     -0.096100
     29 N1         -2.9820   -5.9350    3.7750 nb        1 1N8     -0.729000
     30 C2         -2.5060   -5.3870    2.6790 ca        1 1N8      0.487200
     31 C3         -1.1050   -5.2980    2.3750 ca        1 1N8     -0.323600
     32 C4         -0.2160   -5.8620    3.3410 ca        1 1N8      0.464600
     33 N5         -0.6750   -6.4490    4.4970 nb        1 1N8     -0.757000
     34 C6         -2.0250   -6.4500    4.6950 ca        1 1N8      0.872900
     35 C7         -0.6080   -4.6990    1.1990 ca        1 1N8     -0.063000
     36 C8          0.7520   -4.6550    0.9640 cp        1 1N8     -0.071000
     37 C9          1.6460   -5.2200    1.9140 ca        1 1N8     -0.086000
     38 C10         1.1900   -5.8040    3.0680 ca        1 1N8     -0.195300
     39 C1         -1.7370   -7.7220    6.7830 c3        1 1N8      0.197100
     40 O2          0.9410  -11.1150   -4.3100 o         1 1N8     -0.589100
     41 H22         1.8710   -1.0290   -1.7560 ha        1 1N8      0.143000
     42 H23         2.8220   -2.5290   -3.5110 ha        1 1N8      0.157000
     43 HN3         1.4030   -6.5450   -3.3270 hn        1 1N8      0.323500
     44 H19         2.4900  -10.5530   -5.7980 ha        1 1N8      0.174000
     45 H18         3.3200   -9.5810   -7.9150 ha        1 1N8      0.155000
     46 H16         3.2610   -5.6250   -6.1780 ha        1 1N8      0.176000
     47 H12         1.8250   -5.9730   -1.0800 ha        1 1N8      0.138000
     48 H251       -0.1700   -2.1370    1.0380 hc        1 1N8      0.053033
     49 H252        1.5260   -1.6350    1.4320 hc        1 1N8      0.053033
     50 H253        0.5800   -0.7220    0.1820 hc        1 1N8      0.053033
     51 HN4         2.3090   -8.7490   -2.6920 hn        1 1N8      0.337500
     52 H271        0.6680  -11.9350   -1.9940 h1        1 1N8      0.069700
     53 H272        0.1200  -10.2430   -1.5830 h1        1 1N8      0.069700
     54 H281        2.9710  -12.6290   -0.8350 h1        1 1N8      0.037950
     55 H282        3.3020  -11.7070   -2.3660 h1        1 1N8      0.037950
     56 H291        1.1020  -11.6490    0.6420 h1        1 1N8      0.037950
     57 H292        2.5940  -10.6890    1.0430 h1        1 1N8      0.037950
     58 H301        4.7800  -10.1040   -1.0300 hc        1 1N8      0.041533
     59 H302        4.5480  -11.1600    0.4240 hc        1 1N8      0.041533
     60 H303        5.3320  -11.8320   -1.0640 hc        1 1N8      0.041533
     61 H51         1.2700   -8.5460    0.5060 hc        1 1N8      0.041533
     62 H52        -0.2180   -9.5720    0.3680 hc        1 1N8      0.041533
     63 H53         0.6990   -9.5170    1.9260 hc        1 1N8      0.041533
     64 H2         -3.2490   -4.9840    1.9630 h4        1 1N8      0.028100
     65 H7         -1.3190   -4.2700    0.4760 ha        1 1N8      0.139000
     66 H9          2.7280   -5.1760    1.7080 ha        1 1N8      0.143000
     67 H10         1.8940   -6.2310    3.7990 ha        1 1N8      0.154000
     68 HN2        -3.5210   -7.1290    5.9030 hn        1 1N8      0.435800
     69 H11        -0.8340   -7.1370    7.1060 h1        1 1N8      0.046367
     70 H12A       -1.3860   -8.6750    6.2990 h1        1 1N8      0.046367
     71 H13        -2.3500   -7.9760    7.6880 h1        1 1N8      0.046367
     72 N2         -2.5440   -6.9290    5.9050 nh        1 1N8     -0.834900
@<TRIPOS>BOND
     1    1    2 ar  
     2    1   19 ar  
     3    1   41 1   
     4    2    3 ar  
     5    2   42 1   
     6    3    4 1   
     7    3   17 ar  
     8    4    5 1   
     9    4   16 2   
    10    5    6 1   
    11    5   43 1   
    12    6    7 ar  
    13    6   11 ar  
    14    7    8 ar  
    15    7   21 1   
    16    8    9 ar  
    17    8   44 1   
    18    9   10 ar  
    19    9   45 1   
    20   10   11 ar  
    21   10   12 1   
    22   11   46 1   
    23   12   13 1   
    24   12   14 1   
    25   12   15 1   
    26   17   18 ar  
    27   17   47 1   
    28   18   19 ar  
    29   18   36 1   
    30   19   20 1   
    31   20   48 1   
    32   20   49 1   
    33   20   50 1   
    34   21   22 1   
    35   21   51 1   
    36   22   23 1   
    37   22   40 2   
    38   23   24 1   
    39   23   52 1   
    40   23   53 1   
    41   24   25 1   
    42   24   26 1   
    43   25   27 1   
    44   25   54 1   
    45   25   55 1   
    46   26   28 1   
    47   26   56 1   
    48   26   57 1   
    49   27   58 1   
    50   27   59 1   
    51   27   60 1   
    52   28   61 1   
    53   28   62 1   
    54   28   63 1   
    55   29   30 ar  
    56   29   34 ar  
    57   30   31 ar  
    58   30   64 1   
    59   31   32 ar  
    60   31   35 ar  
    61   32   33 ar  
    62   32   38 ar  
    63   33   34 ar  
    64   34   72 1   
    65   35   36 ar  
    66   35   65 1   
    67   36   37 ar  
    68   37   38 ar  
    69   37   66 1   
    70   38   67 1   
    71   39   69 1   
    72   39   70 1   
    73   39   71 1   
    74   39   72 1   
    75   68   72 1   
@<TRIPOS>SUBSTRUCTURE
     1 1N8         1 TEMP              0 ****  ****    0 ROOT
