@<TRIPOS>MOLECULE
1N9
   96   100     1     0     0
SMALL
bcc


@<TRIPOS>ATOM
      1 C13        -0.2030   -1.2380    0.0020 ca        1 1N9      0.889900
      2 N1          1.1750   -1.1160   -0.0180 nb        1 1N9     -0.745000
      3 C19         1.8250   -1.3160    1.1620 ca        1 1N9      0.594200
      4 C20         1.1260   -1.5830    2.3720 ca        1 1N9     -0.410600
      5 C5         -0.2730   -1.6500    2.2820 ca        1 1N9      0.469200
      6 N3         -0.9620   -1.4850    1.1460 nb        1 1N9     -0.751000
      7 N4         -0.9130   -1.1580   -1.2130 nh        1 1N9     -0.705300
      8 C9         -0.3450   -0.6050   -2.3850 ca        1 1N9      0.166600
      9 N6          3.2570   -1.2720    1.1970 n         1 1N9     -0.322500
     10 C10         3.8180   -0.3490    2.1340 ca        1 1N9     -0.049400
     11 C11         3.8960    1.0550    1.8900 ca        1 1N9      0.175100
     12 C12         3.9720   -1.5790    0.0200 c         1 1N9      0.760100
     13 C14         4.3210   -0.8410    3.3500 ca        1 1N9     -0.039000
     14 C15         4.8780    0.0090    4.3000 ca        1 1N9     -0.244000
     15 C16         4.9440    1.3830    4.0410 ca        1 1N9      0.176100
     16 C17         4.4550    1.9150    2.8370 ca        1 1N9     -0.238000
     17 C18        -1.0250    0.4380   -3.0480 ca        1 1N9     -0.194500
     18 C21        -0.5120    0.9550   -4.2420 ca        1 1N9      0.127600
     19 C22         0.6690    0.4440   -4.8050 ca        1 1N9      0.034100
     20 C23         1.3370   -0.6070   -4.1350 ca        1 1N9      0.127600
     21 C24         0.8350   -1.1350   -2.9420 ca        1 1N9     -0.194500
     22 O1          5.2080   -0.9470   -0.0490 os        1 1N9     -0.352200
     23 C25         6.0320   -1.2700   -1.1320 ca        1 1N9      0.100100
     24 C26         5.9890   -0.4670   -2.2850 ca        1 1N9     -0.058300
     25 C27         6.9440   -0.7000   -3.2830 ca        1 1N9     -0.135500
     26 C28         7.8930   -1.7080   -3.1390 ca        1 1N9     -0.122000
     27 C29         7.9070   -2.5070   -1.9970 ca        1 1N9     -0.135500
     28 C30         6.9740   -2.3030   -0.9760 ca        1 1N9     -0.058300
     29 C31         6.9760   -3.1460    0.2390 c3        1 1N9     -0.061800
     30 C32         4.9650    0.5850   -2.4690 c3        1 1N9     -0.061800
     31 O6          2.5100   -1.0340   -4.7230 os        1 1N9     -0.334400
     32 C33         3.0750   -2.2360   -4.2030 c3        1 1N9      0.108200
     33 O2          3.6610   -2.3940   -0.8540 o         1 1N9     -0.535000
     34 O3          5.4720    2.3170    4.9070 os        1 1N9     -0.323900
     35 O4          3.3840    1.4870    0.6880 os        1 1N9     -0.315900
     36 C36         3.5680    2.8640    0.3700 c3        1 1N9      0.110700
     37 C37         6.0020    1.8150    6.1300 c3        1 1N9      0.112700
     38 O5          1.0860    0.8950   -6.0430 os        1 1N9     -0.340900
     39 C7          2.2880    1.6910   -5.9870 c3        1 1N9      0.137400
     40 C8          2.5310    2.1530   -7.4110 c3        1 1N9     -0.083400
     41 C35         3.5710    3.2660   -7.4760 c3        1 1N9      0.171800
     42 O7         -1.1680    2.0530   -4.7800 os        1 1N9     -0.334400
     43 C34        -1.7230    1.8290   -6.0770 c3        1 1N9      0.108200
     44 C1          6.9280    1.4940   -7.1320 c3        1 1N9      0.167800
     45 N2          7.7870    2.6670   -7.0760 n3        1 1N9     -0.732600
     46 C3          7.1620    3.7700   -6.3600 c3        1 1N9      0.167800
     47 C4          5.7470    4.0910   -6.8760 c3        1 1N9      0.165300
     48 N5          4.8800    2.9210   -6.9360 n3        1 1N9     -0.730600
     49 C6          5.5060    1.8070   -7.6340 c3        1 1N9      0.165300
     50 H20         1.6500   -1.7270    3.3230 ha        1 1N9      0.162000
     51 H5         -0.8850   -1.8480    3.1830 h4        1 1N9      0.029100
     52 HN4        -1.8940   -0.9850   -1.1090 hn        1 1N9      0.442800
     53 H14         4.2780   -1.9220    3.5610 ha        1 1N9      0.148000
     54 H15         5.2620   -0.4100    5.2400 ha        1 1N9      0.144000
     55 H17         4.5240    2.9980    2.6650 ha        1 1N9      0.161000
     56 H18        -1.9500    0.8730   -2.6420 ha        1 1N9      0.164000
     57 H24         1.3720   -1.9550   -2.4380 ha        1 1N9      0.164000
     58 H27         6.9330   -0.0760   -4.1900 ha        1 1N9      0.136000
     59 H28         8.6350   -1.8780   -3.9330 ha        1 1N9      0.132000
     60 H29         8.6550   -3.3070   -1.8950 ha        1 1N9      0.136000
     61 H311        7.6010   -4.0610    0.0980 hc        1 1N9      0.054033
     62 H312        5.9300   -3.4590    0.4890 hc        1 1N9      0.054033
     63 H313        7.3810   -2.5660    1.1060 hc        1 1N9      0.054033
     64 H321        4.1370    0.1940   -3.1180 hc        1 1N9      0.054033
     65 H322        4.5250    0.9000   -1.4880 hc        1 1N9      0.054033
     66 H323        5.4060    1.4820   -2.9690 hc        1 1N9      0.054033
     67 H331        3.9380   -2.4290   -4.8890 h1        1 1N9      0.050867
     68 H332        3.4290   -2.0840   -3.1520 h1        1 1N9      0.050867
     69 H333        2.3370   -3.0720   -4.2530 h1        1 1N9      0.050867
     70 H361        3.1350    2.9450   -0.6600 h1        1 1N9      0.052033
     71 H362        3.0060    3.5100    1.0870 h1        1 1N9      0.052033
     72 H363        4.6540    3.1270    0.3660 h1        1 1N9      0.052033
     73 H371        6.8410    1.1050    5.9340 h1        1 1N9      0.048033
     74 H372        5.2010    1.3200    6.7320 h1        1 1N9      0.048033
     75 H373        6.3740    2.7350    6.6470 h1        1 1N9      0.048033
     76 H71         3.1300    1.0560   -5.6050 h1        1 1N9      0.050700
     77 H72         2.1240    2.5600   -5.2990 h1        1 1N9      0.050700
     78 H81         2.8360    1.2800   -8.0430 hc        1 1N9      0.055200
     79 H82         1.5730    2.5520   -7.8380 hc        1 1N9      0.055200
     80 H351        3.6460    3.5990   -8.5550 h1        1 1N9      0.033200
     81 H352        3.1880    4.1420   -6.8770 h1        1 1N9      0.033200
     82 H341       -2.4830    1.0130   -6.0360 h1        1 1N9      0.050867
     83 H342       -0.9190    1.5800   -6.8110 h1        1 1N9      0.050867
     84 H343       -2.2040    2.8080   -6.3260 h1        1 1N9      0.050867
     85 H11         6.8510    0.9870   -6.1250 h1        1 1N9      0.035200
     86 H12         7.3930    0.7630   -7.8510 h1        1 1N9      0.035200
     87 H31         7.7990    4.6850   -6.5130 h1        1 1N9      0.035200
     88 H32         7.1060    3.5690   -5.2500 h1        1 1N9      0.035200
     89 H41         5.2820    4.8270   -6.1620 h1        1 1N9      0.038700
     90 H42         5.8370    4.5950   -7.8830 h1        1 1N9      0.038700
     91 H61         5.5490    1.9860   -8.7480 h1        1 1N9      0.038700
     92 H62         4.8760    0.8920   -7.4510 h1        1 1N9      0.038700
     93 H21         9.7390    3.2870   -6.6350 h1        1 1N9      0.032033
     94 H22         9.5650    1.5700   -7.2240 h1        1 1N9      0.032033
     95 H23         9.1100    1.9970   -5.5110 h1        1 1N9      0.032033
     96 C2          9.1080    2.3620   -6.5750 c3        1 1N9      0.157100
@<TRIPOS>BOND
     1    1    2 ar  
     2    1    6 ar  
     3    1    7 1   
     4    2    3 ar  
     5    3    4 ar  
     6    3    9 1   
     7    4    5 ar  
     8    4   50 1   
     9    5    6 ar  
    10    5   51 1   
    11    7    8 1   
    12    7   52 1   
    13    8   17 ar  
    14    8   21 ar  
    15    9   10 1   
    16    9   12 1   
    17   10   11 ar  
    18   10   13 ar  
    19   11   16 ar  
    20   11   35 1   
    21   12   22 1   
    22   12   33 2   
    23   13   14 ar  
    24   13   53 1   
    25   14   15 ar  
    26   14   54 1   
    27   15   16 ar  
    28   15   34 1   
    29   16   55 1   
    30   17   18 ar  
    31   17   56 1   
    32   18   19 ar  
    33   18   42 1   
    34   19   20 ar  
    35   19   38 1   
    36   20   21 ar  
    37   20   31 1   
    38   21   57 1   
    39   22   23 1   
    40   23   24 ar  
    41   23   28 ar  
    42   24   25 ar  
    43   24   30 1   
    44   25   26 ar  
    45   25   58 1   
    46   26   27 ar  
    47   26   59 1   
    48   27   28 ar  
    49   27   60 1   
    50   28   29 1   
    51   29   61 1   
    52   29   62 1   
    53   29   63 1   
    54   30   64 1   
    55   30   65 1   
    56   30   66 1   
    57   31   32 1   
    58   32   67 1   
    59   32   68 1   
    60   32   69 1   
    61   34   37 1   
    62   35   36 1   
    63   36   70 1   
    64   36   71 1   
    65   36   72 1   
    66   37   73 1   
    67   37   74 1   
    68   37   75 1   
    69   38   39 1   
    70   39   40 1   
    71   39   76 1   
    72   39   77 1   
    73   40   41 1   
    74   40   78 1   
    75   40   79 1   
    76   41   48 1   
    77   41   80 1   
    78   41   81 1   
    79   42   43 1   
    80   43   82 1   
    81   43   83 1   
    82   43   84 1   
    83   44   45 1   
    84   44   49 1   
    85   44   85 1   
    86   44   86 1   
    87   45   46 1   
    88   45   96 1   
    89   46   47 1   
    90   46   87 1   
    91   46   88 1   
    92   47   48 1   
    93   47   89 1   
    94   47   90 1   
    95   48   49 1   
    96   49   91 1   
    97   49   92 1   
    98   93   96 1   
    99   94   96 1   
   100   95   96 1   
@<TRIPOS>SUBSTRUCTURE
     1 1N9         1 TEMP              0 ****  ****    0 ROOT
