@<TRIPOS>MOLECULE
1N9
   96   100     1     0     0
SMALL
bcc


@<TRIPOS>ATOM
      1 C13        -2.0330   -2.2940  -11.5250 ca        1 1N9      0.889900
      2 N1         -0.6570   -2.2660  -11.3820 nb        1 1N9     -0.746000
      3 C19         0.0780   -2.6510  -12.4620 ca        1 1N9      0.595200
      4 C20        -0.5300   -3.1060  -13.6650 ca        1 1N9     -0.411600
      5 C5         -1.9330   -3.1240  -13.6870 ca        1 1N9      0.470200
      6 N3         -2.7050   -2.7390  -12.6620 nb        1 1N9     -0.751000
      7 N4         -2.8380   -1.8020  -10.4780 nh        1 1N9     -0.706300
      8 C9         -2.3320   -1.5960   -9.1720 ca        1 1N9      0.165600
      9 N6          1.5090   -2.5920  -12.4020 n         1 1N9     -0.321500
     10 C10         2.1830   -3.8160  -12.7070 ca        1 1N9     -0.049400
     11 C11         2.2880   -4.8970  -11.7810 ca        1 1N9      0.175100
     12 C12         2.1140   -1.6780  -11.5140 c         1 1N9      0.760100
     13 C14         2.7730   -3.9660  -13.9730 ca        1 1N9     -0.039000
     14 C15         3.4420   -5.1340  -14.3270 ca        1 1N9     -0.244000
     15 C16         3.5330   -6.1810  -13.4040 ca        1 1N9      0.176100
     16 C17         2.9580   -6.0720  -12.1270 ca        1 1N9     -0.238000
     17 C18        -2.9700   -2.2210   -8.0810 ca        1 1N9     -0.193500
     18 C21        -2.5190   -1.9800   -6.7790 ca        1 1N9      0.126100
     19 C22        -1.4440   -1.1090   -6.5340 ca        1 1N9      0.036100
     20 C23        -0.8220   -0.4770   -7.6360 ca        1 1N9      0.126100
     21 C24        -1.2600   -0.7120   -8.9420 ca        1 1N9     -0.193500
     22 O1          3.3530   -2.1050  -11.0530 os        1 1N9     -0.352200
     23 C25         4.0700   -1.2310  -10.2300 ca        1 1N9      0.100100
     24 C26         3.9220   -1.3270   -8.8360 ca        1 1N9     -0.057800
     25 C27         4.7880   -0.5770   -8.0290 ca        1 1N9     -0.136000
     26 C28         5.7500    0.2520   -8.5990 ca        1 1N9     -0.124000
     27 C29         5.8660    0.3540   -9.9840 ca        1 1N9     -0.136000
     28 C30         5.0250   -0.3850  -10.8220 ca        1 1N9     -0.057800
     29 C31         5.1380   -0.2860  -12.2940 c3        1 1N9     -0.060300
     30 C32         2.8780   -2.1740   -8.2170 c3        1 1N9     -0.060300
     31 O6          0.2380    0.3490   -7.3240 os        1 1N9     -0.333900
     32 C33         0.7920    1.1030   -8.4020 c3        1 1N9      0.108200
     33 O2          1.7110   -0.5500  -11.2110 o         1 1N9     -0.535000
     34 O3          4.1680   -7.3810  -13.6450 os        1 1N9     -0.323900
     35 O4          1.6860   -4.7040  -10.5590 os        1 1N9     -0.315900
     36 C36         1.8900   -5.7160   -9.5770 c3        1 1N9      0.110700
     37 C37         4.7870   -7.5240  -14.9190 c3        1 1N9      0.112700
     38 O5         -1.0990   -0.8100   -5.2290 os        1 1N9     -0.339900
     39 C7          0.2050   -1.3000   -4.8540 c3        1 1N9      0.135400
     40 C8          0.3940   -0.8870   -3.4070 c3        1 1N9     -0.083400
     41 C35         1.7040   -1.4210   -2.8360 c3        1 1N9      0.173800
     42 O7         -3.1130   -2.7150   -5.7640 os        1 1N9     -0.333900
     43 C34        -3.8110   -1.9260   -4.8000 c3        1 1N9      0.108200
     44 C1          4.3860    0.9150   -4.2040 c3        1 1N9      0.166300
     45 N2          5.5690    0.1770   -3.7850 n3        1 1N9     -0.731600
     46 C3          5.3640   -1.2640   -3.8240 c3        1 1N9      0.166300
     47 C4          4.0830   -1.7090   -3.0950 c3        1 1N9      0.166300
     48 N5          2.9010   -0.9840   -3.5420 n3        1 1N9     -0.733600
     49 C6          3.0970    0.4580   -3.4960 c3        1 1N9      0.166300
     50 H20         0.0630   -3.4280  -14.5270 ha        1 1N9      0.162000
     51 H5         -2.4770   -3.4710  -14.5860 h4        1 1N9      0.029100
     52 HN4        -3.7920   -2.1040  -10.5090 hn        1 1N9      0.442800
     53 H14         2.7110   -3.1430  -14.7060 ha        1 1N9      0.148000
     54 H15         3.8930   -5.2150  -15.3250 ha        1 1N9      0.144000
     55 H17         3.0500   -6.9130  -11.4270 ha        1 1N9      0.161000
     56 H18        -3.8130   -2.9140   -8.2250 ha        1 1N9      0.163000
     57 H24        -0.7560   -0.2160   -9.7880 ha        1 1N9      0.163000
     58 H27         4.6970   -0.6470   -6.9330 ha        1 1N9      0.137500
     59 H28         6.4220    0.8340   -7.9500 ha        1 1N9      0.131000
     60 H29         6.6220    1.0190  -10.4260 ha        1 1N9      0.137500
     61 H311        5.6300   -1.2040  -12.7020 hc        1 1N9      0.053367
     62 H312        4.1180   -0.2050  -12.7510 hc        1 1N9      0.053367
     63 H313        5.7390    0.6060  -12.5960 hc        1 1N9      0.053367
     64 H321        1.9860   -1.5420   -7.9620 hc        1 1N9      0.053367
     65 H322        2.5470   -2.9860   -8.9150 hc        1 1N9      0.053367
     66 H323        3.2550   -2.6420   -7.2750 hc        1 1N9      0.053367
     67 H331        0.0130    1.7550   -8.8660 h1        1 1N9      0.050867
     68 H332        1.2490    0.4250   -9.1660 h1        1 1N9      0.050867
     69 H333        1.5770    1.7230   -7.8990 h1        1 1N9      0.050867
     70 H361        2.9800   -5.8590   -9.3770 h1        1 1N9      0.052033
     71 H362        1.4170   -6.6750   -9.8990 h1        1 1N9      0.052033
     72 H363        1.3720   -5.3000   -8.6750 h1        1 1N9      0.052033
     73 H371        5.2360   -8.5480  -14.8760 h1        1 1N9      0.048033
     74 H372        5.5800   -6.7500  -15.0610 h1        1 1N9      0.048033
     75 H373        4.0260   -7.4600  -15.7350 h1        1 1N9      0.048033
     76 H71         0.9780   -0.8390   -5.5220 h1        1 1N9      0.052200
     77 H72         0.2230   -2.4160   -4.9640 h1        1 1N9      0.052200
     78 H81        -0.4470   -1.3020   -2.7900 hc        1 1N9      0.054700
     79 H82         0.3440    0.2290   -3.3270 hc        1 1N9      0.054700
     80 H351        1.7420   -1.1350   -1.7430 h1        1 1N9      0.032700
     81 H352        1.6780   -2.5480   -2.8910 h1        1 1N9      0.032700
     82 H341       -4.6520   -1.3760   -5.2880 h1        1 1N9      0.050867
     83 H342       -3.1160   -1.2110   -4.2960 h1        1 1N9      0.050867
     84 H343       -4.2010   -2.6840   -4.0750 h1        1 1N9      0.050867
     85 H11         4.2260    0.8440   -5.3200 h1        1 1N9      0.036450
     86 H12         4.5520    1.9990   -3.9480 h1        1 1N9      0.036450
     87 H31         6.2390   -1.7490   -3.3080 h1        1 1N9      0.036450
     88 H32         5.3290   -1.6510   -4.8850 h1        1 1N9      0.036450
     89 H41         3.9250   -2.8010   -3.3180 h1        1 1N9      0.038950
     90 H42         4.2430   -1.6030   -1.9820 h1        1 1N9      0.038950
     91 H61         3.1120    0.8420   -2.4340 h1        1 1N9      0.038950
     92 H62         2.2310    0.9400   -4.0300 h1        1 1N9      0.038950
     93 H21         6.9100    1.6830   -4.3510 h1        1 1N9      0.031700
     94 H22         6.6860    0.3870   -5.6160 h1        1 1N9      0.031700
     95 H23         7.6360    0.0290   -4.1000 h1        1 1N9      0.031700
     96 C2          6.7520    0.5840   -4.5080 c3        1 1N9      0.156100
@<TRIPOS>BOND
     1    1    2 ar  
     2    1    6 ar  
     3    1    7 1   
     4    2    3 ar  
     5    3    4 ar  
     6    3    9 1   
     7    4    5 ar  
     8    4   50 1   
     9    5    6 ar  
    10    5   51 1   
    11    7    8 1   
    12    7   52 1   
    13    8   17 ar  
    14    8   21 ar  
    15    9   10 1   
    16    9   12 1   
    17   10   11 ar  
    18   10   13 ar  
    19   11   16 ar  
    20   11   35 1   
    21   12   22 1   
    22   12   33 2   
    23   13   14 ar  
    24   13   53 1   
    25   14   15 ar  
    26   14   54 1   
    27   15   16 ar  
    28   15   34 1   
    29   16   55 1   
    30   17   18 ar  
    31   17   56 1   
    32   18   19 ar  
    33   18   42 1   
    34   19   20 ar  
    35   19   38 1   
    36   20   21 ar  
    37   20   31 1   
    38   21   57 1   
    39   22   23 1   
    40   23   24 ar  
    41   23   28 ar  
    42   24   25 ar  
    43   24   30 1   
    44   25   26 ar  
    45   25   58 1   
    46   26   27 ar  
    47   26   59 1   
    48   27   28 ar  
    49   27   60 1   
    50   28   29 1   
    51   29   61 1   
    52   29   62 1   
    53   29   63 1   
    54   30   64 1   
    55   30   65 1   
    56   30   66 1   
    57   31   32 1   
    58   32   67 1   
    59   32   68 1   
    60   32   69 1   
    61   34   37 1   
    62   35   36 1   
    63   36   70 1   
    64   36   71 1   
    65   36   72 1   
    66   37   73 1   
    67   37   74 1   
    68   37   75 1   
    69   38   39 1   
    70   39   40 1   
    71   39   76 1   
    72   39   77 1   
    73   40   41 1   
    74   40   78 1   
    75   40   79 1   
    76   41   48 1   
    77   41   80 1   
    78   41   81 1   
    79   42   43 1   
    80   43   82 1   
    81   43   83 1   
    82   43   84 1   
    83   44   45 1   
    84   44   49 1   
    85   44   85 1   
    86   44   86 1   
    87   45   46 1   
    88   45   96 1   
    89   46   47 1   
    90   46   87 1   
    91   46   88 1   
    92   47   48 1   
    93   47   89 1   
    94   47   90 1   
    95   48   49 1   
    96   49   91 1   
    97   49   92 1   
    98   93   96 1   
    99   94   96 1   
   100   95   96 1   
@<TRIPOS>SUBSTRUCTURE
     1 1N9         1 TEMP              0 ****  ****    0 ROOT
