@<TRIPOS>MOLECULE
1N9
   96    91     1     0     0
SMALL
bcc


@<TRIPOS>ATOM
      1 C13         0.3910   -0.9870    1.8540 c1        1 1N9      0.172000
      2 N1          1.7650   -0.9160    1.8610 n2        1 1N9     -0.236000
      3 C19         2.4400   -0.9620    3.0320 c1        1 1N9      0.200000
      4 C20         1.7600   -1.0790    4.2010 c1        1 1N9     -0.133750
      5 C5          0.3700   -1.1510    4.1910 c1        1 1N9     -0.133750
      6 N3         -0.2940   -1.1050    3.0330 n1        1 1N9     -0.217000
      7 N4         -0.2890   -1.0860    0.6530 n2        1 1N9     -0.227000
      8 C9         -1.5990   -0.4240    0.4890 c2        1 1N9      0.069000
      9 N6          3.8810   -0.8330    3.0400 n         1 1N9     -0.193000
     10 C10         4.7300   -1.9040    3.6740 c2        1 1N9     -0.037000
     11 C11         5.8610   -2.3790    3.0020 c2        1 1N9      0.134000
     12 C12         4.4990    0.3560    2.5150 c2        1 1N9      0.412000
     13 C14         4.4630   -2.3240    4.9600 c1        1 1N9     -0.047000
     14 C15         5.3290   -3.2310    5.5980 c1        1 1N9     -0.194000
     15 C16         6.4650   -3.7070    4.9250 c1        1 1N9      0.129000
     16 C17         6.7280   -3.2830    3.6350 c1        1 1N9     -0.281000
     17 C18        -2.2830   -1.2580   -0.3880 c1        1 1N9     -0.180000
     18 C21        -3.4480   -0.8180   -0.9920 c1        1 1N9      0.054000
     19 C22        -3.9260    0.4440   -0.7220 c1        1 1N9     -0.010000
     20 C23        -3.2320    1.2790    0.1640 c1        1 1N9      0.067000
     21 C24        -2.0840    0.8450    0.7580 c2        1 1N9     -0.119000
     22 O1          5.8660    0.6820    2.8820 os        1 1N9     -0.223000
     23 C25         6.2870    2.0010    2.4730 c2        1 1N9      0.059000
     24 C26         6.9600    2.1720    1.2700 c2        1 1N9     -0.053000
     25 C27         7.4220    3.4200    0.9080 c1        1 1N9     -0.134000
     26 C28         7.2120    4.5150    1.7530 c1        1 1N9     -0.133750
     27 C29         6.5380    4.3470    2.9580 c1        1 1N9     -0.133750
     28 C30         6.0770    3.1020    3.3210 c1        1 1N9     -0.050000
     29 C31         5.5120    2.8910    4.6740 c3        1 1N9     -0.182000
     30 C32         7.2200    0.9610    0.3560 c3        1 1N9     -0.186000
     31 O6         -3.7220    2.5480    0.4500 os        1 1N9     -0.221000
     32 C33        -4.4020    2.6270    1.6650 c3        1 1N9     -0.074000
     33 O2          3.8170    1.1690    1.8020 o         1 1N9     -0.319000
     34 O3          7.4100   -4.4840    5.6110 os        1 1N9     -0.204000
     35 O4          5.9180   -2.4230    1.6020 os        1 1N9     -0.201000
     36 C36         6.0420   -3.7300    1.0780 c3        1 1N9     -0.077000
     37 C37         7.0960   -5.8680    5.6510 c3        1 1N9     -0.078000
     38 O5         -5.0550    0.9680   -1.4670 os        1 1N9     -0.231000
     39 C7         -4.6740    1.6430   -2.7120 c3        1 1N9     -0.028000
     40 C8         -5.8570    2.5580   -3.2150 c3        1 1N9     -0.167000
     41 C35        -6.2110    2.1670   -4.7040 c3        1 1N9     -0.071000
     42 O7         -4.1290   -1.6410   -1.8450 os        1 1N9     -0.230000
     43 C34        -4.9770   -2.6040   -1.1790 c3        1 1N9     -0.080000
     44 C1         -7.7760    1.8030   -7.1650 c3        1 1N9     -0.101000
     45 N2         -7.6780    0.4010   -7.3240 n3        1 1N9     -0.257000
     46 C3         -6.9450   -0.2080   -6.2950 c3        1 1N9     -0.101000
     47 C4         -7.4570    0.2010   -4.8970 c3        1 1N9     -0.079000
     48 N5         -7.5490    1.5960   -4.7500 n3        1 1N9     -0.245000
     49 C6         -8.2790    2.2020   -5.7870 c3        1 1N9     -0.079000
     50 C2         -7.0470    0.1080   -8.6310 c3        1 1N9     -0.118000
     51 H20         2.2790   -1.1150    5.1070 ha        1 1N9      0.149000
     52 H5         -0.1120   -1.2340    5.0160 ha        1 1N9      0.149000
     53 HN4         0.0810   -1.5800   -0.0570 hn        1 1N9      0.241000
     54 H14         3.6550   -1.9870    5.4350 ha        1 1N9      0.152000
     55 H15         5.1340   -3.5370    6.5430 ha        1 1N9      0.157000
     56 H17         7.5080   -3.6090    3.1700 ha        1 1N9      0.148000
     57 H18        -1.9570   -2.1170   -0.5710 ha        1 1N9      0.150000
     58 H24        -1.6010    1.4330    1.3780 ha        1 1N9      0.175000
     59 H27         7.8840    3.5370    0.0810 ha        1 1N9      0.134000
     60 H28         7.5510    5.4330    1.4860 ha        1 1N9      0.149000
     61 H29         6.3950    5.0960    3.5340 ha        1 1N9      0.149000
     62 H311        4.6560    2.4890    4.6000 hc        1 1N9      0.090667
     63 H312        5.4270    3.7750    5.1420 hc        1 1N9      0.090667
     64 H313        6.1390    2.2710    5.2150 hc        1 1N9      0.090667
     65 H321        7.9670    1.1390   -0.2000 hc        1 1N9      0.090667
     66 H322        6.4370    0.7960   -0.1960 hc        1 1N9      0.090667
     67 H323        7.4020    0.1770    0.9010 hc        1 1N9      0.090667
     68 H331       -5.3430    2.4520    1.5200 h1        1 1N9      0.085333
     69 H332       -4.0270    1.9430    2.3030 h1        1 1N9      0.085333
     70 H333       -4.2930    3.5250    2.0450 h1        1 1N9      0.085333
     71 H361        5.5340   -3.7950    0.2070 h1        1 1N9      0.088333
     72 H362        5.6860   -4.3560    1.7020 h1        1 1N9      0.088333
     73 H363        6.9490   -3.9220    0.9250 h1        1 1N9      0.088333
     74 H371        6.1300   -5.9820    5.8220 h1        1 1N9      0.087000
     75 H372        7.6120   -6.3000    6.3730 h1        1 1N9      0.087000
     76 H373        7.3240   -6.2790    4.7950 h1        1 1N9      0.087000
     77 H71        -3.8750    2.1980   -2.5520 h1        1 1N9      0.088500
     78 H72        -4.4680    0.9510   -3.4150 h1        1 1N9      0.088500
     79 H81        -5.5780    3.5110   -3.1790 hc        1 1N9      0.101500
     80 H82        -6.6410    2.4250   -2.6440 hc        1 1N9      0.101500
     81 H351       -5.5650    1.5110   -5.0260 h1        1 1N9      0.072000
     82 H352       -6.1740    2.9710   -5.2760 h1        1 1N9      0.072000
     83 H341       -5.6610   -2.9770   -1.8460 h1        1 1N9      0.086667
     84 H342       -4.4230   -3.3430   -0.8260 h1        1 1N9      0.086667
     85 H343       -5.4390   -2.1760   -0.4540 h1        1 1N9      0.086667
     86 H11        -6.9090    2.1920   -7.3050 h1        1 1N9      0.074000
     87 H12        -8.3730    2.1400   -7.8150 h1        1 1N9      0.074000
     88 H31        -7.0160   -1.1660   -6.3850 h1        1 1N9      0.074000
     89 H32        -6.0350    0.0380   -6.3760 h1        1 1N9      0.074000
     90 H41        -6.8450   -0.1500   -4.2180 h1        1 1N9      0.098750
     91 H42        -8.3980   -0.2150   -4.7470 h1        1 1N9      0.098750
     92 H61        -8.2110    3.1720   -5.6950 h1        1 1N9      0.098750
     93 H62        -9.2520    1.9310   -5.7040 h1        1 1N9      0.098750
     94 H21        -6.8940   -0.8840   -8.7190 h1        1 1N9      0.071000
     95 H22        -7.6550    0.4220   -9.3710 h1        1 1N9      0.071000
     96 H23        -6.1560    0.5970   -8.6940 h1        1 1N9      0.071000
@<TRIPOS>BOND
     1    1    2 1   
     2    1    6 1   
     3    2    3 1   
     4    3    9 1   
     5    4    5 1   
     6    4   51 1   
     7    5   52 1   
     8    7    8 1   
     9    7   53 1   
    10    8   17 1   
    11    8   21 1   
    12    9   10 1   
    13    9   12 1   
    14   10   11 1   
    15   10   13 1   
    16   11   16 1   
    17   11   35 1   
    18   12   22 1   
    19   12   33 1   
    20   13   54 1   
    21   14   15 1   
    22   14   55 1   
    23   15   34 1   
    24   16   56 1   
    25   17   57 1   
    26   18   19 1   
    27   18   42 1   
    28   19   38 1   
    29   20   21 1   
    30   20   31 1   
    31   21   58 1   
    32   22   23 1   
    33   23   24 1   
    34   23   28 1   
    35   24   25 1   
    36   24   30 1   
    37   25   59 1   
    38   26   27 1   
    39   26   60 1   
    40   27   61 1   
    41   28   29 1   
    42   29   62 1   
    43   29   63 1   
    44   29   64 1   
    45   30   65 1   
    46   30   66 1   
    47   30   67 1   
    48   31   32 1   
    49   32   68 1   
    50   32   69 1   
    51   32   70 1   
    52   34   37 1   
    53   35   36 1   
    54   36   71 1   
    55   36   72 1   
    56   36   73 1   
    57   37   74 1   
    58   37   75 1   
    59   37   76 1   
    60   38   39 1   
    61   39   40 1   
    62   39   77 1   
    63   39   78 1   
    64   40   41 1   
    65   40   79 1   
    66   40   80 1   
    67   41   48 1   
    68   41   81 1   
    69   41   82 1   
    70   42   43 1   
    71   43   83 1   
    72   43   84 1   
    73   43   85 1   
    74   44   45 1   
    75   44   49 1   
    76   44   86 1   
    77   44   87 1   
    78   45   46 1   
    79   45   50 1   
    80   46   47 1   
    81   46   88 1   
    82   46   89 1   
    83   47   48 1   
    84   47   90 1   
    85   47   91 1   
    86   48   49 1   
    87   49   92 1   
    88   49   93 1   
    89   50   94 1   
    90   50   95 1   
    91   50   96 1   
@<TRIPOS>SUBSTRUCTURE
     1 1N9         1 TEMP              0 ****  ****    0 ROOT
