@<TRIPOS>MOLECULE
1NA
   33    33     1     0     0
SMALL
bcc


@<TRIPOS>ATOM
      1 C1          0.9940   -0.5040   -0.0410 c3        1 1NA      0.323900
      2 C2         -0.2560   -0.0100    0.7500 c3        1 1NA      0.087700
      3 C3         -1.4910   -0.4080   -0.1020 c3        1 1NA      0.126100
      4 C4         -1.3670    0.2200   -1.5020 c3        1 1NA      0.076100
      5 C5         -0.0630   -0.2360   -2.1660 c3        1 1NA      0.076100
      6 C6          0.1880    0.5010   -3.4860 c3        1 1NA      0.136400
      7 C7         -0.3080    0.2750    3.2040 c         1 1NA      0.668100
      8 C8         -0.5110   -0.4060    4.5360 c3        1 1NA     -0.175100
      9 N2         -0.2940   -0.5450    2.0810 n         1 1NA     -0.552900
     10 O1          2.1390    0.0410    0.5690 os        1 1NA     -0.387600
     11 O3         -2.6470    0.0720    0.5570 oh        1 1NA     -0.588800
     12 O4         -2.4990   -0.2430   -2.2240 oh        1 1NA     -0.602800
     13 O5          1.0510    0.0870   -1.3380 os        1 1NA     -0.449600
     14 O6          1.3820    0.0640   -4.0950 oh        1 1NA     -0.592800
     15 O7         -0.1260    1.5030    3.1190 o         1 1NA     -0.589100
     16 H1          1.0360   -1.6250   -0.1250 h2        1 1NA      0.038700
     17 H2         -0.2010    1.1190    0.8150 h1        1 1NA      0.127700
     18 H3         -1.5590   -1.5280   -0.2070 h1        1 1NA      0.044700
     19 H4         -1.3900    1.3420   -1.4170 h1        1 1NA      0.070700
     20 H5         -0.0900   -1.3470   -2.3440 h1        1 1NA      0.063700
     21 H61        -0.6240    0.2520   -4.2200 h1        1 1NA      0.053200
     22 H62         0.2230    1.6080   -3.3050 h1        1 1NA      0.053200
     23 H81        -0.4540    0.3640    5.3430 hc        1 1NA      0.066033
     24 H82        -1.5120   -0.8980    4.5730 hc        1 1NA      0.066033
     25 H83         0.2820   -1.1730    4.7100 hc        1 1NA      0.066033
     26 HM1         4.1460    0.0530    0.6560 h1        1 1NA      0.039367
     27 HM2         3.4170   -1.5860    0.2470 h1        1 1NA      0.039367
     28 HM3         3.4660   -0.2670   -1.0240 h1        1 1NA      0.039367
     29 HN2        -0.6160   -1.4780    2.1770 hn        1 1NA      0.302500
     30 HO3        -3.3870   -0.0670   -0.0500 ho        1 1NA      0.422000
     31 HO4        -2.5200    0.2430   -3.0570 ho        1 1NA      0.413000
     32 HO6         2.0970    0.2290   -3.4650 ho        1 1NA      0.417000
     33 CM          3.3620   -0.4840    0.0670 c3        1 1NA      0.117700
@<TRIPOS>BOND
     1    1    2 1   
     2    1   10 1   
     3    1   13 1   
     4    1   16 1   
     5    2    3 1   
     6    2    9 1   
     7    2   17 1   
     8    3    4 1   
     9    3   11 1   
    10    3   18 1   
    11    4    5 1   
    12    4   12 1   
    13    4   19 1   
    14    5    6 1   
    15    5   13 1   
    16    5   20 1   
    17    6   14 1   
    18    6   21 1   
    19    6   22 1   
    20    7    8 1   
    21    7    9 1   
    22    7   15 2   
    23    8   23 1   
    24    8   24 1   
    25    8   25 1   
    26    9   29 1   
    27   10   33 1   
    28   11   30 1   
    29   12   31 1   
    30   14   32 1   
    31   26   33 1   
    32   27   33 1   
    33   28   33 1   
@<TRIPOS>SUBSTRUCTURE
     1 1NA         1 TEMP              0 ****  ****    0 ROOT
