@<TRIPOS>MOLECULE
1NA
   33    32     1     0     0
SMALL
bcc


@<TRIPOS>ATOM
      1 C1         -0.9940    0.3300   -0.6340 c3        1 1NA      0.113000
      2 C2          0.5270    0.3260   -0.6240 c3        1 1NA     -0.013000
      3 C3          1.0790    0.3420    0.7440 c3        1 1NA      0.037000
      4 C4          0.4960   -0.7260    1.5980 c3        1 1NA     -0.029000
      5 C5         -1.0270   -0.7180    1.5770 c3        1 1NA      0.006000
      6 C6         -1.5150    0.5090    2.2820 c3        1 1NA     -0.044000
      7 C7          2.0290   -0.7720   -2.3070 c1        1 1NA      0.301000
      8 C8          2.4600   -2.0100   -3.0890 c2        1 1NA     -0.240000
      9 CM         -2.3290    2.1990   -1.0550 c3        1 1NA     -0.067000
     10 N2          1.0030   -0.8760   -1.3120 n3        1 1NA     -0.371000
     11 O1         -1.4430    1.5630   -0.1810 os        1 1NA     -0.322000
     12 O3          0.7980    1.6430    1.3540 oh        1 1NA     -0.316000
     13 O4          0.9590   -1.9990    1.1270 oh        1 1NA     -0.337000
     14 O5         -1.5680   -0.7290    0.2210 os        1 1NA     -0.285000
     15 O6         -2.2250    0.1350    3.4340 oh        1 1NA     -0.335000
     16 O7          2.5020    0.3110   -2.5800 o         1 1NA     -0.375000
     17 H1         -1.3030    0.1980   -1.5450 h2        1 1NA      0.139000
     18 H2          0.8460    1.1100   -1.1020 h1        1 1NA      0.148000
     19 H3          2.0500    0.2160    0.6960 h1        1 1NA      0.141000
     20 H4          0.8000   -0.5980    2.5140 h1        1 1NA      0.115000
     21 H5         -1.3530   -1.5060    2.0520 h1        1 1NA      0.126000
     22 H61        -0.7550    1.0620    2.5350 h1        1 1NA      0.079000
     23 H62        -2.1090    1.0210    1.6790 h1        1 1NA      0.079000
     24 H81         3.0270   -1.7390   -3.8430 ha        1 1NA      0.107000
     25 H82         2.9650   -2.6110   -2.4980 ha        1 1NA      0.107000
     26 H83         1.6660   -2.4750   -3.4270 ha        1 1NA      0.107000
     27 HM1        -1.8710    2.3940   -1.9000 h1        1 1NA      0.081000
     28 HM2        -2.6420    3.0390   -0.6510 h1        1 1NA      0.081000
     29 HM3        -3.0940    1.6130   -1.2270 h1        1 1NA      0.081000
     30 HN2         0.7070   -1.7020   -1.0460 hn        1 1NA      0.246000
     31 HO3         1.5700    2.0600    1.5380 ho        1 1NA      0.221000
     32 HO4         1.2530   -2.4780    1.8110 ho        1 1NA      0.212000
     33 HO6        -2.5060    0.8670    3.8610 ho        1 1NA      0.207000
@<TRIPOS>BOND
     1    1    2 1   
     2    1   11 1   
     3    1   14 1   
     4    1   17 1   
     5    2    3 1   
     6    2   10 1   
     7    2   18 1   
     8    3    4 1   
     9    3   12 1   
    10    3   19 1   
    11    4    5 1   
    12    4   13 1   
    13    4   20 1   
    14    5    6 1   
    15    5   14 1   
    16    5   21 1   
    17    6   15 1   
    18    6   22 1   
    19    6   23 1   
    20    7   10 1   
    21    7   16 1   
    22    8   24 1   
    23    8   25 1   
    24    8   26 1   
    25    9   11 1   
    26    9   27 1   
    27    9   28 1   
    28    9   29 1   
    29   10   30 1   
    30   12   31 1   
    31   13   32 1   
    32   15   33 1   
@<TRIPOS>SUBSTRUCTURE
     1 1NA         1 TEMP              0 ****  ****    0 ROOT
