@<TRIPOS>MOLECULE
1NB
   28    26     1     0     0
SMALL
bcc


@<TRIPOS>ATOM
      1 C7          0.7780   -0.1190   -0.0170 c3        1 1NB     -0.167000
      2 C8         -0.7350   -0.0780   -0.0020 c3        1 1NB     -0.102000
      3 C9         -1.1540    1.0870    0.4710 c3        1 1NB     -0.155000
      4 C17         2.7920    0.0160    1.4080 c1        1 1NB     -0.195000
      5 O5          1.9550   -1.1970   -1.7670 o         1 1NB     -0.296000
      6 O4         -1.4090   -1.5580   -1.9760 oh        1 1NB     -0.333000
      7 C26        -2.4810    1.3970   -0.3260 c3        1 1NB     -0.154000
      8 C29        -1.3340   -0.1890   -1.5760 c3        1 1NB      0.024000
      9 C27         1.2940   -0.1990    1.4030 c2        1 1NB     -0.123000
     10 C28        -2.5150    0.3310   -1.5500 c3        1 1NB     -0.192000
     11 C19         3.5140   -0.2990    2.5020 c1        1 1NB     -0.195000
     12 C30         1.2420   -1.3330   -0.7900 c2        1 1NB      0.187000
     13 H7          1.1220    0.6890   -0.4430 hc        1 1NB      0.119000
     14 H8         -1.0860   -0.8080    0.5440 hc        1 1NB      0.115000
     15 H91        -0.4850    1.7830    0.3030 hc        1 1NB      0.087000
     16 H92        -1.3410    1.0180    1.4300 hc        1 1NB      0.087000
     17 H17         3.2350    0.3820    0.6190 ha        1 1NB      0.127500
     18 HO4        -1.4950   -1.6040   -2.8600 ho        1 1NB      0.203000
     19 H261       -3.2600    1.2720    0.2530 hc        1 1NB      0.085000
     20 H262       -2.4610    2.3110   -0.6740 hc        1 1NB      0.085000
     21 H29        -0.7590    0.3120   -2.1910 h1        1 1NB      0.081000
     22 H271        0.8640    0.4920    1.9460 ha        1 1NB      0.092000
     23 H272        1.0900   -1.0800    1.7750 ha        1 1NB      0.092000
     24 H281       -3.1870   -0.3610   -1.3800 hc        1 1NB      0.089500
     25 H282       -2.7030    0.7900   -2.3950 hc        1 1NB      0.089500
     26 H191        3.0700   -0.6650    3.2920 DU        1 1NB      0.108000
     27 H192        4.4820   -0.1600    2.5050 ha        1 1NB      0.127500
     28 H30         0.9680   -2.2280   -0.5060 h4        1 1NB      0.113000
@<TRIPOS>BOND
     1    1    2 1   
     2    1    9 1   
     3    1   12 1   
     4    1   13 1   
     5    2    3 1   
     6    2    8 1   
     7    2   14 1   
     8    3    7 1   
     9    3   15 1   
    10    3   16 1   
    11    4   11 1   
    12    4   17 1   
    13    5   12 1   
    14    6    8 1   
    15    6   18 1   
    16    7   10 1   
    17    7   19 1   
    18    7   20 1   
    19    8   10 1   
    20    8   21 1   
    21    9   22 1   
    22    9   23 1   
    23   10   24 1   
    24   10   25 1   
    25   11   27 1   
    26   12   28 1   
@<TRIPOS>SUBSTRUCTURE
     1 1NB         1 TEMP              0 ****  ****    0 ROOT
