@<TRIPOS>MOLECULE
1NB
   28    23     1     0     0
SMALL
bcc


@<TRIPOS>ATOM
      1 C7          1.8380    0.2080   -0.4510 c3        1 1NB     -0.206500
      2 C8          0.6100    0.0540    0.4190 c3        1 1NB     -0.148000
      3 C9          0.7670    0.8220    1.7120 c3        1 1NB     -0.206500
      4 O4         -0.8760   -0.2070   -1.5060 oh        1 1NB     -0.346000
      5 C26        -4.7000    1.5050   -3.1170 c1        1 1NB     -0.226500
      6 C29        -0.6380    0.5290   -0.3210 c3        1 1NB     -0.021000
      7 C27         3.9360   -0.7350    2.6370 c2        1 1NB      0.115000
      8 C28        -3.6430    1.0900   -2.7440 c1        1 1NB     -0.226500
      9 C19         4.4780   -1.2530    5.1190 c1        1 1NB      0.215000
     10 C30         0.5630   -1.7480   -3.1520 c1        1 1NB      0.186000
     11 H7          2.7390   -0.1950    0.0730 hc        1 1NB      0.076000
     12 H8          0.4790   -1.0390    0.6610 hc        1 1NB      0.087000
     13 H91         0.8730    1.9160    1.5100 hc        1 1NB      0.076000
     14 H92         1.6820    0.4760    2.2550 hc        1 1NB      0.076000
     15 H17         4.1070    0.2600    2.1860 ha        1 1NB      0.117500
     16 HO4        -0.9040   -1.1440   -1.2710 ho        1 1NB      0.210000
     17 H261       -0.1190    0.6660    2.3730 hc        1 1NB      0.076000
     18 H262       -5.6380    1.8730   -3.4490 ha        1 1NB      0.225000
     19 H29        -0.5180    1.5900   -0.6690 h1        1 1NB      0.089500
     20 H271        3.5150   -1.4920    1.9510 ha        1 1NB      0.117500
     21 H272        2.0190    1.2830   -0.6910 hc        1 1NB      0.076000
     22 H281       -2.7000    0.7210   -2.4140 ha        1 1NB      0.225000
     23 H282       -1.5330    0.4560    0.3550 h1        1 1NB      0.089500
     24 H191        3.7430    2.4430    1.2600 ha        1 1NB      0.000500
     25 H192        3.2050    2.0490    1.1350 ha        1 1NB      0.000500
     26 H30         1.6960   -0.3490   -1.4110 hc        1 1NB      0.076000
     27 C17         4.2090   -0.9960    3.8930 c1        1 1NB     -0.567000
     28 O5          0.9210   -1.0230   -3.9990 o         1 1NB     -0.188000
@<TRIPOS>BOND
     1    1    2 1   
     2    1   11 1   
     3    1   21 1   
     4    1   26 1   
     5    2    3 1   
     6    2    6 1   
     7    2   12 1   
     8    3   13 1   
     9    3   14 1   
    10    3   17 1   
    11    4    6 1   
    12    4   16 1   
    13    5    8 1   
    14    5   18 1   
    15    6   19 1   
    16    6   23 1   
    17    7   15 1   
    18    7   20 1   
    19    7   27 1   
    20    8   22 1   
    21    9   27 1   
    22   10   28 1   
    23   24   25 1   
@<TRIPOS>SUBSTRUCTURE
     1 1NB         1 TEMP              0 ****  ****    0 ROOT
