@<TRIPOS>MOLECULE
1NB
   28    28     1     0     0
SMALL
bcc


@<TRIPOS>ATOM
      1 C7         -0.1240    0.1370   -0.6870 c3        1 1NB     -0.177700
      2 C8          0.3290   -0.3850    0.6700 c3        1 1NB     -0.062700
      3 C9          1.7550    0.0380    1.0160 c3        1 1NB     -0.076400
      4 O4         -1.5170   -0.8620    2.1030 oh        1 1NB     -0.605800
      5 C26         1.7990    0.3050    2.5140 c3        1 1NB     -0.075400
      6 C29        -0.5560    0.1450    1.8150 c3        1 1NB      0.135100
      7 C27         0.6340   -0.5660   -1.8090 c3        1 1NB     -0.040200
      8 C28         0.3660    0.4270    3.0070 c3        1 1NB     -0.113400
      9 C19         1.3840    0.1870   -4.0510 c2        1 1NB     -0.220000
     10 C30        -1.6080   -0.0900   -0.8590 c         1 1NB      0.568900
     11 H7          0.0810    1.2430   -0.7510 hc        1 1NB      0.079700
     12 H8          0.2590   -1.5080    0.6660 hc        1 1NB      0.075700
     13 H91         2.0370    0.9620    0.4500 hc        1 1NB      0.047700
     14 H92         2.4800   -0.7640    0.7320 hc        1 1NB      0.047700
     15 H17        -0.5670    0.5330   -3.2770 ha        1 1NB      0.140000
     16 HO4        -2.0110   -0.5640    2.8760 ho        1 1NB      0.404000
     17 H261        2.3750    1.2400    2.7290 hc        1 1NB      0.045700
     18 H262        2.3190   -0.5340    3.0420 hc        1 1NB      0.045700
     19 H29        -1.0940    1.0830    1.5020 h1        1 1NB      0.041700
     20 H271        1.7250   -0.5970   -1.5420 hc        1 1NB      0.052700
     21 H272        0.2820   -1.6320   -1.8850 hc        1 1NB      0.052700
     22 H281        0.1690    1.4500    3.4130 hc        1 1NB      0.050200
     23 H282        0.1670   -0.3080    3.8280 hc        1 1NB      0.050200
     24 H191        1.2070    0.6750   -5.0190 ha        1 1NB      0.111500
     25 H192        2.3930   -0.2240   -3.9170 ha        1 1NB      0.111500
     26 H30        -2.0160   -0.9790   -0.3260 h4        1 1NB      0.020200
     27 C17         0.4390    0.1040   -3.1180 c2        1 1NB     -0.174200
     28 O5         -2.3210    0.6560   -1.5300 o         1 1NB     -0.535100
@<TRIPOS>BOND
     1    1    2 1   
     2    1    7 1   
     3    1   10 1   
     4    1   11 1   
     5    2    3 1   
     6    2    6 1   
     7    2   12 1   
     8    3    5 1   
     9    3   13 1   
    10    3   14 1   
    11    4    6 1   
    12    4   16 1   
    13    5    8 1   
    14    5   17 1   
    15    5   18 1   
    16    6    8 1   
    17    6   19 1   
    18    7   20 1   
    19    7   21 1   
    20    7   27 1   
    21    8   22 1   
    22    8   23 1   
    23    9   24 1   
    24    9   25 1   
    25    9   27 2   
    26   10   26 1   
    27   10   28 2   
    28   15   27 1   
@<TRIPOS>SUBSTRUCTURE
     1 1NB         1 TEMP              0 ****  ****    0 ROOT
