@<TRIPOS>MOLECULE
1NB
   28    22     1     0     0
SMALL
bcc


@<TRIPOS>ATOM
      1 C7          2.2520   -0.3030   -0.6070 c1        1 1NB     -0.119000
      2 C8          0.9330    0.1370   -0.9160 c3        1 1NB     -0.171000
      3 C9          0.3070    1.0080    0.1480 c3        1 1NB     -0.212000
      4 O4         -2.1770   -3.2280   -1.9320 o         1 1NB     -0.181000
      5 C26        -2.8750    2.3550   -1.1370 c1        1 1NB     -0.219500
      6 C29        -1.2670   -2.5300   -1.7000 c1        1 1NB      0.179000
      7 C27         1.7960   -1.0020    2.8610 c3        1 1NB     -0.275000
      8 C28        -2.7040    3.4330   -1.6260 c1        1 1NB     -0.219500
      9 C19         3.5480    1.8980    1.6070 c2        1 1NB     -0.576000
     10 C30         3.0550   -1.3760   -1.0240 c2        1 1NB      0.156000
     11 H7          2.0630   -0.5760    1.8660 hc        1 1NB      0.069250
     12 H8          0.2300   -0.7090   -1.1840 hc        1 1NB      0.146500
     13 H91         1.0100    1.8200    0.4580 hc        1 1NB      0.088333
     14 H92         0.0600    0.3970    1.0510 hc        1 1NB      0.088333
     15 H17         2.1170   -2.0650    2.9110 hc        1 1NB      0.069250
     16 HO4         1.0750    0.7440   -1.8710 hc        1 1NB      0.146500
     17 H261       -0.6350    1.4690   -0.2410 hc        1 1NB      0.088333
     18 H262       -3.0330    1.4000   -0.7010 ha        1 1NB      0.219500
     19 H29        -2.4610   -0.8950   -0.2710 ha        1 1NB      0.002500
     20 H271        2.3120   -0.4230    3.6580 hc        1 1NB      0.069250
     21 H272        0.6960   -0.9380    3.0100 hc        1 1NB      0.069250
     22 H281       -1.8730   -0.5720   -0.1700 ha        1 1NB      0.002500
     23 H282       -2.5520    4.3890   -2.0600 ha        1 1NB      0.219500
     24 H191        3.2510    1.1780    0.8110 ha        1 1NB      0.206500
     25 H192        3.3170    1.5140    2.6120 ha        1 1NB      0.206500
     26 H30         2.9910   -2.2300   -0.2960 h4        1 1NB      0.112000
     27 C17         4.1060    3.0430    1.3420 c1        1 1NB      0.152000
     28 O5          3.8800   -1.3840   -1.9510 o         1 1NB     -0.319000
@<TRIPOS>BOND
     1    1    2 1   
     2    1   10 1   
     3    2    3 1   
     4    2   12 1   
     5    2   16 1   
     6    3   13 1   
     7    3   14 1   
     8    3   17 1   
     9    4    6 1   
    10    5    8 1   
    11    5   18 1   
    12    7   11 1   
    13    7   15 1   
    14    7   20 1   
    15    7   21 1   
    16    8   23 1   
    17    9   24 1   
    18    9   25 1   
    19    9   27 1   
    20   10   26 1   
    21   10   28 1   
    22   19   22 1   
@<TRIPOS>SUBSTRUCTURE
     1 1NB         1 TEMP              0 ****  ****    0 ROOT
