@<TRIPOS>MOLECULE
1ND
   46    48     1     0     0
SMALL
bcc


@<TRIPOS>ATOM
      1 O           0.4060    1.1690    0.4310 o         1 1ND     -0.291000
      2 F1          7.3140   -2.0430   -6.3410 f         1 1ND     -0.156333
      3 N1          4.6190   -1.0140   -5.5120 n2        1 1ND      0.053000
      4 C2          5.3680   -0.6030   -6.5290 c2        1 1ND     -0.168000
      5 F2          7.1390   -0.8950   -8.1710 f         1 1ND     -0.156333
      6 N2          3.7110   -0.0620   -5.1730 n3        1 1ND     -0.165000
      7 C3          4.0400    1.2310   -5.8820 c3        1 1ND     -0.008000
      8 F3          5.8350   -2.5950   -7.8350 f         1 1ND     -0.156333
      9 N3          1.7540   -0.5680    1.3750 nx        1 1ND      0.144000
     10 C4          2.8880    1.9510   -6.5680 c3        1 1ND     -0.146000
     11 C5          3.4730    3.1180   -7.3470 c3        1 1ND     -0.159000
     12 C6          4.5300    2.7210   -8.3660 c3        1 1ND     -0.138000
     13 C7          5.2620    1.4660   -8.0630 c2        1 1ND     -0.094000
     14 C8          5.0320    0.7710   -6.9500 c2        1 1ND     -0.129000
     15 C9          3.3400    0.0700   -3.7840 c2        1 1ND      0.154000
     16 C10         2.1060    0.5610   -3.4830 c2        1 1ND     -0.149000
     17 C11         1.5730    0.7550   -2.1560 c2        1 1ND     -0.038000
     18 C12         1.8430   -0.0100   -1.0850 c2        1 1ND     -0.211000
     19 C13         5.0600   -0.6600   -1.9560 c1        1 1ND     -0.120000
     20 C14         4.2690   -0.3280   -2.7920 c1        1 1ND     -0.184000
     21 C15         1.2330    0.2740    0.2240 c2        1 1ND      0.209000
     22 C16         1.1140   -0.2390    2.7010 c3        1 1ND     -0.108000
     23 C17         2.2050    0.3460    3.6090 c3        1 1ND     -0.164000
     24 C18         3.5190    0.2150    2.8310 c3        1 1ND     -0.026000
     25 C19         3.1540   -0.4170    1.5500 c2        1 1ND     -0.713000
     26 H4          4.5400    1.9390   -5.1600 h1        1 1ND      0.115000
     27 H4A         2.1580    2.3320   -5.8090 hc        1 1ND      0.098500
     28 H5          2.3420    1.2560   -7.2550 hc        1 1ND      0.098500
     29 H5A         3.9210    3.8470   -6.6200 hc        1 1ND      0.088500
     30 H6          2.6400    3.6500   -7.8770 hc        1 1ND      0.088500
     31 H6A         4.0420    2.5850   -9.3720 hc        1 1ND      0.101000
     32 H7          5.2690    3.5620   -8.4750 hc        1 1ND      0.101000
     33 H7A         5.9730    1.1180   -8.8310 ha        1 1ND      0.150000
     34 H10         1.4250    0.8740   -4.2980 ha        1 1ND      0.151000
     35 H11         0.8630    1.6020   -2.0600 ha        1 1ND      0.149000
     36 H13         2.5340   -0.8690   -1.1420 ha        1 1ND      0.162000
     37 H14         5.7490   -0.9490   -1.2010 ha        1 1ND      0.238000
     38 H16         1.5320   -1.5320    1.1120 hn        1 1ND      0.201000
     39 H16A        0.7010   -1.1900    3.1300 hx        1 1ND      0.115500
     40 H17         0.2750    0.4900    2.5460 hx        1 1ND      0.115500
     41 H17A        1.9790    1.4150    3.8410 hc        1 1ND      0.089000
     42 H18         2.2440   -0.2200    4.5700 hc        1 1ND      0.089000
     43 H18A        3.9980    1.2210    2.6950 hc        1 1ND      0.057000
     44 H19         4.2500   -0.4250    3.3900 hc        1 1ND      0.057000
     45 H19A        3.8150   -0.5260    0.7000 hx        1 1ND      0.152000
     46 C1          6.3870   -1.5110   -7.2010 c3        1 1ND      0.504000
@<TRIPOS>BOND
     1    1   21 1   
     2    2   46 1   
     3    3    4 1   
     4    3    6 1   
     5    4   14 1   
     6    4   46 1   
     7    5   46 1   
     8    6    7 1   
     9    6   15 1   
    10    7   10 1   
    11    7   14 1   
    12    7   26 1   
    13    8   46 1   
    14    9   21 1   
    15    9   22 1   
    16    9   25 1   
    17    9   38 1   
    18   10   11 1   
    19   10   27 1   
    20   10   28 1   
    21   11   12 1   
    22   11   29 1   
    23   11   30 1   
    24   12   13 1   
    25   12   31 1   
    26   12   32 1   
    27   13   14 1   
    28   13   33 1   
    29   15   16 1   
    30   15   20 1   
    31   16   17 1   
    32   16   34 1   
    33   17   18 1   
    34   17   35 1   
    35   18   21 1   
    36   18   36 1   
    37   19   20 1   
    38   19   37 1   
    39   22   23 1   
    40   22   39 1   
    41   22   40 1   
    42   23   24 1   
    43   23   41 1   
    44   23   42 1   
    45   24   25 1   
    46   24   43 1   
    47   24   44 1   
    48   25   45 1   
@<TRIPOS>SUBSTRUCTURE
     1 1ND         1 TEMP              0 ****  ****    0 ROOT
