@<TRIPOS>MOLECULE
1ND
   46    48     1     0     0
SMALL
bcc


@<TRIPOS>ATOM
      1 O          -0.5020   -0.2740   -0.1090 o         1 1ND     -0.303000
      2 F1          7.0870   -2.0810   -6.6500 f         1 1ND     -0.155667
      3 N1          5.4870   -0.2550   -4.8830 n2        1 1ND      0.066000
      4 C2          5.7790   -0.0930   -6.1700 c2        1 1ND     -0.176000
      5 F2          8.1980   -0.2460   -6.3020 f         1 1ND     -0.155667
      6 N2          4.3910    0.4710   -4.5540 n3        1 1ND     -0.180000
      7 C3          3.7500    1.0420   -5.7860 c3        1 1ND      0.007000
      8 F3          7.1110   -0.5250   -8.1580 f         1 1ND     -0.155667
      9 N3          1.2170   -0.4290    1.4920 n4        1 1ND      0.142000
     10 C4          3.4250    2.5310   -5.7790 c3        1 1ND     -0.151000
     11 C5          2.9280    2.9000   -7.1670 c3        1 1ND     -0.160000
     12 C6          3.9030    2.5750   -8.2880 c3        1 1ND     -0.139000
     13 C7          4.8670    1.4860   -7.9920 c2        1 1ND     -0.092000
     14 C8          4.8220    0.7990   -6.8500 c2        1 1ND     -0.130000
     15 C9          3.5800    0.0700   -3.4500 c2        1 1ND      0.207000
     16 C10         2.2740    0.4590   -3.3470 c2        1 1ND     -0.218000
     17 C11         1.3900    0.2130   -2.2400 c2        1 1ND     -0.024000
     18 C12         1.7380    0.0120   -0.9550 c2        1 1ND     -0.215000
     19 C13         4.7630   -1.3730   -1.6180 c1        1 1ND     -0.103000
     20 C14         4.2170   -0.7080   -2.4500 c1        1 1ND     -0.174000
     21 C15         0.7200   -0.2010    0.0750 c2        1 1ND      0.217000
     22 C16         1.7960    0.8460    2.0560 c3        1 1ND     -0.098000
     23 C17         3.2910    0.6060    2.3140 c3        1 1ND     -0.168000
     24 C18         3.5500   -0.8630    1.9500 c3        1 1ND     -0.015000
     25 C19         2.2350   -1.4060    1.5730 c2        1 1ND     -0.741000
     26 H4          2.8160    0.4540   -6.0280 h1        1 1ND      0.116000
     27 H4A         4.3370    3.1280   -5.5180 hc        1 1ND      0.102000
     28 H5          2.6370    2.7640   -5.0180 hc        1 1ND      0.102000
     29 H5A         1.9600    2.3640   -7.3560 hc        1 1ND      0.088500
     30 H6          2.7050    4.0000   -7.1870 hc        1 1ND      0.088500
     31 H6A         4.5060    3.4940   -8.5330 hc        1 1ND      0.102000
     32 H7          3.3230    2.3110   -9.2140 hc        1 1ND      0.102000
     33 H7A         5.6510    1.3090   -8.7470 ha        1 1ND      0.151000
     34 H10         1.7930    1.0100   -4.1750 ha        1 1ND      0.139000
     35 H11         0.3130    0.2260   -2.5080 ha        1 1ND      0.142000
     36 H13         2.7880   -0.0210   -0.6130 ha        1 1ND      0.176000
     37 H14         5.2210   -1.9620   -0.8610 ha        1 1ND      0.238000
     38 H16         0.3880   -0.7130    2.0260 hn        1 1ND      0.209000
     39 H16A        1.2550    1.0840    3.0100 hx        1 1ND      0.105500
     40 H17         1.6360    1.6830    1.3260 hx        1 1ND      0.105500
     41 H17A        3.5300    0.8040    3.3860 hc        1 1ND      0.088500
     42 H18         3.9050    1.2940    1.6840 hc        1 1ND      0.088500
     43 H18A        3.9810   -1.4210    2.8200 hc        1 1ND      0.049500
     44 H19         4.2990   -0.9280    1.1130 hc        1 1ND      0.049500
     45 H19A        2.0300   -2.4210    1.2650 hx        1 1ND      0.164000
     46 C1          7.0120   -0.7200   -6.8030 c3        1 1ND      0.506000
@<TRIPOS>BOND
     1    1   21 1   
     2    2   46 1   
     3    3    4 1   
     4    3    6 1   
     5    4   14 1   
     6    4   46 1   
     7    5   46 1   
     8    6    7 1   
     9    6   15 1   
    10    7   10 1   
    11    7   14 1   
    12    7   26 1   
    13    8   46 1   
    14    9   21 1   
    15    9   22 1   
    16    9   25 1   
    17    9   38 1   
    18   10   11 1   
    19   10   27 1   
    20   10   28 1   
    21   11   12 1   
    22   11   29 1   
    23   11   30 1   
    24   12   13 1   
    25   12   31 1   
    26   12   32 1   
    27   13   14 1   
    28   13   33 1   
    29   15   16 1   
    30   15   20 1   
    31   16   17 1   
    32   16   34 1   
    33   17   18 1   
    34   17   35 1   
    35   18   21 1   
    36   18   36 1   
    37   19   20 1   
    38   19   37 1   
    39   22   23 1   
    40   22   39 1   
    41   22   40 1   
    42   23   24 1   
    43   23   41 1   
    44   23   42 1   
    45   24   25 1   
    46   24   43 1   
    47   24   44 1   
    48   25   45 1   
@<TRIPOS>SUBSTRUCTURE
     1 1ND         1 TEMP              0 ****  ****    0 ROOT
