@<TRIPOS>MOLECULE
1ND
   46    49     1     0     0
SMALL
bcc


@<TRIPOS>ATOM
      1 O           4.8250    0.5090    2.0950 o         1 1ND     -0.589100
      2 F1         -4.7390   -2.0320    1.7400 f         1 1ND     -0.230967
      3 N1         -2.1140   -1.0050    0.6020 nc        1 1ND     -0.449800
      4 C2         -3.3910   -0.6460    0.2750 cd        1 1ND      0.224600
      5 F2         -4.4620   -2.7450   -0.2910 f         1 1ND     -0.230967
      6 N2         -1.3310    0.0510    0.3390 na        1 1ND      0.179300
      7 C3         -2.0770    1.1310   -0.1760 cc        1 1ND     -0.091600
      8 F3         -5.7740   -1.0640    0.0990 f         1 1ND     -0.230967
      9 N3          5.1700   -0.6590    0.1550 n         1 1ND     -0.449800
     10 C4         -1.6200    2.4690   -0.6020 c3        1 1ND     -0.011100
     11 C5         -2.6830    3.1040   -1.4880 c3        1 1ND     -0.075400
     12 C6         -4.0730    2.9810   -0.8940 c3        1 1ND     -0.078400
     13 C7         -4.5150    1.5320   -0.7440 c3        1 1ND     -0.008100
     14 C8         -3.4190    0.7040   -0.2290 cd        1 1ND     -0.191600
     15 C9          0.0850    0.0200    0.5200 ca        1 1ND      0.031800
     16 C10         0.7670    1.1690    0.9680 ca        1 1ND     -0.134500
     17 C11         2.1490    1.1360    1.1270 ca        1 1ND     -0.082000
     18 C12         2.8690   -0.0310    0.8460 ca        1 1ND     -0.132600
     19 C13         2.1910   -1.1780    0.4280 ca        1 1ND     -0.082000
     20 C14         0.8080   -1.1630    0.2630 ca        1 1ND     -0.134500
     21 C15         4.3430   -0.0180    1.0710 c         1 1ND      0.661700
     22 C16         6.6160   -0.5000    0.2570 c3        1 1ND      0.076000
     23 C17         7.1940   -0.4700   -1.1660 c3        1 1ND     -0.094400
     24 C18         6.0190   -0.6830   -2.1140 c3        1 1ND     -0.094400
     25 C19         4.7770   -0.8820   -1.2270 c3        1 1ND      0.076000
     26 H4         -1.4590    3.1130    0.3060 hc        1 1ND      0.060200
     27 H4A        -0.6450    2.4080   -1.1540 hc        1 1ND      0.060200
     28 H5         -2.4320    4.1880   -1.6310 hc        1 1ND      0.050200
     29 H5A        -2.6660    2.6150   -2.4970 hc        1 1ND      0.050200
     30 H6         -4.0900    3.4790    0.1110 hc        1 1ND      0.048200
     31 H6A        -4.8060    3.5180   -1.5500 hc        1 1ND      0.048200
     32 H7         -5.4030    1.4730   -0.0570 hc        1 1ND      0.063700
     33 H7A        -4.8440    1.1280   -1.7410 hc        1 1ND      0.063700
     34 H10         0.2190    2.0920    1.2100 ha        1 1ND      0.158000
     35 H11         2.6830    2.0260    1.4990 ha        1 1ND      0.156500
     36 H13         2.7450   -2.1110    0.2370 ha        1 1ND      0.156500
     37 H14         0.2930   -2.0820   -0.0590 ha        1 1ND      0.158000
     38 H16         6.8730    0.4370    0.8240 h1        1 1ND      0.055700
     39 H16A        7.0240   -1.3750    0.8340 h1        1 1ND      0.055700
     40 H17         7.6940    0.5100   -1.3620 hc        1 1ND      0.053700
     41 H17A        7.9590   -1.2740   -1.2890 hc        1 1ND      0.053700
     42 H18         5.8790    0.2010   -2.7830 hc        1 1ND      0.053700
     43 H18A        6.1780   -1.5800   -2.7600 hc        1 1ND      0.053700
     44 H19         4.3990   -1.9380   -1.3230 h1        1 1ND      0.055700
     45 H19A        3.9480   -0.1890   -1.5320 h1        1 1ND      0.055700
     46 C1         -4.5570   -1.5950    0.4520 c3        1 1ND      0.632600
@<TRIPOS>BOND
     1    1   21 2   
     2    2   46 1   
     3    3    4 2   
     4    3    6 1   
     5    4   14 1   
     6    4   46 1   
     7    5   46 1   
     8    6    7 1   
     9    6   15 1   
    10    7   10 1   
    11    7   14 2   
    12    8   46 1   
    13    9   21 1   
    14    9   22 1   
    15    9   25 1   
    16   10   11 1   
    17   10   26 1   
    18   10   27 1   
    19   11   12 1   
    20   11   28 1   
    21   11   29 1   
    22   12   13 1   
    23   12   30 1   
    24   12   31 1   
    25   13   14 1   
    26   13   32 1   
    27   13   33 1   
    28   15   16 ar  
    29   15   20 ar  
    30   16   17 ar  
    31   16   34 1   
    32   17   18 ar  
    33   17   35 1   
    34   18   19 ar  
    35   18   21 1   
    36   19   20 ar  
    37   19   36 1   
    38   20   37 1   
    39   22   23 1   
    40   22   38 1   
    41   22   39 1   
    42   23   24 1   
    43   23   40 1   
    44   23   41 1   
    45   24   25 1   
    46   24   42 1   
    47   24   43 1   
    48   25   44 1   
    49   25   45 1   
@<TRIPOS>SUBSTRUCTURE
     1 1ND         1 TEMP              0 ****  ****    0 ROOT
