@<TRIPOS>MOLECULE
1ND
   46    49     1     0     0
SMALL
bcc


@<TRIPOS>ATOM
      1 O           3.5830    1.7560    1.1270 o         1 1ND     -0.268000
      2 F1          6.9680   -2.2980   -6.7530 f         1 1ND     -0.155667
      3 N1          5.2110   -0.4590   -5.1210 n2        1 1ND      0.059000
      4 C2          5.5740   -0.3430   -6.3920 c2        1 1ND     -0.166000
      5 F2          8.0000   -0.4300   -6.3380 f         1 1ND     -0.155667
      6 N2          3.9550    0.0330   -4.9370 n3        1 1ND     -0.147000
      7 C3          3.4110    0.5750   -6.2320 c3        1 1ND     -0.002000
      8 F3          7.0680   -0.7510   -8.2680 f         1 1ND     -0.155667
      9 N3          1.9830   -0.0500    1.1060 n4        1 1ND      0.146000
     10 C4          2.9080    2.0080   -6.3080 c3        1 1ND     -0.159000
     11 C5          2.5160    2.2860   -7.7500 c3        1 1ND     -0.157000
     12 C6          3.6340    2.0580   -8.7570 c3        1 1ND     -0.140000
     13 C7          4.6670    1.0740   -8.3480 c2        1 1ND     -0.085000
     14 C8          4.5950    0.4250   -7.1860 c2        1 1ND     -0.137000
     15 C9          3.6540    0.7340   -3.7540 c2        1 1ND      0.003000
     16 C10         2.2220    0.6890   -3.2090 c3        1 1ND     -0.172000
     17 C11         2.1960    0.4070   -1.7730 c1        1 1ND     -0.026000
     18 C12         3.4100    0.4840   -0.9320 c3        1 1ND     -0.185000
     19 C13         4.4050    1.4540   -1.5420 c2        1 1ND     -0.106000
     20 C14         4.4670    1.2920   -2.8490 c1        1 1ND     -0.186000
     21 C15         3.0360    0.8590    0.4890 c2        1 1ND      0.206000
     22 C16         1.4240    0.5120    2.3900 c3        1 1ND     -0.101000
     23 C17         1.9130   -0.3850    3.5380 c3        1 1ND     -0.165000
     24 C18         2.6410   -1.5600    2.8720 c3        1 1ND     -0.024000
     25 C19         2.5170   -1.3180    1.4230 c2        1 1ND     -0.715000
     26 H4          2.5790   -0.1310   -6.5210 h1        1 1ND      0.127000
     27 H4A         2.0200    2.1440   -5.6390 hc        1 1ND      0.096500
     28 H5          3.7030    2.7230   -5.9740 hc        1 1ND      0.096500
     29 H5A         1.6440    1.6310   -8.0170 hc        1 1ND      0.089000
     30 H6          2.1680    3.3490   -7.8290 hc        1 1ND      0.089000
     31 H6A         3.1840    1.7370   -9.7360 hc        1 1ND      0.102500
     32 H7          4.1650    3.0330   -8.9470 hc        1 1ND      0.102500
     33 H7A         5.5160    0.9410   -9.0390 ha        1 1ND      0.152000
     34 H10         1.6850    1.6680   -3.3630 hc        1 1ND      0.161000
     35 H11         1.6250   -0.1040   -3.7400 hc        1 1ND      0.161000
     36 H13         3.8380   -0.5710   -0.8920 hc        1 1ND      0.210000
     37 H14         4.8690    2.2230   -0.9180 ha        1 1ND      0.186000
     38 H16         1.2600   -0.1210    0.3800 hn        1 1ND      0.231000
     39 H16A        0.3050    0.4910    2.3110 hx        1 1ND      0.113000
     40 H17         1.7690    1.5720    2.5220 hx        1 1ND      0.113000
     41 H17A        1.0430   -0.7360    4.1430 hc        1 1ND      0.090000
     42 H18         2.5990    0.1880    4.2070 hc        1 1ND      0.090000
     43 H18A        3.7090   -1.6030    3.2130 hc        1 1ND      0.060500
     44 H19         2.1650   -2.5350    3.1490 hc        1 1ND      0.060500
     45 H19A        2.8720   -1.9720    0.6390 hx        1 1ND      0.157000
     46 C1          6.8700   -0.9410   -6.9230 c3        1 1ND      0.505000
@<TRIPOS>BOND
     1    1   21 1   
     2    2   46 1   
     3    3    4 1   
     4    3    6 1   
     5    4   14 1   
     6    4   46 1   
     7    5   46 1   
     8    6    7 1   
     9    6   15 1   
    10    7   10 1   
    11    7   14 1   
    12    7   26 1   
    13    8   46 1   
    14    9   21 1   
    15    9   22 1   
    16    9   25 1   
    17    9   38 1   
    18   10   11 1   
    19   10   27 1   
    20   10   28 1   
    21   11   12 1   
    22   11   29 1   
    23   11   30 1   
    24   12   13 1   
    25   12   31 1   
    26   12   32 1   
    27   13   14 1   
    28   13   33 1   
    29   15   16 1   
    30   15   20 1   
    31   16   17 1   
    32   16   34 1   
    33   16   35 1   
    34   17   18 1   
    35   18   19 1   
    36   18   21 1   
    37   18   36 1   
    38   19   20 1   
    39   19   37 1   
    40   22   23 1   
    41   22   39 1   
    42   22   40 1   
    43   23   24 1   
    44   23   41 1   
    45   23   42 1   
    46   24   25 1   
    47   24   43 1   
    48   24   44 1   
    49   25   45 1   
@<TRIPOS>SUBSTRUCTURE
     1 1ND         1 TEMP              0 ****  ****    0 ROOT
