@<TRIPOS>MOLECULE
1ND
   46    45     1     0     0
SMALL
bcc


@<TRIPOS>ATOM
      1 O          -2.6410   -0.2450    3.5340 o         1 1ND     -0.352000
      2 C1          3.4170    0.6260   -3.9880 c3        1 1ND      0.513000
      3 F1          2.9650    1.6670   -4.6090 f         1 1ND     -0.160333
      4 N1          1.8980    0.3360   -2.2340 n2        1 1ND     -0.020000
      5 C2          2.2380   -0.2080   -3.4670 c2        1 1ND     -0.198000
      6 F2          4.1750   -0.1400   -4.8580 f         1 1ND     -0.160333
      7 N2          0.7420   -0.3380   -1.7550 n3        1 1ND     -0.061000
      8 C3          0.3960   -1.2470   -2.6540 c1        1 1ND     -0.058000
      9 F3          4.1850    1.0210   -2.9490 f         1 1ND     -0.160333
     10 N3         -1.1910    1.2510    4.3420 n         1 1ND     -0.308000
     11 C4         -0.7730   -2.3580   -2.7450 c2        1 1ND     -0.098000
     12 C5         -0.7090   -3.2600   -3.8450 c3        1 1ND     -0.154000
     13 C6         -0.2160   -2.7280   -5.1050 c3        1 1ND     -0.157000
     14 C7          1.0490   -2.0520   -5.0680 c3        1 1ND     -0.094000
     15 C8          1.3490   -1.1730   -3.7560 c2        1 1ND     -0.120000
     16 C9          0.1550   -0.1590   -0.5230 c1        1 1ND      0.076000
     17 C10        -0.8940    0.7310   -0.3810 c1        1 1ND     -0.110500
     18 C11        -1.4440    0.9590    0.8600 c1        1 1ND     -0.110500
     19 C12        -0.9480    0.3000    1.9670 c1        1 1ND     -0.111000
     20 C13         0.0960   -0.5870    1.8280 c1        1 1ND     -0.090000
     21 C14         0.6500   -0.8160    0.5750 c1        1 1ND     -0.121000
     22 C15        -1.6940    0.4140    3.3290 c2        1 1ND      0.335000
     23 C16        -1.6680    1.3890    5.5400 c3        1 1ND     -0.039500
     24 C17        -1.2460    2.8370    5.9930 c3        1 1ND     -0.172500
     25 C18        -0.2390    3.3050    4.9710 c3        1 1ND     -0.172500
     26 C19         0.0690    2.2030    4.2530 c3        1 1ND     -0.039500
     27 H4         -0.7510   -2.8800   -1.9340 ha        1 1ND      0.101000
     28 H4A        -1.6200   -1.9010   -2.7830 ha        1 1ND      0.101000
     29 H5         -1.6370   -3.6240   -4.0040 hc        1 1ND      0.090500
     30 H5A        -0.1440   -3.9920   -3.5930 hc        1 1ND      0.090500
     31 H6         -0.8760   -2.0750   -5.4110 hc        1 1ND      0.087500
     32 H6A        -0.1050   -3.5360   -5.7520 hc        1 1ND      0.087500
     33 H7          1.7170   -2.7170   -5.1100 hc        1 1ND      0.102500
     34 H7A         1.0650   -1.4250   -5.8490 hc        1 1ND      0.102500
     35 H10        -1.2490    1.2010   -1.1680 ha        1 1ND      0.154500
     36 H11        -2.1710    1.5770    0.9540 ha        1 1ND      0.154500
     37 H13         0.4480   -1.0560    2.6130 ha        1 1ND      0.153000
     38 H14         1.4020   -1.4530    0.4750 ha        1 1ND      0.164000
     39 H16        -2.6330    1.3120    5.5280 h1        1 1ND      0.095500
     40 H16A       -1.2910    0.7370    6.1220 h1        1 1ND      0.095500
     41 H17        -2.0420    3.4440    5.9940 hc        1 1ND      0.093250
     42 H17A       -0.8400    2.8080    6.8850 hc        1 1ND      0.093250
     43 H18         0.5550    3.6530    5.4140 hc        1 1ND      0.093250
     44 H18A       -0.6470    4.0070    4.3780 hc        1 1ND      0.093250
     45 H19         0.2350    2.4400    3.3490 h1        1 1ND      0.095500
     46 H19A        0.8660    1.7520    4.6400 h1        1 1ND      0.095500
@<TRIPOS>BOND
     1    1   22 1   
     2    2    3 1   
     3    2    5 1   
     4    2    6 1   
     5    2    9 1   
     6    4    5 1   
     7    4    7 1   
     8    5   15 1   
     9    7    8 1   
    10    7   16 1   
    11    8   15 1   
    12   10   22 1   
    13   10   23 1   
    14   10   26 1   
    15   11   12 1   
    16   11   27 1   
    17   11   28 1   
    18   12   13 1   
    19   12   29 1   
    20   12   30 1   
    21   13   14 1   
    22   13   31 1   
    23   13   32 1   
    24   14   15 1   
    25   14   33 1   
    26   14   34 1   
    27   16   21 1   
    28   17   18 1   
    29   17   35 1   
    30   18   36 1   
    31   19   20 1   
    32   19   22 1   
    33   20   37 1   
    34   21   38 1   
    35   23   24 1   
    36   23   39 1   
    37   23   40 1   
    38   24   25 1   
    39   24   41 1   
    40   24   42 1   
    41   25   26 1   
    42   25   43 1   
    43   25   44 1   
    44   26   45 1   
    45   26   46 1   
@<TRIPOS>SUBSTRUCTURE
     1 1ND         1 TEMP              0 ****  ****    0 ROOT
