@<TRIPOS>MOLECULE
1NE
   43    45     1     0     0
SMALL
bcc


@<TRIPOS>ATOM
      1 C1          0.3670   -0.9290   -0.7290 c3        1 1NE      0.083100
      2 N2          1.4800   -0.5290    0.1690 n4        1 1NE     -0.593200
      3 C3          0.9940   -0.2970    1.5520 c3        1 1NE      0.083100
      4 C4          2.1620    0.7390   -0.3600 c         1 1NE      0.579700
      5 O5          1.4080    1.6580   -0.6450 o         1 1NE     -0.425100
      6 C6          3.6130    0.6810   -0.4890 ca        1 1NE     -0.233600
      7 C7          4.2020    1.4800   -1.4850 ca        1 1NE     -0.047500
      8 C8          5.5770    1.4790   -1.6700 ca        1 1NE     -0.146000
      9 C9          6.4100    0.6920   -0.8420 ca        1 1NE      0.130800
     10 C10         5.8090   -0.0960    0.1770 ca        1 1NE     -0.146000
     11 C11         4.4350   -0.0970    0.3440 ca        1 1NE     -0.047500
     12 N12         7.8080    0.6690   -1.0250 na        1 1NE      0.137300
     13 N13         8.5510   -0.4020   -0.6530 nc        1 1NE     -0.458800
     14 C14         9.8440   -0.1050   -0.9270 cd        1 1NE      0.265600
     15 C15         9.9520    1.2270   -1.4900 cd        1 1NE     -0.169600
     16 C16        11.1220    2.0090   -1.9080 c3        1 1NE     -0.018100
     17 C17        10.6960    3.2500   -2.6770 c3        1 1NE     -0.081400
     18 C18         9.5000    3.9370   -2.0470 c3        1 1NE     -0.077400
     19 C19         8.2630    3.0480   -2.0330 c3        1 1NE     -0.018100
     20 C20         8.6330    1.7040   -1.5430 cc        1 1NE     -0.074600
     21 C21        10.9700   -1.0910   -0.6560 c3        1 1NE      0.630600
     22 F22        10.8350   -2.2790   -1.3280 f         1 1NE     -0.219633
     23 F23        12.2110   -0.6280   -1.0060 f         1 1NE     -0.219633
     24 F24        11.0850   -1.4430    0.6640 f         1 1NE     -0.219633
     25 H11C       -0.1410   -1.8400   -0.3140 hx        1 1NE      0.108200
     26 H12C        0.7800   -1.1550   -1.7480 hx        1 1NE      0.108200
     27 H13C       -0.3720   -0.0850   -0.8050 hx        1 1NE      0.108200
     28 H31C        0.2710    0.5630    1.5510 hx        1 1NE      0.108200
     29 H32C        1.8680   -0.0540    2.2140 hx        1 1NE      0.108200
     30 H33C        0.4780   -1.2200    1.9310 hx        1 1NE      0.108200
     31 H7          3.5640    2.1080   -2.1310 ha        1 1NE      0.152000
     32 H11         4.0150   -0.6930    1.1690 ha        1 1NE      0.152000
     33 H8          6.0030    2.0910   -2.4830 ha        1 1NE      0.183500
     34 H10         6.4310   -0.7150    0.8490 ha        1 1NE      0.183500
     35 H161       11.8020    1.3780   -2.5430 hc        1 1NE      0.076200
     36 H162       11.7090    2.3040   -0.9940 hc        1 1NE      0.076200
     37 H171       11.5570    3.9670   -2.7150 hc        1 1NE      0.058700
     38 H172       10.4470    2.9660   -3.7330 hc        1 1NE      0.058700
     39 H181        9.7530    4.2380   -0.9970 hc        1 1NE      0.059200
     40 H182        9.2610    4.8720   -2.6200 hc        1 1NE      0.059200
     41 H191        7.4720    3.5130   -1.3870 hc        1 1NE      0.060700
     42 H192        7.8550    2.9630   -3.0780 hc        1 1NE      0.060700
     43 H21         2.1750   -1.2870    0.1820 hn        1 1NE      0.454800
@<TRIPOS>BOND
     1    1    2 1   
     2    1   25 1   
     3    1   26 1   
     4    1   27 1   
     5    2    3 1   
     6    2    4 1   
     7    2   43 1   
     8    3   28 1   
     9    3   29 1   
    10    3   30 1   
    11    4    5 2   
    12    4    6 1   
    13    6    7 ar  
    14    6   11 ar  
    15    7    8 ar  
    16    7   31 1   
    17    8    9 ar  
    18    8   33 1   
    19    9   10 ar  
    20    9   12 1   
    21   10   11 ar  
    22   10   34 1   
    23   11   32 1   
    24   12   13 1   
    25   12   20 1   
    26   13   14 2   
    27   14   15 1   
    28   14   21 1   
    29   15   16 1   
    30   15   20 2   
    31   16   17 1   
    32   16   35 1   
    33   16   36 1   
    34   17   18 1   
    35   17   37 1   
    36   17   38 1   
    37   18   19 1   
    38   18   39 1   
    39   18   40 1   
    40   19   20 1   
    41   19   41 1   
    42   19   42 1   
    43   21   22 1   
    44   21   23 1   
    45   21   24 1   
@<TRIPOS>SUBSTRUCTURE
     1 1NE         1 TEMP              0 ****  ****    0 ROOT
