@<TRIPOS>MOLECULE
1NE
   42    44     1     0     0
SMALL
bcc


@<TRIPOS>ATOM
      1 C1          7.1510   -0.5270   -0.5220 c3        1 1NE      0.079300
      2 N2          5.7240   -0.3980   -0.6370 n         1 1NE     -0.477800
      3 C3          5.1850   -0.4250   -1.9640 c3        1 1NE      0.079300
      4 C4          4.9440   -0.2250    0.4960 c         1 1NE      0.672700
      5 O5          5.4760   -0.1100    1.6190 o         1 1NE     -0.595100
      6 C6          3.4580   -0.1720    0.3600 ca        1 1NE     -0.129600
      7 C7          2.7710    0.8810    0.9720 ca        1 1NE     -0.084000
      8 C8          1.3820    0.9430    0.9180 ca        1 1NE     -0.132500
      9 C9          0.6600   -0.0620    0.2430 ca        1 1NE      0.030800
     10 C10         1.3530   -1.1370   -0.3520 ca        1 1NE     -0.132500
     11 C11         2.7430   -1.1820   -0.2880 ca        1 1NE     -0.084000
     12 N12        -0.7640    0.0030    0.1720 na        1 1NE      0.178300
     13 N13        -1.5380   -1.0920    0.2140 nc        1 1NE     -0.449800
     14 C14        -2.8300   -0.6730    0.0750 cd        1 1NE      0.224600
     15 C15        -2.8800    0.7600   -0.0710 cd        1 1NE     -0.191600
     16 C16        -4.0000    1.6820   -0.2860 c3        1 1NE     -0.008100
     17 C17        -3.5560    3.1260   -0.0970 c3        1 1NE     -0.078400
     18 C18        -2.2090    3.4060   -0.7340 c3        1 1NE     -0.075400
     19 C19        -1.0940    2.5770   -0.1100 c3        1 1NE     -0.011100
     20 C20        -1.5330    1.1710   -0.0040 cc        1 1NE     -0.091600
     21 C21        -3.9900   -1.6450    0.0870 c3        1 1NE      0.632600
     22 F22        -4.0890   -2.3930    1.2330 f         1 1NE     -0.230967
     23 F23        -5.2230   -1.0520   -0.0380 f         1 1NE     -0.230967
     24 F24        -3.9560   -2.5720   -0.9260 f         1 1NE     -0.230967
     25 H11C        7.6570    0.3700   -0.9710 h1        1 1NE      0.044867
     26 H12C        7.4510   -0.6120    0.5570 h1        1 1NE      0.044867
     27 H13C        7.4910   -1.4460   -1.0730 h1        1 1NE      0.044867
     28 H31C        5.8830    0.1090   -2.6650 h1        1 1NE      0.044867
     29 H32C        5.0700   -1.4860   -2.3190 h1        1 1NE      0.044867
     30 H33C        4.1840    0.0800   -2.0040 h1        1 1NE      0.044867
     31 H7          3.3360    1.6540    1.5180 ha        1 1NE      0.154000
     32 H11         3.2770   -2.0280   -0.7500 ha        1 1NE      0.154000
     33 H8          0.8600    1.7720    1.4210 ha        1 1NE      0.158000
     34 H10         0.8090   -1.9490   -0.8600 ha        1 1NE      0.158000
     35 H161       -4.3990    1.5380   -1.3280 hc        1 1NE      0.063700
     36 H162       -4.8400    1.4450    0.4220 hc        1 1NE      0.063700
     37 H171       -4.3270    3.8050   -0.5470 hc        1 1NE      0.048200
     38 H172       -3.5010    3.3560    0.9990 hc        1 1NE      0.048200
     39 H181       -2.2640    3.1860   -1.8330 hc        1 1NE      0.050200
     40 H182       -1.9570    4.4920   -0.6170 hc        1 1NE      0.050200
     41 H191       -0.1590    2.6630   -0.7250 hc        1 1NE      0.060200
     42 H192       -0.8660    2.9740    0.9180 hc        1 1NE      0.060200
@<TRIPOS>BOND
     1    1    2 1   
     2    1   25 1   
     3    1   26 1   
     4    1   27 1   
     5    2    3 1   
     6    2    4 1   
     7    3   28 1   
     8    3   29 1   
     9    3   30 1   
    10    4    5 2   
    11    4    6 1   
    12    6    7 ar  
    13    6   11 ar  
    14    7    8 ar  
    15    7   31 1   
    16    8    9 ar  
    17    8   33 1   
    18    9   10 ar  
    19    9   12 1   
    20   10   11 ar  
    21   10   34 1   
    22   11   32 1   
    23   12   13 1   
    24   12   20 1   
    25   13   14 2   
    26   14   15 1   
    27   14   21 1   
    28   15   16 1   
    29   15   20 2   
    30   16   17 1   
    31   16   35 1   
    32   16   36 1   
    33   17   18 1   
    34   17   37 1   
    35   17   38 1   
    36   18   19 1   
    37   18   39 1   
    38   18   40 1   
    39   19   20 1   
    40   19   41 1   
    41   19   42 1   
    42   21   22 1   
    43   21   23 1   
    44   21   24 1   
@<TRIPOS>SUBSTRUCTURE
     1 1NE         1 TEMP              0 ****  ****    0 ROOT
