@<TRIPOS>MOLECULE
1NE
   43    45     1     0     0
SMALL
bcc


@<TRIPOS>ATOM
      1 C1          0.3780   -0.9640   -0.7300 c3        1 1NE      0.083100
      2 N2          1.4890   -0.5610    0.1680 nx        1 1NE     -0.593200
      3 C3          1.0040   -0.3370    1.5530 c3        1 1NE      0.083100
      4 C4          2.1640    0.7130   -0.3570 c         1 1NE      0.579700
      5 O5          1.4040    1.6290   -0.6380 o         1 1NE     -0.425100
      6 C6          3.6150    0.6630   -0.4880 ca        1 1NE     -0.233600
      7 C7          4.1980    1.4700   -1.4810 ca        1 1NE     -0.047500
      8 C8          5.5740    1.4780   -1.6680 ca        1 1NE     -0.146000
      9 C9          6.4110    0.6910   -0.8450 ca        1 1NE      0.130800
     10 C10         5.8160   -0.1040    0.1720 ca        1 1NE     -0.146000
     11 C11         4.4420   -0.1140    0.3400 ca        1 1NE     -0.047500
     12 N12         7.8090    0.6770   -1.0290 na        1 1NE      0.137300
     13 N13         8.5580   -0.3920   -0.6630 nc        1 1NE     -0.458800
     14 C14         9.8500   -0.0870   -0.9380 cd        1 1NE      0.265600
     15 C15         9.9490    1.2490   -1.4940 cd        1 1NE     -0.169600
     16 C16        11.1150    2.0390   -1.9090 c3        1 1NE     -0.018100
     17 C17        10.6810    3.2820   -2.6710 c3        1 1NE     -0.081400
     18 C18         9.4820    3.9590   -2.0370 c3        1 1NE     -0.077400
     19 C19         8.2500    3.0630   -2.0250 c3        1 1NE     -0.018100
     20 C20         8.6280    1.7190   -1.5420 cc        1 1NE     -0.074600
     21 C21        10.9820   -1.0680   -0.6720 c3        1 1NE      0.630600
     22 F22        10.8520   -2.2530   -1.3510 f         1 1NE     -0.219633
     23 F23        12.2200   -0.5960   -1.0220 f         1 1NE     -0.219633
     24 F24        11.1000   -1.4260    0.6460 f         1 1NE     -0.219633
     25 H11C       -0.1250   -1.8790   -0.3180 hx        1 1NE      0.108200
     26 H12C        0.7910   -1.1840   -1.7510 hx        1 1NE      0.108200
     27 H13C       -0.3660   -0.1230   -0.8020 hx        1 1NE      0.108200
     28 H31C        0.2760    0.5200    1.5550 hx        1 1NE      0.108200
     29 H32C        1.8770   -0.0910    2.2150 hx        1 1NE      0.108200
     30 H33C        0.4930   -1.2640    1.9290 hx        1 1NE      0.108200
     31 H7          3.5560    2.0970   -2.1240 ha        1 1NE      0.152000
     32 H11         4.0260   -0.7160    1.1640 ha        1 1NE      0.152000
     33 H8          5.9950    2.0960   -2.4780 ha        1 1NE      0.183500
     34 H10         6.4420   -0.7230    0.8410 ha        1 1NE      0.183500
     35 H161       11.7010    2.3330   -0.9950 hc        1 1NE      0.076200
     36 H162       11.7980    1.4150   -2.5480 hc        1 1NE      0.076200
     37 H171       11.5380    4.0040   -2.7070 hc        1 1NE      0.058700
     38 H172       10.4330    3.0020   -3.7290 hc        1 1NE      0.058700
     39 H181        9.2370    4.8950   -2.6040 hc        1 1NE      0.059200
     40 H182        9.7350    4.2560   -0.9850 hc        1 1NE      0.059200
     41 H191        7.4570    3.5200   -1.3760 hc        1 1NE      0.060700
     42 H192        7.8420    2.9810   -3.0710 hc        1 1NE      0.060700
     43 H21         2.1880   -1.3150    0.1770 hn        1 1NE      0.454800
@<TRIPOS>BOND
     1    1    2 1   
     2    1   25 1   
     3    1   26 1   
     4    1   27 1   
     5    2    3 1   
     6    2    4 1   
     7    2   43 1   
     8    3   28 1   
     9    3   29 1   
    10    3   30 1   
    11    4    5 2   
    12    4    6 1   
    13    6    7 ar  
    14    6   11 ar  
    15    7    8 ar  
    16    7   31 1   
    17    8    9 ar  
    18    8   33 1   
    19    9   10 ar  
    20    9   12 1   
    21   10   11 ar  
    22   10   34 1   
    23   11   32 1   
    24   12   13 1   
    25   12   20 1   
    26   13   14 2   
    27   14   15 1   
    28   14   21 1   
    29   15   16 1   
    30   15   20 2   
    31   16   17 1   
    32   16   35 1   
    33   16   36 1   
    34   17   18 1   
    35   17   37 1   
    36   17   38 1   
    37   18   19 1   
    38   18   39 1   
    39   18   40 1   
    40   19   20 1   
    41   19   41 1   
    42   19   42 1   
    43   21   22 1   
    44   21   23 1   
    45   21   24 1   
@<TRIPOS>SUBSTRUCTURE
     1 1NE         1 TEMP              0 ****  ****    0 ROOT
