@<TRIPOS>MOLECULE
1NE
   42    39     1     0     0
SMALL
bcc


@<TRIPOS>ATOM
      1 C1         -5.1890   -1.5420   -0.1190 c3        1 1NE     -0.076000
      2 N2         -5.1480   -0.1370   -0.2070 n         1 1NE     -0.336000
      3 C3         -5.8940    0.5220   -1.1880 c3        1 1NE     -0.076000
      4 C4         -4.3850    0.6260    0.7600 c2        1 1NE      0.345000
      5 O5         -4.9650    1.2800    1.6230 o         1 1NE     -0.355000
      6 C6         -2.8600    0.5900    0.7280 c2        1 1NE     -0.104000
      7 C7         -2.1610    1.5810    0.0630 c2        1 1NE     -0.078000
      8 C8         -0.7770    1.5950    0.1020 c1        1 1NE     -0.135000
      9 C9         -0.0930    0.6170    0.8090 c1        1 1NE      0.071000
     10 C10        -0.7900   -0.3690    1.4700 c1        1 1NE     -0.116000
     11 C11        -2.1760   -0.3850    1.4320 c1        1 1NE     -0.097000
     12 N12         1.2850    0.6150    0.8280 n2        1 1NE     -0.065000
     13 N13         2.1140    1.2930    1.7790 n2        1 1NE     -0.014000
     14 C14         3.4470    1.0310    1.4590 c1        1 1NE     -0.201000
     15 C15         3.4650    0.2230    0.3540 c1        1 1NE     -0.119000
     16 C16         4.6230   -0.4940   -0.4800 c2        1 1NE     -0.094000
     17 C17         4.2120   -1.4830   -1.4200 c3        1 1NE     -0.156000
     18 C18         2.9910   -1.2190   -2.1650 c3        1 1NE     -0.153000
     19 C19         1.8280   -0.8910   -1.3930 c3        1 1NE     -0.097000
     20 C20         2.0850   -0.0330   -0.0360 c2        1 1NE     -0.060000
     21 C21         4.7410    1.6210    2.2170 c2        1 1NE      0.514000
     22 F22         5.4460    0.5790    2.8040 f         1 1NE     -0.160333
     23 F23         5.5340    2.2570    1.3240 f         1 1NE     -0.160333
     24 F24         4.3550    2.4860    3.1630 f         1 1NE     -0.160333
     25 H11C       -5.6110   -1.9210   -0.9540 h1        1 1NE      0.084000
     26 H12C       -4.2710   -1.8920   -0.0260 h1        1 1NE      0.084000
     27 H13C       -5.7260   -1.8080    0.6730 h1        1 1NE      0.084000
     28 H31C       -6.7370    0.8270   -0.8050 h1        1 1NE      0.084000
     29 H32C       -6.0790   -0.1110   -1.9490 h1        1 1NE      0.084000
     30 H33C       -5.3860    1.2970   -1.5210 h1        1 1NE      0.084000
     31 H7         -2.6560    2.2920   -0.4490 ha        1 1NE      0.160000
     32 H11        -2.6560   -1.0660    1.8890 ha        1 1NE      0.149000
     33 H8         -0.2740    2.3070   -0.3740 ha        1 1NE      0.153000
     34 H10        -0.3290   -1.0270    1.9450 ha        1 1NE      0.162000
     35 H161        5.1220    0.2040   -0.9700 ha        1 1NE      0.103000
     36 H162        5.2300   -0.9100    0.1490 ha        1 1NE      0.103000
     37 H171        4.0870   -2.3260   -0.9290 hc        1 1NE      0.087500
     38 H172        4.9720   -1.6170   -2.0980 hc        1 1NE      0.087500
     39 H181        3.1780   -0.4370   -2.7520 hc        1 1NE      0.089000
     40 H182        2.7770   -2.0450   -2.6690 hc        1 1NE      0.089000
     41 H191        1.2640   -0.3640   -1.9510 hc        1 1NE      0.098500
     42 H192        1.4080   -1.7670   -1.1150 hc        1 1NE      0.098500
@<TRIPOS>BOND
     1    1    2 1   
     2    1   25 1   
     3    1   26 1   
     4    1   27 1   
     5    2    3 1   
     6    2    4 1   
     7    3   28 1   
     8    3   29 1   
     9    3   30 1   
    10    4    5 1   
    11    4    6 1   
    12    6    7 1   
    13    6   11 1   
    14    7    8 1   
    15    7   31 1   
    16    8   33 1   
    17    9   10 1   
    18   10   34 1   
    19   11   32 1   
    20   12   13 1   
    21   12   20 1   
    22   13   14 1   
    23   14   15 1   
    24   15   20 1   
    25   16   17 1   
    26   16   35 1   
    27   16   36 1   
    28   17   18 1   
    29   17   37 1   
    30   17   38 1   
    31   18   19 1   
    32   18   39 1   
    33   18   40 1   
    34   19   20 1   
    35   19   41 1   
    36   19   42 1   
    37   21   22 1   
    38   21   23 1   
    39   21   24 1   
@<TRIPOS>SUBSTRUCTURE
     1 1NE         1 TEMP              0 ****  ****    0 ROOT
