@<TRIPOS>MOLECULE
1NE
   43    45     1     0     0
SMALL
bcc


@<TRIPOS>ATOM
      1 C1          0.3740   -0.9510   -0.7170 c3        1 1NE      0.083100
      2 N2          1.4890   -0.5520    0.1800 n4        1 1NE     -0.593200
      3 C3          1.0080   -0.3300    1.5660 c3        1 1NE      0.083100
      4 C4          2.1650    0.7210   -0.3450 c         1 1NE      0.579700
      5 O5          1.4060    1.6390   -0.6220 o         1 1NE     -0.425100
      6 C6          3.6160    0.6690   -0.4800 ca        1 1NE     -0.233600
      7 C7          4.1980    1.4750   -1.4740 ca        1 1NE     -0.047500
      8 C8          5.5730    1.4810   -1.6640 ca        1 1NE     -0.146000
      9 C9          6.4110    0.6910   -0.8450 ca        1 1NE      0.130800
     10 C10         5.8170   -0.1050    0.1720 ca        1 1NE     -0.146000
     11 C11         4.4430   -0.1110    0.3440 ca        1 1NE     -0.047500
     12 N12         7.8080    0.6740   -1.0330 na        1 1NE      0.137300
     13 N13         8.5560   -0.3970   -0.6720 nc        1 1NE     -0.458800
     14 C14         9.8470   -0.0940   -0.9490 cd        1 1NE      0.265600
     15 C15         9.9480    1.2420   -1.5040 cd        1 1NE     -0.169600
     16 C16        11.1140    2.0300   -1.9210 c3        1 1NE     -0.018100
     17 C17        10.6810    3.2750   -2.6810 c3        1 1NE     -0.081400
     18 C18         9.4860    3.9540   -2.0420 c3        1 1NE     -0.077400
     19 C19         8.2510    3.0610   -2.0280 c3        1 1NE     -0.018100
     20 C20         8.6280    1.7150   -1.5480 cc        1 1NE     -0.074600
     21 C21        10.9780   -1.0780   -0.6890 c3        1 1NE      0.630600
     22 F22        10.8440   -2.2620   -1.3680 f         1 1NE     -0.219633
     23 F23        12.2160   -0.6080   -1.0410 f         1 1NE     -0.219633
     24 F24        11.0990   -1.4380    0.6290 f         1 1NE     -0.219633
     25 H11C       -0.1290   -1.8650   -0.3040 hx        1 1NE      0.108200
     26 H12C        0.7840   -1.1700   -1.7390 hx        1 1NE      0.108200
     27 H13C       -0.3680   -0.1090   -0.7840 hx        1 1NE      0.108200
     28 H31C        0.2820    0.5290    1.5720 hx        1 1NE      0.108200
     29 H32C        0.4970   -1.2560    1.9420 hx        1 1NE      0.108200
     30 H33C        1.8840   -0.0870    2.2260 hx        1 1NE      0.108200
     31 H7          3.5550    2.1050   -2.1140 ha        1 1NE      0.152000
     32 H11         4.0290   -0.7140    1.1680 ha        1 1NE      0.152000
     33 H8          5.9930    2.0990   -2.4750 ha        1 1NE      0.183500
     34 H10         6.4440   -0.7250    0.8380 ha        1 1NE      0.183500
     35 H161       11.7040    2.3210   -1.0080 hc        1 1NE      0.076200
     36 H162       11.7940    1.4060   -2.5630 hc        1 1NE      0.076200
     37 H171       11.5400    3.9950   -2.7170 hc        1 1NE      0.058700
     38 H172       10.4290    2.9970   -3.7380 hc        1 1NE      0.058700
     39 H181        9.7420    4.2490   -0.9900 hc        1 1NE      0.059200
     40 H182        9.2410    4.8910   -2.6070 hc        1 1NE      0.059200
     41 H191        7.8400    2.9810   -3.0720 hc        1 1NE      0.060700
     42 H192        7.4610    3.5190   -1.3760 hc        1 1NE      0.060700
     43 H21         2.1860   -1.3080    0.1860 hn        1 1NE      0.454800
@<TRIPOS>BOND
     1    1    2 1   
     2    1   25 1   
     3    1   26 1   
     4    1   27 1   
     5    2    3 1   
     6    2    4 1   
     7    2   43 1   
     8    3   28 1   
     9    3   29 1   
    10    3   30 1   
    11    4    5 2   
    12    4    6 1   
    13    6    7 ar  
    14    6   11 ar  
    15    7    8 ar  
    16    7   31 1   
    17    8    9 ar  
    18    8   33 1   
    19    9   10 ar  
    20    9   12 1   
    21   10   11 ar  
    22   10   34 1   
    23   11   32 1   
    24   12   13 1   
    25   12   20 1   
    26   13   14 2   
    27   14   15 1   
    28   14   21 1   
    29   15   16 1   
    30   15   20 2   
    31   16   17 1   
    32   16   35 1   
    33   16   36 1   
    34   17   18 1   
    35   17   37 1   
    36   17   38 1   
    37   18   19 1   
    38   18   39 1   
    39   18   40 1   
    40   19   20 1   
    41   19   41 1   
    42   19   42 1   
    43   21   22 1   
    44   21   23 1   
    45   21   24 1   
@<TRIPOS>SUBSTRUCTURE
     1 1NE         1 TEMP              0 ****  ****    0 ROOT
