@<TRIPOS>MOLECULE
1NF
   46    43     1     0     0
SMALL
bcc


@<TRIPOS>ATOM
      1 C1          0.9160   -0.6840   -0.5070 c2        1 1NF      0.196000
      2 F1          0.4910   -0.5670   -1.7800 f         1 1NF     -0.088000
      3 N1         -3.4880   -2.2620    1.3790 n3        1 1NF     -0.199000
      4 C2          2.3110   -0.3540   -0.2640 c2        1 1NF     -0.237000
      5 N2          4.1620   -0.0720    1.2880 na        1 1NF     -0.080000
      6 C3          2.8170   -0.4410    1.0010 c2        1 1NF      0.084000
      7 N3          4.8960   -0.7160    2.2070 n2        1 1NF     -0.008000
      8 C4          1.9620   -0.9410    2.1300 c3        1 1NF     -0.189000
      9 C5          0.5780   -1.2480    1.8190 c1        1 1NF     -0.103000
     10 C6          0.0820   -1.0940    0.5130 c2        1 1NF     -0.281000
     11 C7         -2.9890   -1.8430    0.2550 c1        1 1NF     -0.233000
     12 C8         -2.6960   -2.3300    2.5820 c3        1 1NF     -0.122000
     13 C9         -6.3200   -3.0770    1.2480 c1        1 1NF     -0.186000
     14 C10        -6.7150   -2.9360   -0.0410 c2        1 1NF     -0.342000
     15 C11        -7.9650   -3.2220   -0.5220 c1        1 1NF      0.374000
     16 C12         6.1280   -0.1370    2.1970 c2        1 1NF     -0.205000
     17 C13         6.1870    0.9300    1.2280 c2        1 1NF     -0.174000
     18 C14         9.3510    2.7470    0.9290 c1        1 1NF     -0.222500
     19 C15         9.3900    3.6460    0.1420 c1        1 1NF     -0.222500
     20 C16         5.1660    2.5130   -1.2170 c2        1 1NF     -0.173000
     21 C17         4.3860    1.8790   -0.3370 c2        1 1NF     -0.133000
     22 C18         4.9070    0.9600    0.6500 c2        1 1NF     -0.013000
     23 C19         7.2560   -0.5830    3.1010 c3        1 1NF      0.514000
     24 H2          2.9120   -0.0430   -1.1330 ha        1 1NF      0.162000
     25 H4          1.9670   -0.1940    2.9790 hc        1 1NF      0.178000
     26 H5          2.4150   -1.8900    2.5570 hc        1 1NF      0.178000
     27 H7         -1.0000   -1.3260    0.3150 ha        1 1NF      0.248000
     28 H7A        -3.7010   -1.8390   -0.6000 ha        1 1NF      0.022000
     29 H8         -1.6400   -1.9870    2.3880 h1        1 1NF      0.096000
     30 H8A        -3.1580   -1.6770    3.3690 h1        1 1NF      0.096000
     31 H9         -2.6780   -3.3870    2.9580 h1        1 1NF      0.096000
     32 H9A        -4.4570   -2.5710    1.4970 hn        1 1NF      0.230000
     33 H10        -6.0040   -2.5620   -0.8050 ha        1 1NF      0.190000
     34 H10A       -6.9590   -3.4380    2.0550 ha        1 1NF      0.081000
     35 H14         9.3280    1.9490    1.6330 ha        1 1NF      0.223000
     36 H14A        7.0400    1.5690    1.0140 ha        1 1NF      0.189000
     37 H15         6.1290    2.3230   -3.6570 ha        1 1NF      0.000000
     38 H15A        6.3640    2.2510   -4.2880 ha        1 1NF      0.000000
     39 H16         9.4260    4.4450   -0.5540 ha        1 1NF      0.223000
     40 H16A        6.2530    2.3610   -1.2720 ha        1 1NF      0.126000
     41 H17         3.2950    2.0540   -0.3120 ha        1 1NF      0.143000
     42 H17A        4.7530    3.2290   -1.9410 ha        1 1NF      0.126000
     43 O1         -9.0520   -3.4830   -0.8820 o         1 1NF     -0.084000
     44 F2          7.6350   -1.8900    2.9310 f         1 1NF     -0.159667
     45 F3          6.9860   -0.4710    4.4410 f         1 1NF     -0.159667
     46 F4          8.4150    0.1340    2.9250 f         1 1NF     -0.159667
@<TRIPOS>BOND
     1    1    2 1   
     2    1    4 1   
     3    1   10 1   
     4    3   11 1   
     5    3   12 1   
     6    3   32 1   
     7    4    6 1   
     8    4   24 1   
     9    5    6 1   
    10    5    7 1   
    11    5   22 1   
    12    6    8 1   
    13    7   16 1   
    14    8    9 1   
    15    8   25 1   
    16    8   26 1   
    17    9   10 1   
    18   10   27 1   
    19   11   28 1   
    20   12   29 1   
    21   12   30 1   
    22   12   31 1   
    23   13   14 1   
    24   13   34 1   
    25   14   15 1   
    26   14   33 1   
    27   15   43 1   
    28   16   17 1   
    29   16   23 1   
    30   17   22 1   
    31   17   36 1   
    32   18   19 1   
    33   18   35 1   
    34   19   39 1   
    35   20   21 1   
    36   20   40 1   
    37   20   42 1   
    38   21   22 1   
    39   21   41 1   
    40   23   44 1   
    41   23   45 1   
    42   23   46 1   
    43   37   38 1   
@<TRIPOS>SUBSTRUCTURE
     1 1NF         1 TEMP              0 ****  ****    0 ROOT
