@<TRIPOS>MOLECULE
1NF
   46    42     1     0     0
SMALL
bcc


@<TRIPOS>ATOM
      1 C1          2.7450   -2.3600    0.4580 c2        1 1NF      0.105000
      2 F1          2.2050   -2.5880   -0.7600 f         1 1NF     -0.114000
      3 N1         -3.2700   -1.3000    0.2660 n7        1 1NF     -0.183000
      4 C2          3.0750   -1.1730    0.9050 c1        1 1NF     -0.288000
      5 N2          4.6700    0.6190    1.1470 n3        1 1NF     -0.095000
      6 C3          3.3710    0.0080    1.3930 c2        1 1NF      0.165000
      7 N3          5.2830    1.0790    2.2300 n2        1 1NF      0.023000
      8 C4          2.4090    0.8110    2.2340 c3        1 1NF      0.000000
      9 C5          1.0630    0.3330    2.1440 c1        1 1NF     -0.236000
     10 C6         -0.0750   -0.0370    2.0900 c1        1 1NF     -0.180000
     11 C7         -3.0420   -1.0650    1.5240 c1        1 1NF     -0.205000
     12 C8         -2.2510   -1.1070   -0.7380 c3        1 1NF     -0.107000
     13 C9        -11.7050   -4.4800   -0.6270 c1        1 1NF     -0.223500
     14 C10       -10.6010   -4.0400   -0.5000 c1        1 1NF     -0.223500
     15 C11        -7.3540   -2.7860   -0.2400 c1        1 1NF      0.220000
     16 C12         6.5580    1.2650    2.4310 c2        1 1NF     -0.164000
     17 C13         7.7560    0.9600    1.5840 c3        1 1NF     -0.032000
     18 C14         8.2360    2.1050    0.8680 c1        1 1NF     -0.181000
     19 C15         8.6590    3.0530    0.2740 c1        1 1NF     -0.182000
     20 C16         6.0530    0.9390   -1.1980 cx        1 1NF     -0.111000
     21 C17         5.2400   -0.3100   -1.2310 cu        1 1NF     -0.196000
     22 C18         5.2280    0.3700   -0.0910 cu        1 1NF     -0.097000
     23 C19         6.8830    1.8970    3.8170 c3        1 1NF      0.477000
     24 H2          2.8800   -3.2810    1.0570 h4        1 1NF      0.158000
     25 H4          2.4430    1.8930    1.9130 hc        1 1NF      0.125000
     26 H5          2.7540    0.7690    3.3090 hc        1 1NF      0.125000
     27 H7         -1.0990   -0.3700    2.0390 ha        1 1NF      0.276000
     28 H7A        -3.8910   -1.2440    2.2160 ha        1 1NF      0.050000
     29 H8         -2.6000   -0.3510   -1.4900 h1        1 1NF      0.096333
     30 H8A        -1.3040   -0.7430   -0.2570 h1        1 1NF      0.096333
     31 H9         -2.0490   -2.0780   -1.2630 h1        1 1NF      0.096333
     32 H9A        -4.1440   -1.6250   -0.1090 hn        1 1NF      0.171000
     33 H10       -12.6850   -4.8710   -0.7400 ha        1 1NF      0.222500
     34 H10A       -9.6190   -3.6480   -0.3860 ha        1 1NF      0.222500
     35 H14         7.5150    0.1280    0.8590 hc        1 1NF      0.127500
     36 H14A        8.5790    0.5730    2.2560 hc        1 1NF      0.127500
     37 H15         8.1050   -1.6980   -0.6950 ha        1 1NF      0.001000
     38 H15A        7.4970   -1.4520   -0.8660 ha        1 1NF      0.001000
     39 H16         5.7130    1.8420   -1.7420 hc        1 1NF      0.099000
     40 H16A        9.0340    3.8950   -0.2520 ha        1 1NF      0.227000
     41 H17         4.8960   -1.1190   -1.8400 ha        1 1NF      0.196000
     42 H17A        7.1580    0.8920   -1.1430 hc        1 1NF      0.099000
     43 O1         -6.2530   -2.3850   -0.2130 o         1 1NF     -0.216000
     44 F2          6.3890    1.1930    4.8860 f         1 1NF     -0.157667
     45 F3          6.3970    3.1680    3.9770 f         1 1NF     -0.157667
     46 F4          8.2230    2.0040    4.0850 f         1 1NF     -0.157667
@<TRIPOS>BOND
     1    1    2 1   
     2    1    4 1   
     3    1   24 1   
     4    3   11 1   
     5    3   12 1   
     6    3   32 1   
     7    4    6 1   
     8    5    6 1   
     9    5    7 1   
    10    5   22 1   
    11    6    8 1   
    12    7   16 1   
    13    8    9 1   
    14    8   25 1   
    15    8   26 1   
    16    9   10 1   
    17   10   27 1   
    18   11   28 1   
    19   12   29 1   
    20   12   30 1   
    21   12   31 1   
    22   13   14 1   
    23   13   33 1   
    24   14   34 1   
    25   15   43 1   
    26   16   17 1   
    27   16   23 1   
    28   17   18 1   
    29   17   35 1   
    30   17   36 1   
    31   18   19 1   
    32   19   40 1   
    33   20   21 1   
    34   20   22 1   
    35   20   39 1   
    36   20   42 1   
    37   21   22 1   
    38   21   41 1   
    39   23   44 1   
    40   23   45 1   
    41   23   46 1   
    42   37   38 1   
@<TRIPOS>SUBSTRUCTURE
     1 1NF         1 TEMP              0 ****  ****    0 ROOT
