@<TRIPOS>MOLECULE
1NF
   46    49     1     0     0
SMALL
bcc


@<TRIPOS>ATOM
      1 C1         -2.1880   -1.2670   -0.0710 ca        1 1NF      0.158900
      2 F1         -2.9000   -2.2540    0.5190 f         1 1NF     -0.119900
      3 N1         -5.1300    0.4310   -0.4440 n         1 1NF     -0.480800
      4 C2         -0.8060   -1.1910    0.1850 ca        1 1NF     -0.183000
      5 N2          1.3610   -0.1070   -0.1810 na        1 1NF      0.176300
      6 C3         -0.0420   -0.1860   -0.4300 ca        1 1NF      0.046800
      7 N3          2.0100    1.0640   -0.0880 nc        1 1NF     -0.451800
      8 C4         -0.6660    0.7460   -1.2850 ca        1 1NF     -0.131000
      9 C5         -2.0350    0.6570   -1.5160 ca        1 1NF     -0.092000
     10 C6         -2.8160   -0.3390   -0.9260 ca        1 1NF     -0.149300
     11 C7         -4.2890   -0.4230   -1.2250 c3        1 1NF      0.150300
     12 C8         -4.9750    1.8730   -0.4550 c3        1 1NF      0.082000
     13 C9         -5.8100    2.4290    0.7190 c3        1 1NF     -0.092400
     14 C10        -6.4100    1.2120    1.4170 c3        1 1NF     -0.158400
     15 C11        -5.8890    0.0010    0.6520 c         1 1NF      0.696500
     16 C12         3.3300    0.7740    0.1040 cd        1 1NF      0.226600
     17 C13         3.5330   -0.6540    0.1260 cd        1 1NF     -0.191600
     18 C14         4.7460   -1.4680    0.2600 c3        1 1NF     -0.008100
     19 C15         4.3930   -2.9280    0.5010 c3        1 1NF     -0.078400
     20 C16         3.2540   -3.4030   -0.3810 c3        1 1NF     -0.075400
     21 C17         1.9610   -2.6460   -0.1090 c3        1 1NF     -0.013100
     22 C18         2.2460   -1.1980   -0.0590 cc        1 1NF     -0.087600
     23 C19         4.3720    1.8600    0.2660 c3        1 1NF      0.632600
     24 H2         -0.3540   -1.9200    0.8750 ha        1 1NF      0.163000
     25 H4         -0.0850    1.5480   -1.7680 ha        1 1NF      0.166000
     26 H5         -2.5140    1.3870   -2.1880 ha        1 1NF      0.146000
     27 H7         -4.6380   -1.4870   -1.0610 h1        1 1NF      0.076200
     28 H7A        -4.4400   -0.1590   -2.3130 h1        1 1NF      0.076200
     29 H8         -3.8920    2.1590   -0.3460 h1        1 1NF      0.045700
     30 H8A        -5.3460    2.2760   -1.4370 h1        1 1NF      0.045700
     31 H9         -5.1600    3.0140    1.4130 hc        1 1NF      0.057700
     32 H9A        -6.6090    3.1090    0.3370 hc        1 1NF      0.057700
     33 H10        -6.0850    1.1370    2.4840 hc        1 1NF      0.082700
     34 H10A       -7.5270    1.2180    1.3860 hc        1 1NF      0.082700
     35 H14         5.3570   -1.3730   -0.6790 hc        1 1NF      0.063700
     36 H14A        5.3800   -1.0830    1.1040 hc        1 1NF      0.063700
     37 H15         5.2990   -3.5580    0.3070 hc        1 1NF      0.049200
     38 H15A        4.1080   -3.0680    1.5770 hc        1 1NF      0.049200
     39 H16         3.5390   -3.2750   -1.4580 hc        1 1NF      0.051200
     40 H16A        3.0740   -4.4950   -0.2050 hc        1 1NF      0.051200
     41 H17         1.2020   -2.8830   -0.9010 hc        1 1NF      0.061700
     42 H17A        1.5360   -2.9760    0.8790 hc        1 1NF      0.061700
     43 O1         -6.1270   -1.1840    0.9190 o         1 1NF     -0.612500
     44 F2          4.1420    2.7090    1.3210 f         1 1NF     -0.230967
     45 F3          4.4910    2.6890   -0.8210 f         1 1NF     -0.230967
     46 F4          5.6450    1.3930    0.4790 f         1 1NF     -0.230967
@<TRIPOS>BOND
     1    1    2 1   
     2    1    4 ar  
     3    1   10 ar  
     4    3   11 1   
     5    3   12 1   
     6    3   15 1   
     7    4    6 ar  
     8    4   24 1   
     9    5    6 1   
    10    5    7 1   
    11    5   22 1   
    12    6    8 ar  
    13    7   16 2   
    14    8    9 ar  
    15    8   25 1   
    16    9   10 ar  
    17    9   26 1   
    18   10   11 1   
    19   11   27 1   
    20   11   28 1   
    21   12   13 1   
    22   12   29 1   
    23   12   30 1   
    24   13   14 1   
    25   13   31 1   
    26   13   32 1   
    27   14   15 1   
    28   14   33 1   
    29   14   34 1   
    30   15   43 2   
    31   16   17 1   
    32   16   23 1   
    33   17   18 1   
    34   17   22 2   
    35   18   19 1   
    36   18   35 1   
    37   18   36 1   
    38   19   20 1   
    39   19   37 1   
    40   19   38 1   
    41   20   21 1   
    42   20   39 1   
    43   20   40 1   
    44   21   22 1   
    45   21   41 1   
    46   21   42 1   
    47   23   44 1   
    48   23   45 1   
    49   23   46 1   
@<TRIPOS>SUBSTRUCTURE
     1 1NF         1 TEMP              0 ****  ****    0 ROOT
