@<TRIPOS>MOLECULE
1NF
   46    44     1     0     0
SMALL
bcc


@<TRIPOS>ATOM
      1 C1         -1.0350    0.8980   -1.0520 c1        1 1NF      0.106000
      2 F1         -1.7050    1.0210   -2.2100 f         1 1NF     -0.101000
      3 N1         -3.7250    2.2090    0.4810 n         1 1NF     -0.329000
      4 O1         -3.8150    2.1820    2.9440 o         1 1NF     -0.353000
      5 C2          0.3500    0.7550   -1.0610 c1        1 1NF     -0.152000
      6 F2          0.6610   -5.0990   -0.4420 f         1 1NF     -0.160667
      7 N2          1.3640   -0.6920   -0.2080 n3        1 1NF     -0.066000
      8 C3          1.0410    0.5860    0.1360 c1        1 1NF      0.085000
      9 F3         -0.6710   -3.9990   -1.7950 f         1 1NF     -0.160667
     10 N3          0.4520   -1.7000   -0.6250 n2        1 1NF     -0.014000
     11 C4          0.3480    0.5600    1.3420 c1        1 1NF     -0.145000
     12 F4          1.3250   -4.6050   -2.4700 f         1 1NF     -0.160667
     13 C5         -1.0370    0.7040    1.3520 c1        1 1NF     -0.081000
     14 C6         -1.7290    0.8730    0.1550 c2        1 1NF     -0.144000
     15 C7         -3.2620    0.8910    0.1540 c3        1 1NF      0.024000
     16 C8         -4.2100    3.0150   -0.3000 c3        1 1NF     -0.036000
     17 C9         -4.2890    4.4620    0.4920 c3        1 1NF     -0.172000
     18 C10        -4.6560    4.2140    1.6980 c3        1 1NF     -0.187000
     19 C11        -4.1160    2.7080    1.8860 c2        1 1NF      0.301000
     20 C12         1.1830   -2.8610   -0.9100 c1        1 1NF     -0.200000
     21 C13         2.5050   -2.5950   -0.6820 c1        1 1NF     -0.120000
     22 C14         3.8520   -3.4290   -0.8430 c2        1 1NF     -0.094000
     23 C15         5.0670   -2.7140   -0.6800 c3        1 1NF     -0.156000
     24 C16         5.0850   -1.6710    0.3160 c3        1 1NF     -0.153000
     25 C17         4.0520   -0.6890    0.2300 c3        1 1NF     -0.098000
     26 C18         2.6110   -1.2160   -0.2370 c2        1 1NF     -0.057000
     27 C19         0.6080   -4.1810   -1.4200 c2        1 1NF      0.514000
     28 H2          0.8430    0.8020   -1.9100 ha        1 1NF      0.174000
     29 H4          0.8350    0.4410    2.1850 ha        1 1NF      0.154000
     30 H5         -1.5260    0.6860    2.2030 ha        1 1NF      0.172000
     31 H7         -3.5970    0.2510    0.8200 h1        1 1NF      0.116500
     32 H7A        -3.5920    0.6400   -0.7370 h1        1 1NF      0.116500
     33 H8         -5.1140    2.7250   -0.5640 h1        1 1NF      0.090500
     34 H8A        -3.6380    3.0980   -1.0950 h1        1 1NF      0.090500
     35 H9         -3.4040    4.8920    0.4930 hc        1 1NF      0.097500
     36 H9A        -4.9470    5.0480    0.0550 hc        1 1NF      0.097500
     37 H10        -4.4490    4.9040    2.3680 hc        1 1NF      0.121500
     38 H10A       -5.6380    4.1900    1.7530 hc        1 1NF      0.121500
     39 H14         3.8380   -4.1580   -0.1810 ha        1 1NF      0.102500
     40 H14A        3.8540   -3.8310   -1.7400 ha        1 1NF      0.102500
     41 H15         5.2970   -2.3080   -1.5470 hc        1 1NF      0.087500
     42 H15A        5.7720   -3.3650   -0.4510 hc        1 1NF      0.087500
     43 H16         4.9880   -2.1110    1.1900 hc        1 1NF      0.089000
     44 H16A        5.9420   -1.1930    0.2130 hc        1 1NF      0.089000
     45 H17         4.3430   -0.0250   -0.4360 hc        1 1NF      0.100000
     46 H17A        3.9400   -0.3130    1.1320 hc        1 1NF      0.100000
@<TRIPOS>BOND
     1    1    5 1   
     2    1   14 1   
     3    3   15 1   
     4    3   16 1   
     5    3   19 1   
     6    4   19 1   
     7    5   28 1   
     8    6   27 1   
     9    7    8 1   
    10    7   10 1   
    11    7   26 1   
    12    8   11 1   
    13    9   27 1   
    14   10   20 1   
    15   11   29 1   
    16   12   27 1   
    17   13   14 1   
    18   13   30 1   
    19   14   15 1   
    20   15   31 1   
    21   15   32 1   
    22   16   17 1   
    23   16   33 1   
    24   16   34 1   
    25   17   18 1   
    26   17   35 1   
    27   17   36 1   
    28   18   19 1   
    29   18   37 1   
    30   18   38 1   
    31   20   21 1   
    32   21   26 1   
    33   22   23 1   
    34   22   39 1   
    35   22   40 1   
    36   23   24 1   
    37   23   41 1   
    38   23   42 1   
    39   24   25 1   
    40   24   43 1   
    41   24   44 1   
    42   25   26 1   
    43   25   45 1   
    44   25   46 1   
@<TRIPOS>SUBSTRUCTURE
     1 1NF         1 TEMP              0 ****  ****    0 ROOT
