@<TRIPOS>MOLECULE
1NF
   46    43     1     0     0
SMALL
bcc


@<TRIPOS>ATOM
      1 C1          0.9190   -0.3300   -0.4410 c2        1 1NF      0.196000
      2 F1          0.4550   -0.0520   -1.6750 f         1 1NF     -0.088000
      3 N1         -3.3910   -2.2720    1.3180 n3        1 1NF     -0.199000
      4 C2          2.3110    0.0040   -0.1880 c2        1 1NF     -0.237000
      5 N2          4.1970    0.1250    1.3430 na        1 1NF     -0.080000
      6 C3          2.8540   -0.2400    1.0400 c2        1 1NF      0.084000
      7 N3          4.9730   -0.6170    2.1450 n2        1 1NF     -0.008000
      8 C4          2.0450   -0.9150    2.1100 c3        1 1NF     -0.189000
      9 C5          0.6600   -1.2170    1.7930 c1        1 1NF     -0.103000
     10 C6          0.1250   -0.9000    0.5330 c2        1 1NF     -0.281000
     11 C7         -2.9330   -1.6910    0.2500 c1        1 1NF     -0.233000
     12 C8         -2.5630   -2.4840    2.4800 c3        1 1NF     -0.122000
     13 C9         -6.2080   -3.1280    1.1500 c1        1 1NF     -0.186000
     14 C10        -6.6460   -2.8130   -0.0940 c2        1 1NF     -0.342000
     15 C11        -7.9040   -3.0560   -0.5760 c1        1 1NF      0.374000
     16 C12         6.1890   -0.0060    2.1860 c2        1 1NF     -0.205000
     17 C13         6.1920    1.1860    1.3730 c2        1 1NF     -0.174000
     18 C14         9.2960    3.1220    1.2560 c1        1 1NF     -0.222500
     19 C15         9.2870    4.1220    0.6010 c1        1 1NF     -0.222500
     20 C16         5.0620    3.0620   -0.8000 c2        1 1NF     -0.173000
     21 C17         4.3240    2.2880   -0.0010 c2        1 1NF     -0.132000
     22 C18         4.8960    1.2570    0.8360 c2        1 1NF     -0.013000
     23 C19         7.3530   -0.5390    2.9910 c3        1 1NF      0.514000
     24 H2          2.8800    0.4500   -1.0200 ha        1 1NF      0.162000
     25 H4          2.0540   -0.2920    3.0530 hc        1 1NF      0.178000
     26 H5          2.5330   -1.9010    2.3890 hc        1 1NF      0.178000
     27 H7         -0.9570   -1.1340    0.3310 ha        1 1NF      0.248000
     28 H7A        -3.6700   -1.5870   -0.5780 ha        1 1NF      0.022000
     29 H8         -2.5110   -3.5820    2.7050 h1        1 1NF      0.096000
     30 H8A        -1.5210   -2.0900    2.3080 h1        1 1NF      0.096000
     31 H9         -4.3500   -2.6180    1.4170 hn        1 1NF      0.230000
     32 H9A        -3.0170   -1.9580    3.3610 h1        1 1NF      0.096000
     33 H10        -5.9660   -2.3180   -0.8160 ha        1 1NF      0.190000
     34 H10A       -6.8160   -3.6140    1.9150 ha        1 1NF      0.081000
     35 H14         7.0220    1.8730    1.2300 ha        1 1NF      0.189000
     36 H14A        9.3150    2.2340    1.8420 ha        1 1NF      0.223000
     37 H15         5.4690   -2.0320   -5.3670 ha        1 1NF      0.000000
     38 H15A        5.5180   -1.3670   -5.4820 ha        1 1NF      0.000000
     39 H16         9.2810    5.0110    0.0220 ha        1 1NF      0.223000
     40 H16A        6.1510    2.9520   -0.9000 ha        1 1NF      0.125500
     41 H17         3.2300    2.4230    0.0730 ha        1 1NF      0.143000
     42 H17A        4.6110    3.8580   -1.4070 ha        1 1NF      0.125500
     43 O1         -8.9970   -3.2880   -0.9390 o         1 1NF     -0.084000
     44 F2          7.7610   -1.7980    2.6320 f         1 1NF     -0.159667
     45 F3          7.1180   -0.6230    4.3400 f         1 1NF     -0.159667
     46 F4          8.4870    0.2300    2.8890 f         1 1NF     -0.159667
@<TRIPOS>BOND
     1    1    2 1   
     2    1    4 1   
     3    1   10 1   
     4    3   11 1   
     5    3   12 1   
     6    3   31 1   
     7    4    6 1   
     8    4   24 1   
     9    5    6 1   
    10    5    7 1   
    11    5   22 1   
    12    6    8 1   
    13    7   16 1   
    14    8    9 1   
    15    8   25 1   
    16    8   26 1   
    17    9   10 1   
    18   10   27 1   
    19   11   28 1   
    20   12   29 1   
    21   12   30 1   
    22   12   32 1   
    23   13   14 1   
    24   13   34 1   
    25   14   15 1   
    26   14   33 1   
    27   15   43 1   
    28   16   17 1   
    29   16   23 1   
    30   17   22 1   
    31   17   35 1   
    32   18   19 1   
    33   18   36 1   
    34   19   39 1   
    35   20   21 1   
    36   20   40 1   
    37   20   42 1   
    38   21   22 1   
    39   21   41 1   
    40   23   44 1   
    41   23   45 1   
    42   23   46 1   
    43   37   38 1   
@<TRIPOS>SUBSTRUCTURE
     1 1NF         1 TEMP              0 ****  ****    0 ROOT
