@<TRIPOS>MOLECULE
1NG
   49    52     1     0     0
SMALL
bcc


@<TRIPOS>ATOM
      1 F1         -0.6570    1.0040   -0.0420 f         1 1NG     -0.232300
      2 C2          0.5840    1.3530    0.4290 c3        1 1NG      0.633600
      3 F3          0.3320    1.9970    1.6150 f         1 1NG     -0.232300
      4 F4          1.1500    0.1600    0.8050 f         1 1NG     -0.232300
      5 C5          1.4170    2.1560   -0.5470 cc        1 1NG      0.222600
      6 N6          0.9880    3.3540   -1.0450 nd        1 1NG     -0.453800
      7 N7          1.9400    3.7950   -1.8790 na        1 1NG      0.183300
      8 C8          3.0250    2.8970   -1.9440 cd        1 1NG     -0.091600
      9 C9          4.2740    2.9940   -2.7260 c3        1 1NG     -0.011100
     10 C10         5.3070    2.0410   -2.1400 c3        1 1NG     -0.075400
     11 C11         4.7320    0.6620   -1.8750 c3        1 1NG     -0.077400
     12 C12         3.6090    0.6880   -0.8480 c3        1 1NG     -0.007100
     13 C13         2.7110    1.8230   -1.0860 cc        1 1NG     -0.192600
     14 C14         1.8500    5.0500   -2.5540 ca        1 1NG      0.011800
     15 C15         2.3090    5.1750   -3.8810 ca        1 1NG     -0.121000
     16 C16         2.2270    6.4030   -4.5280 ca        1 1NG     -0.115500
     17 C17         1.6790    7.5180   -3.8820 ca        1 1NG     -0.081300
     18 C18         1.6250    8.8300   -4.5800 c3        1 1NG     -0.108100
     19 C19         0.9180    8.7070   -5.9230 c         1 1NG      0.660100
     20 O20         1.5690    8.4570   -6.9590 o         1 1NG     -0.609100
     21 N21        -0.4420    8.9460   -5.9870 n         1 1NG     -0.458800
     22 C22        -1.1930    8.6750   -7.2040 c3        1 1NG      0.082500
     23 C23        -2.6440    8.3690   -6.8000 c3        1 1NG     -0.091900
     24 C24        -2.7180    8.5390   -5.2860 c3        1 1NG     -0.091900
     25 C25        -1.3060    8.9320   -4.8210 c3        1 1NG      0.082500
     26 C26         1.2120    7.3870   -2.5710 ca        1 1NG     -0.115500
     27 C27         1.2940    6.1690   -1.9020 ca        1 1NG     -0.121000
     28 H9          4.6720    4.0430   -2.7250 hc        1 1NG      0.060700
     29 H9A         4.0660    2.7090   -3.7940 hc        1 1NG      0.060700
     30 H10         5.7040    2.4680   -1.1820 hc        1 1NG      0.050200
     31 H10A        6.1650    1.9570   -2.8570 hc        1 1NG      0.050200
     32 H11         4.3440    0.2340   -2.8370 hc        1 1NG      0.048200
     33 H11A        5.5460   -0.0150   -1.5080 hc        1 1NG      0.048200
     34 H12         4.0410    0.7720    0.1870 hc        1 1NG      0.063200
     35 H12A        3.0340   -0.2770   -0.8860 hc        1 1NG      0.063200
     36 H15         2.7270    4.3080   -4.4160 ha        1 1NG      0.155000
     37 H16         2.5820    6.5040   -5.5680 ha        1 1NG      0.152000
     38 H18         1.1310    9.6050   -3.9380 hc        1 1NG      0.080200
     39 H18A        2.6740    9.1800   -4.7920 hc        1 1NG      0.080200
     40 H22        -0.7320    7.8160   -7.7660 h1        1 1NG      0.052700
     41 H22A       -1.1430    9.5840   -7.8640 h1        1 1NG      0.052700
     42 H23        -2.9190    7.3280   -7.0990 hc        1 1NG      0.054200
     43 H23A       -3.3440    9.0700   -7.3170 hc        1 1NG      0.054200
     44 H24        -3.4510    9.3340   -5.0060 hc        1 1NG      0.054200
     45 H24A       -3.0370    7.5890   -4.7920 hc        1 1NG      0.054200
     46 H25        -1.3140    9.9610   -4.3640 h1        1 1NG      0.052700
     47 H25A       -0.9240    8.2110   -4.0450 h1        1 1NG      0.052700
     48 H26         0.7760    8.2550   -2.0530 ha        1 1NG      0.152000
     49 H27         0.9160    6.0910   -0.8700 ha        1 1NG      0.155000
@<TRIPOS>BOND
     1    1    2 1   
     2    2    3 1   
     3    2    4 1   
     4    2    5 1   
     5    5    6 2   
     6    5   13 1   
     7    6    7 1   
     8    7    8 1   
     9    7   14 1   
    10    8    9 1   
    11    8   13 2   
    12    9   10 1   
    13    9   28 1   
    14    9   29 1   
    15   10   11 1   
    16   10   30 1   
    17   10   31 1   
    18   11   12 1   
    19   11   32 1   
    20   11   33 1   
    21   12   13 1   
    22   12   34 1   
    23   12   35 1   
    24   14   15 ar  
    25   14   27 ar  
    26   15   16 ar  
    27   15   36 1   
    28   16   17 ar  
    29   16   37 1   
    30   17   18 1   
    31   17   26 ar  
    32   18   19 1   
    33   18   38 1   
    34   18   39 1   
    35   19   20 2   
    36   19   21 1   
    37   21   22 1   
    38   21   25 1   
    39   22   23 1   
    40   22   40 1   
    41   22   41 1   
    42   23   24 1   
    43   23   42 1   
    44   23   43 1   
    45   24   25 1   
    46   24   44 1   
    47   24   45 1   
    48   25   46 1   
    49   25   47 1   
    50   26   27 ar  
    51   26   48 1   
    52   27   49 1   
@<TRIPOS>SUBSTRUCTURE
     1 1NG         1 TEMP              0 ****  ****    0 ROOT
