@<TRIPOS>MOLECULE
1NG
   49    48     1     0     0
SMALL
bcc


@<TRIPOS>ATOM
      1 F1         -4.5850   -3.0560    4.6370 f         1 1NG     -0.161333
      2 C2         -3.3110   -3.5130    4.2810 c3        1 1NG      0.514000
      3 F3         -2.6620   -3.9230    5.3860 f         1 1NG     -0.161333
      4 F4         -3.4290   -4.5680    3.3960 f         1 1NG     -0.161333
      5 C5         -2.5310   -2.3870    3.6250 c2        1 1NG     -0.204000
      6 N6         -2.1370   -2.3310    2.2640 n2        1 1NG     -0.013000
      7 N7         -1.4950   -1.0970    2.0430 n3        1 1NG     -0.060000
      8 C8         -1.4870   -0.4150    3.2070 c1        1 1NG     -0.063000
      9 C9         -1.0700    1.0470    3.6170 c2        1 1NG     -0.096000
     10 C10        -1.4640    1.4860    4.9360 c3        1 1NG     -0.153000
     11 C11        -1.4670    0.5020    5.9740 c3        1 1NG     -0.156000
     12 C12        -2.2000   -0.6980    5.7130 c3        1 1NG     -0.093000
     13 C13        -2.1500   -1.2430    4.2160 c2        1 1NG     -0.120000
     14 C14        -1.0000   -0.6560    0.8520 c1        1 1NG      0.053000
     15 C15        -1.8340    0.0540   -0.0410 c1        1 1NG     -0.125500
     16 C16        -1.3690    0.3800   -1.3210 c1        1 1NG     -0.125500
     17 C17        -0.0730    0.0020   -1.7160 c1        1 1NG     -0.069000
     18 C18         0.4090    0.2770   -3.1660 c3        1 1NG     -0.145000
     19 C19         1.8480    0.6860   -3.1430 c2        1 1NG      0.304000
     20 O20         2.4180    0.8400   -2.0800 o         1 1NG     -0.366000
     21 N21         2.6000    0.8170   -4.4120 n         1 1NG     -0.319000
     22 C22         3.8650    1.0930   -4.5580 c3        1 1NG     -0.032000
     23 C23         4.0060    1.8080   -6.0050 c3        1 1NG     -0.170500
     24 C24         3.1700    1.1990   -6.7880 c3        1 1NG     -0.170500
     25 C25         2.0510    0.6580   -5.8420 c3        1 1NG     -0.032000
     26 C26         0.7620   -0.7080   -0.8190 c1        1 1NG     -0.112000
     27 C27         0.3040   -1.0340    0.4500 c1        1 1NG     -0.103000
     28 H9         -0.0190    1.1210    3.5500 ha        1 1NG      0.097500
     29 H9A        -1.4540    1.6500    2.9770 ha        1 1NG      0.097500
     30 H10        -0.8410    2.2280    5.2150 hc        1 1NG      0.087500
     31 H10A       -2.3780    1.8640    4.8700 hc        1 1NG      0.087500
     32 H11        -0.5020    0.2320    6.1240 hc        1 1NG      0.087500
     33 H11A       -1.8720    0.9150    6.7490 hc        1 1NG      0.087500
     34 H12        -3.0950   -0.5140    5.9030 hc        1 1NG      0.102000
     35 H12A       -1.8100   -1.4110    6.2950 hc        1 1NG      0.102000
     36 H15        -2.7640    0.3270    0.2430 ha        1 1NG      0.143000
     37 H16        -1.9740    0.8960   -1.9710 ha        1 1NG      0.143000
     38 H18        -0.1060    0.9670   -3.5410 hc        1 1NG      0.120000
     39 H18A        0.3010   -0.6110   -3.7540 hc        1 1NG      0.120000
     40 H22         4.3780    0.2930   -4.5380 h1        1 1NG      0.091250
     41 H22A        4.1670    1.7150   -3.8340 h1        1 1NG      0.091250
     42 H23         4.9720    1.6990   -6.3650 hc        1 1NG      0.092500
     43 H23A        3.7720    2.7750   -5.9370 hc        1 1NG      0.092500
     44 H24         3.6030    0.4740   -7.2380 hc        1 1NG      0.092500
     45 H24A        2.7920    1.8280   -7.4370 hc        1 1NG      0.092500
     46 H25         1.2690    1.1610   -5.9470 h1        1 1NG      0.091250
     47 H25A        1.8650   -0.3420   -6.0460 h1        1 1NG      0.091250
     48 H26         1.6410   -0.9630   -1.0880 ha        1 1NG      0.166000
     49 H27         0.8840   -1.5240    1.0660 ha        1 1NG      0.162000
@<TRIPOS>BOND
     1    1    2 1   
     2    2    3 1   
     3    2    4 1   
     4    2    5 1   
     5    5    6 1   
     6    5   13 1   
     7    6    7 1   
     8    7    8 1   
     9    7   14 1   
    10    8   13 1   
    11    9   10 1   
    12    9   28 1   
    13    9   29 1   
    14   10   11 1   
    15   10   30 1   
    16   10   31 1   
    17   11   12 1   
    18   11   32 1   
    19   11   33 1   
    20   12   13 1   
    21   12   34 1   
    22   12   35 1   
    23   14   27 1   
    24   15   16 1   
    25   15   36 1   
    26   16   37 1   
    27   17   18 1   
    28   17   26 1   
    29   18   19 1   
    30   18   38 1   
    31   18   39 1   
    32   19   20 1   
    33   19   21 1   
    34   21   22 1   
    35   21   25 1   
    36   22   23 1   
    37   22   40 1   
    38   22   41 1   
    39   23   24 1   
    40   23   42 1   
    41   23   43 1   
    42   24   25 1   
    43   24   44 1   
    44   24   45 1   
    45   25   46 1   
    46   25   47 1   
    47   26   48 1   
    48   27   49 1   
@<TRIPOS>SUBSTRUCTURE
     1 1NG         1 TEMP              0 ****  ****    0 ROOT
