@<TRIPOS>MOLECULE
1NG
   49    52     1     0     0
SMALL
bcc


@<TRIPOS>ATOM
      1 F1         -0.6430    0.9810   -0.0640 f         1 1NG     -0.232300
      2 C2          0.5980    1.3320    0.4090 c3        1 1NG      0.633600
      3 F3          0.3430    1.9680    1.5980 f         1 1NG     -0.232300
      4 F4          1.1680    0.1390    0.7790 f         1 1NG     -0.232300
      5 C5          1.4270    2.1430   -0.5620 cc        1 1NG      0.222600
      6 N6          0.9940    3.3420   -1.0540 nd        1 1NG     -0.453800
      7 N7          1.9450    3.7910   -1.8850 na        1 1NG      0.183300
      8 C8          3.0330    2.8980   -1.9550 cd        1 1NG     -0.091600
      9 C9          4.2810    3.0020   -2.7370 c3        1 1NG     -0.011100
     10 C10         5.3180    2.0500   -2.1560 c3        1 1NG     -0.075400
     11 C11         4.7470    0.6680   -1.8990 c3        1 1NG     -0.077400
     12 C12         3.6250    0.6840   -0.8720 c3        1 1NG     -0.007100
     13 C13         2.7230    1.8180   -1.1030 cc        1 1NG     -0.192600
     14 C14         1.8510    5.0490   -2.5530 ca        1 1NG      0.011800
     15 C15         2.3090    5.1830   -3.8790 ca        1 1NG     -0.121000
     16 C16         2.2230    6.4140   -4.5200 ca        1 1NG     -0.115500
     17 C17         1.6710    7.5240   -3.8680 ca        1 1NG     -0.081300
     18 C18         1.6110    8.8390   -4.5600 c3        1 1NG     -0.108100
     19 C19         0.9070    8.7200   -5.9040 c         1 1NG      0.660100
     20 O20         1.5600    8.4790   -6.9400 o         1 1NG     -0.609100
     21 N21        -0.4550    8.9520   -5.9690 n         1 1NG     -0.458800
     22 C22        -1.2020    8.6840   -7.1880 c3        1 1NG      0.082500
     23 C23        -2.6520    8.3680   -6.7880 c3        1 1NG     -0.091900
     24 C24        -2.7290    8.5280   -5.2730 c3        1 1NG     -0.091900
     25 C25        -1.3200    8.9270   -4.8040 c3        1 1NG      0.082500
     26 C26         1.2030    7.3840   -2.5580 ca        1 1NG     -0.115500
     27 C27         1.2900    6.1630   -1.8960 ca        1 1NG     -0.121000
     28 H9          4.6760    4.0530   -2.7300 hc        1 1NG      0.060700
     29 H9A         4.0750    2.7220   -3.8070 hc        1 1NG      0.060700
     30 H10         5.7140    2.4730   -1.1960 hc        1 1NG      0.050200
     31 H10A        6.1760    1.9730   -2.8730 hc        1 1NG      0.050200
     32 H11         4.3610    0.2430   -2.8630 hc        1 1NG      0.048200
     33 H11A        5.5640   -0.0080   -1.5350 hc        1 1NG      0.048200
     34 H12         3.0530   -0.2820   -0.9150 hc        1 1NG      0.063200
     35 H12A        4.0560    0.7640    0.1640 hc        1 1NG      0.063200
     36 H15         2.7310    4.3210   -4.4190 ha        1 1NG      0.155000
     37 H16         2.5780    6.5220   -5.5590 ha        1 1NG      0.152000
     38 H18         1.1120    9.6090   -3.9140 hc        1 1NG      0.080200
     39 H18A        2.6590    9.1950   -4.7680 hc        1 1NG      0.080200
     40 H22        -1.1570    9.5970   -7.8430 h1        1 1NG      0.052700
     41 H22A       -0.7350    7.8310   -7.7540 h1        1 1NG      0.052700
     42 H23        -2.9200    7.3270   -7.0930 hc        1 1NG      0.054200
     43 H23A       -3.3550    9.0680   -7.3020 hc        1 1NG      0.054200
     44 H24        -3.4670    9.3180   -4.9900 hc        1 1NG      0.054200
     45 H24A       -3.0430    7.5740   -4.7850 hc        1 1NG      0.054200
     46 H25        -1.3350    9.9530   -4.3410 h1        1 1NG      0.052700
     47 H25A       -0.9350    8.2040   -4.0310 h1        1 1NG      0.052700
     48 H26         0.7630    8.2480   -2.0350 ha        1 1NG      0.152000
     49 H27         0.9120    6.0780   -0.8640 ha        1 1NG      0.155000
@<TRIPOS>BOND
     1    1    2 1   
     2    2    3 1   
     3    2    4 1   
     4    2    5 1   
     5    5    6 2   
     6    5   13 1   
     7    6    7 1   
     8    7    8 1   
     9    7   14 1   
    10    8    9 1   
    11    8   13 2   
    12    9   10 1   
    13    9   28 1   
    14    9   29 1   
    15   10   11 1   
    16   10   30 1   
    17   10   31 1   
    18   11   12 1   
    19   11   32 1   
    20   11   33 1   
    21   12   13 1   
    22   12   34 1   
    23   12   35 1   
    24   14   15 ar  
    25   14   27 ar  
    26   15   16 ar  
    27   15   36 1   
    28   16   17 ar  
    29   16   37 1   
    30   17   18 1   
    31   17   26 ar  
    32   18   19 1   
    33   18   38 1   
    34   18   39 1   
    35   19   20 2   
    36   19   21 1   
    37   21   22 1   
    38   21   25 1   
    39   22   23 1   
    40   22   40 1   
    41   22   41 1   
    42   23   24 1   
    43   23   42 1   
    44   23   43 1   
    45   24   25 1   
    46   24   44 1   
    47   24   45 1   
    48   25   46 1   
    49   25   47 1   
    50   26   27 ar  
    51   26   48 1   
    52   27   49 1   
@<TRIPOS>SUBSTRUCTURE
     1 1NG         1 TEMP              0 ****  ****    0 ROOT
