@<TRIPOS>MOLECULE
1NG
   49    52     1     0     0
SMALL
bcc


@<TRIPOS>ATOM
      1 F1         -0.6450    0.9520   -0.1030 f         1 1NG     -0.232300
      2 C2          0.5930    1.3020    0.3760 c3        1 1NG      0.633600
      3 F3          0.3330    1.9280    1.5700 f         1 1NG     -0.232300
      4 F4          1.1640    0.1060    0.7390 f         1 1NG     -0.232300
      5 C5          1.4240    2.1220   -0.5860 cc        1 1NG      0.222600
      6 N6          0.9900    3.3240   -1.0690 nd        1 1NG     -0.453800
      7 N7          1.9430    3.7810   -1.8940 na        1 1NG      0.183300
      8 C8          3.0330    2.8910   -1.9680 cd        1 1NG     -0.091600
      9 C9          4.2840    3.0040   -2.7440 c3        1 1NG     -0.011100
     10 C10         5.3200    2.0490   -2.1670 c3        1 1NG     -0.075400
     11 C11         4.7510    0.6640   -1.9230 c3        1 1NG     -0.077400
     12 C12         3.6250    0.6700   -0.8990 c3        1 1NG     -0.007100
     13 C13         2.7220    1.8040   -1.1250 cc        1 1NG     -0.192600
     14 C14         1.8480    5.0450   -2.5520 ca        1 1NG      0.011800
     15 C15         2.3110    5.1900   -3.8760 ca        1 1NG     -0.121000
     16 C16         2.2240    6.4260   -4.5070 ca        1 1NG     -0.115500
     17 C17         1.6670    7.5290   -3.8490 ca        1 1NG     -0.081300
     18 C18         1.6070    8.8500   -4.5300 c3        1 1NG     -0.108100
     19 C19         0.9090    8.7390   -5.8780 c         1 1NG      0.660100
     20 O20         1.5670    8.5090   -6.9130 o         1 1NG     -0.609100
     21 N21        -0.4530    8.9680   -5.9460 n         1 1NG     -0.458800
     22 C22        -1.1950    8.7080   -7.1710 c3        1 1NG      0.082500
     23 C23        -2.6460    8.3850   -6.7790 c3        1 1NG     -0.091900
     24 C24        -2.7290    8.5330   -5.2630 c3        1 1NG     -0.091900
     25 C25        -1.3230    8.9320   -4.7850 c3        1 1NG      0.082500
     26 C26         1.1960    7.3780   -2.5420 ca        1 1NG     -0.115500
     27 C27         1.2830    6.1520   -1.8880 ca        1 1NG     -0.121000
     28 H9          4.0810    2.7320   -3.8170 hc        1 1NG      0.060700
     29 H9A         4.6760    4.0550   -2.7280 hc        1 1NG      0.060700
     30 H10         5.7120    2.4650   -1.2020 hc        1 1NG      0.050200
     31 H10A        6.1810    1.9790   -2.8820 hc        1 1NG      0.050200
     32 H11         4.3690    0.2460   -2.8910 hc        1 1NG      0.048200
     33 H11A        5.5680   -0.0130   -1.5620 hc        1 1NG      0.048200
     34 H12         3.0560   -0.2970   -0.9520 hc        1 1NG      0.063200
     35 H12A        4.0530    0.7420    0.1390 hc        1 1NG      0.063200
     36 H15         2.7360    4.3330   -4.4210 ha        1 1NG      0.155000
     37 H16         2.5830    6.5430   -5.5440 ha        1 1NG      0.152000
     38 H18         1.1040    9.6130   -3.8800 hc        1 1NG      0.080200
     39 H18A        2.6550    9.2100   -4.7310 hc        1 1NG      0.080200
     40 H22        -0.7240    7.8610   -7.7420 h1        1 1NG      0.052700
     41 H22A       -1.1500    9.6270   -7.8180 h1        1 1NG      0.052700
     42 H23        -2.9090    7.3460   -7.0940 hc        1 1NG      0.054200
     43 H23A       -3.3490    9.0870   -7.2900 hc        1 1NG      0.054200
     44 H24        -3.4700    9.3180   -4.9770 hc        1 1NG      0.054200
     45 H24A       -3.0420    7.5730   -4.7840 hc        1 1NG      0.054200
     46 H25        -1.3420    9.9540   -4.3140 h1        1 1NG      0.052700
     47 H25A       -0.9390    8.2040   -4.0160 h1        1 1NG      0.052700
     48 H26         0.7520    8.2370   -2.0130 ha        1 1NG      0.152000
     49 H27         0.9010    6.0580   -0.8590 ha        1 1NG      0.155000
@<TRIPOS>BOND
     1    1    2 1   
     2    2    3 1   
     3    2    4 1   
     4    2    5 1   
     5    5    6 2   
     6    5   13 1   
     7    6    7 1   
     8    7    8 1   
     9    7   14 1   
    10    8    9 1   
    11    8   13 2   
    12    9   10 1   
    13    9   28 1   
    14    9   29 1   
    15   10   11 1   
    16   10   30 1   
    17   10   31 1   
    18   11   12 1   
    19   11   32 1   
    20   11   33 1   
    21   12   13 1   
    22   12   34 1   
    23   12   35 1   
    24   14   15 ar  
    25   14   27 ar  
    26   15   16 ar  
    27   15   36 1   
    28   16   17 ar  
    29   16   37 1   
    30   17   18 1   
    31   17   26 ar  
    32   18   19 1   
    33   18   38 1   
    34   18   39 1   
    35   19   20 2   
    36   19   21 1   
    37   21   22 1   
    38   21   25 1   
    39   22   23 1   
    40   22   40 1   
    41   22   41 1   
    42   23   24 1   
    43   23   42 1   
    44   23   43 1   
    45   24   25 1   
    46   24   44 1   
    47   24   45 1   
    48   25   46 1   
    49   25   47 1   
    50   26   27 ar  
    51   26   48 1   
    52   27   49 1   
@<TRIPOS>SUBSTRUCTURE
     1 1NG         1 TEMP              0 ****  ****    0 ROOT
