@<TRIPOS>MOLECULE
1NG
   49    52     1     0     0
SMALL
bcc


@<TRIPOS>ATOM
      1 F1         -3.2950    3.3160    0.6510 f         1 1NG     -0.232300
      2 C2         -3.7250    2.1190    1.1680 c3        1 1NG      0.633600
      3 F3         -3.7390    2.3180    2.5260 f         1 1NG     -0.232300
      4 F4         -5.0520    2.0580    0.8210 f         1 1NG     -0.232300
      5 C5         -2.9120    0.9220    0.7250 cc        1 1NG      0.222600
      6 N6         -1.5690    0.8350    0.9650 nd        1 1NG     -0.453800
      7 N7         -1.1530   -0.3280    0.4430 na        1 1NG      0.183300
      8 C8         -2.2170   -1.0380   -0.1480 cd        1 1NG     -0.091600
      9 C9         -2.2040   -2.3500   -0.8250 c3        1 1NG     -0.011100
     10 C10        -3.6260   -2.8940   -0.8920 c3        1 1NG     -0.075400
     11 C11        -4.6170   -1.8500   -1.3700 c3        1 1NG     -0.077400
     12 C12        -4.7070   -0.6580   -0.4280 c3        1 1NG     -0.007100
     13 C13        -3.3720   -0.2480    0.0230 cc        1 1NG     -0.192600
     14 C14         0.1990   -0.7760    0.5450 ca        1 1NG      0.011800
     15 C15         0.8050   -1.4500   -0.5350 ca        1 1NG     -0.121000
     16 C16         2.1180   -1.8910   -0.4240 ca        1 1NG     -0.115500
     17 C17         2.8560   -1.6630    0.7440 ca        1 1NG     -0.081300
     18 C18         4.2510   -2.1660    0.8540 c3        1 1NG     -0.108100
     19 C19         5.1030   -1.6790   -0.3100 c         1 1NG      0.660100
     20 O20         5.1980   -2.3600   -1.3520 o         1 1NG     -0.609100
     21 N21         5.8230   -0.5070   -0.1670 n         1 1NG     -0.458800
     22 C22         6.5120    0.0910   -1.3000 c3        1 1NG      0.082500
     23 C23         6.6040    1.6040   -1.0470 c3        1 1NG     -0.091900
     24 C24         5.9890    1.8520    0.3260 c3        1 1NG     -0.091900
     25 C25         5.5350    0.4810    0.8560 c3        1 1NG      0.082500
     26 C26         2.2570   -0.9810    1.8070 ca        1 1NG     -0.115500
     27 C27         0.9400   -0.5390    1.7200 ca        1 1NG     -0.121000
     28 H9         -1.8020   -2.2260   -1.8680 hc        1 1NG      0.060700
     29 H9A        -1.5390   -3.0770   -0.2870 hc        1 1NG      0.060700
     30 H10        -3.6420   -3.7720   -1.5880 hc        1 1NG      0.050200
     31 H10A       -3.9310   -3.2590    0.1240 hc        1 1NG      0.050200
     32 H11        -4.3140   -1.4940   -2.3900 hc        1 1NG      0.048200
     33 H11A       -5.6310   -2.3180   -1.4630 hc        1 1NG      0.048200
     34 H12        -5.2230    0.1970   -0.9420 hc        1 1NG      0.063200
     35 H12A       -5.3310   -0.9270    0.4690 hc        1 1NG      0.063200
     36 H15         0.2520   -1.6260   -1.4700 ha        1 1NG      0.155000
     37 H16         2.5970   -2.4170   -1.2690 ha        1 1NG      0.152000
     38 H18         4.7070   -1.8700    1.8350 hc        1 1NG      0.080200
     39 H18A        4.2420   -3.2910    0.8060 hc        1 1NG      0.080200
     40 H22         7.5370   -0.3660   -1.3770 h1        1 1NG      0.052700
     41 H22A        5.9630   -0.1350   -2.2560 h1        1 1NG      0.052700
     42 H23         7.6700    1.9360   -1.0750 hc        1 1NG      0.054200
     43 H23A        6.0500    2.1630   -1.8400 hc        1 1NG      0.054200
     44 H24         6.7340    2.3070    1.0240 hc        1 1NG      0.054200
     45 H24A        5.1170    2.5460    0.2550 hc        1 1NG      0.054200
     46 H25         4.4380    0.4920    1.1090 h1        1 1NG      0.052700
     47 H25A        6.1040    0.2120    1.7900 h1        1 1NG      0.052700
     48 H26         2.8270   -0.7900    2.7300 ha        1 1NG      0.152000
     49 H27         0.4910   -0.0020    2.5710 ha        1 1NG      0.155000
@<TRIPOS>BOND
     1    1    2 1   
     2    2    3 1   
     3    2    4 1   
     4    2    5 1   
     5    5    6 2   
     6    5   13 1   
     7    6    7 1   
     8    7    8 1   
     9    7   14 1   
    10    8    9 1   
    11    8   13 2   
    12    9   10 1   
    13    9   28 1   
    14    9   29 1   
    15   10   11 1   
    16   10   30 1   
    17   10   31 1   
    18   11   12 1   
    19   11   32 1   
    20   11   33 1   
    21   12   13 1   
    22   12   34 1   
    23   12   35 1   
    24   14   15 ar  
    25   14   27 ar  
    26   15   16 ar  
    27   15   36 1   
    28   16   17 ar  
    29   16   37 1   
    30   17   18 1   
    31   17   26 ar  
    32   18   19 1   
    33   18   38 1   
    34   18   39 1   
    35   19   20 2   
    36   19   21 1   
    37   21   22 1   
    38   21   25 1   
    39   22   23 1   
    40   22   40 1   
    41   22   41 1   
    42   23   24 1   
    43   23   42 1   
    44   23   43 1   
    45   24   25 1   
    46   24   44 1   
    47   24   45 1   
    48   25   46 1   
    49   25   47 1   
    50   26   27 ar  
    51   26   48 1   
    52   27   49 1   
@<TRIPOS>SUBSTRUCTURE
     1 1NG         1 TEMP              0 ****  ****    0 ROOT
