@<TRIPOS>MOLECULE
1NJ
   71    73     1     0     0
SMALL
bcc


@<TRIPOS>ATOM
      1 O1          1.0110   -1.9460   -0.9080 o         1 1NJ     -0.578100
      2 C2          1.4320   -0.8360   -0.5440 c         1 1NJ      0.585600
      3 N3          1.0800   -0.2160    0.6420 ns        1 1NJ     -0.458100
      4 C5         -0.0150   -0.5680    1.4480 ca        1 1NJ      0.074600
      5 C6         -0.5510    0.4060    2.3270 ca        1 1NJ     -0.162500
      6 C8         -1.7030    0.1340    3.0550 ca        1 1NJ     -0.091000
      7 C10        -2.3430   -1.1020    2.9340 ca        1 1NJ     -0.225900
      8 C11        -3.6250   -1.3860    3.6500 ce        1 1NJ      0.605800
      9 N12        -4.6750   -0.4850    3.3080 nv        1 1NJ     -0.894800
     10 N15        -3.8230   -2.3940    4.4400 n2        1 1NJ     -0.795100
     11 C17        -1.7780   -2.0930    2.1270 ca        1 1NJ     -0.091000
     12 C19        -0.6230   -1.8410    1.3950 ca        1 1NJ     -0.162500
     13 C21         2.3540   -0.0320   -1.4410 ca        1 1NJ      0.423800
     14 N22         3.6620   -0.0230   -1.1170 nb        1 1NJ     -0.714000
     15 C23         4.4950    0.6560   -1.9520 ca        1 1NJ      0.662600
     16 O24         5.8450    0.7160   -1.7300 os        1 1NJ     -0.427100
     17 C25         6.3800    0.0000   -0.6110 c3        1 1NJ      0.119700
     18 C29         4.0470    1.3640   -3.1050 ca        1 1NJ     -0.241300
     19 C31         2.6920    1.3560   -3.3890 ca        1 1NJ     -0.019000
     20 C33         1.8050    0.6450   -2.5540 cp        1 1NJ     -0.236300
     21 C34         0.3730    0.5900   -2.8380 cp        1 1NJ      0.097000
     22 C35        -0.2100   -0.6660   -3.1070 ca        1 1NJ     -0.113000
     23 C37        -1.5820   -0.8050   -3.2600 ca        1 1NJ     -0.067000
     24 C39        -0.4590    1.7230   -2.8120 ca        1 1NJ     -0.117600
     25 C40         0.0720    3.0880   -2.6340 c         1 1NJ      0.647700
     26 O41         1.0330    3.6280   -3.1840 o         1 1NJ     -0.512000
     27 O43        -0.6500    3.8450   -1.7590 oh        1 1NJ     -0.604100
     28 C44        -1.8450    1.5860   -2.9520 ca        1 1NJ     -0.004000
     29 C46        -2.4150    0.3190   -3.1440 ca        1 1NJ     -0.210600
     30 C47        -3.8750    0.2470   -3.2140 c         1 1NJ      0.574700
     31 O48        -4.6500    1.1210   -3.5850 o         1 1NJ     -0.432100
     32 N49        -4.5070   -1.0470   -2.7530 ny        1 1NJ     -0.673800
     33 C51        -5.6640   -0.8440   -1.8020 c3        1 1NJ      0.129500
     34 C53        -5.1300   -0.5670   -0.3790 c3        1 1NJ      0.118400
     35 O56        -4.1670   -1.5520   -0.0580 oh        1 1NJ     -0.639800
     36 C58        -6.6710   -2.0220   -1.8960 c3        1 1NJ     -0.063000
     37 C59        -5.9940   -3.3630   -1.6690 c3        1 1NJ     -0.108767
     38 C63        -7.7560   -1.8190   -0.8430 c3        1 1NJ     -0.108767
     39 C67        -7.3340   -2.0080   -3.2710 c3        1 1NJ     -0.108767
     40 H1          1.5830    0.6040    0.9070 hn        1 1NJ      0.338500
     41 H2         -0.0650    1.3870    2.4410 ha        1 1NJ      0.161500
     42 H3         -2.1040    0.9040    3.7330 ha        1 1NJ      0.144500
     43 H4         -5.5060   -0.6150    3.8530 hn        1 1NJ      0.389300
     44 H5         -4.3630    0.4640    3.3520 hn        1 1NJ      0.389300
     45 H6         -3.0460   -3.0110    4.5390 hn        1 1NJ      0.409400
     46 H7         -2.2480   -3.0870    2.0630 ha        1 1NJ      0.144500
     47 H8         -0.1930   -2.6440    0.7720 ha        1 1NJ      0.161500
     48 H9          7.4780    0.2080   -0.6920 h1        1 1NJ      0.062033
     49 H10         6.1700   -1.0910   -0.7080 h1        1 1NJ      0.062033
     50 H11         5.9650    0.4030    0.3430 h1        1 1NJ      0.062033
     51 H12         4.7750    1.8990   -3.7300 ha        1 1NJ      0.182000
     52 H13         2.3020    1.9180   -4.2550 ha        1 1NJ      0.174000
     53 H14         0.4420   -1.5580   -3.1610 ha        1 1NJ      0.195000
     54 H15        -1.9860   -1.8050   -3.4830 ha        1 1NJ      0.141000
     55 H17        -2.4890    2.4830   -2.8930 ha        1 1NJ      0.180000
     56 H18        -3.8060   -1.6290   -2.2690 hn        1 1NJ      0.469300
     57 H19        -6.2100    0.0920   -2.1400 hx        1 1NJ      0.117700
     58 H20        -4.6460    0.4490   -0.3560 h1        1 1NJ      0.067700
     59 H21        -5.9830   -0.5770    0.3500 h1        1 1NJ      0.067700
     60 H22        -3.9700   -1.4750    0.8890 ho        1 1NJ      0.463000
     61 H23        -5.3610   -3.3350   -0.7480 hc        1 1NJ      0.056367
     62 H24        -6.7720   -4.1560   -1.5360 hc        1 1NJ      0.056367
     63 H25        -5.3590   -3.6550   -2.5400 hc        1 1NJ      0.056367
     64 H26        -8.6240   -2.4860   -1.0680 hc        1 1NJ      0.056367
     65 H27        -7.3770   -2.0840    0.1740 hc        1 1NJ      0.056367
     66 H28        -8.1160   -0.7620   -0.8420 hc        1 1NJ      0.056367
     67 H29        -7.7460   -0.9970   -3.5030 hc        1 1NJ      0.056367
     68 H30        -8.1800   -2.7400   -3.2830 hc        1 1NJ      0.056367
     69 H31        -6.6290   -2.3110   -4.0820 hc        1 1NJ      0.056367
     70 H123       -0.2620    4.7370   -1.7040 ho        1 1NJ      0.464000
     71 H492       -4.8480   -1.5560   -3.5770 hn        1 1NJ      0.469300
@<TRIPOS>BOND
     1    1    2 2   
     2    2    3 1   
     3    2   13 1   
     4    3    4 1   
     5    3   40 1   
     6    4    5 ar  
     7    4   12 ar  
     8    5    6 ar  
     9    5   41 1   
    10    6    7 ar  
    11    6   42 1   
    12    7    8 1   
    13    7   11 ar  
    14    8    9 1   
    15    8   10 2   
    16    9   43 1   
    17    9   44 1   
    18   10   45 1   
    19   11   12 ar  
    20   11   46 1   
    21   12   47 1   
    22   13   14 ar  
    23   13   20 ar  
    24   14   15 ar  
    25   15   16 1   
    26   15   18 ar  
    27   16   17 1   
    28   17   48 1   
    29   17   49 1   
    30   17   50 1   
    31   18   19 ar  
    32   18   51 1   
    33   19   20 ar  
    34   19   52 1   
    35   20   21 1   
    36   21   22 ar  
    37   21   24 ar  
    38   22   23 ar  
    39   22   53 1   
    40   23   29 ar  
    41   23   54 1   
    42   24   25 1   
    43   24   28 ar  
    44   25   26 2   
    45   25   27 1   
    46   27   70 1   
    47   28   29 ar  
    48   28   55 1   
    49   29   30 1   
    50   30   31 2   
    51   30   32 1   
    52   32   33 1   
    53   32   56 1   
    54   32   71 1   
    55   33   34 1   
    56   33   36 1   
    57   33   57 1   
    58   34   35 1   
    59   34   58 1   
    60   34   59 1   
    61   35   60 1   
    62   36   37 1   
    63   36   38 1   
    64   36   39 1   
    65   37   61 1   
    66   37   62 1   
    67   37   63 1   
    68   38   64 1   
    69   38   65 1   
    70   38   66 1   
    71   39   67 1   
    72   39   68 1   
    73   39   69 1   
@<TRIPOS>SUBSTRUCTURE
     1 1NJ         1 TEMP              0 ****  ****    0 ROOT
