@<TRIPOS>MOLECULE
1NJ
   69    71     1     0     0
SMALL
bcc


@<TRIPOS>ATOM
      1 O1         -2.1080   -0.7120   -2.3130 o         1 1NJ     -0.602100
      2 C2         -2.4000   -0.9730   -1.1320 c         1 1NJ      0.588600
      3 N3         -2.7230   -0.0380   -0.1680 n         1 1NJ     -0.456100
      4 C5         -2.5820    1.3500   -0.3040 ca        1 1NJ      0.085600
      5 C6         -2.7270    2.0130   -1.5410 ca        1 1NJ     -0.168000
      6 C8         -2.6520    3.4020   -1.6060 ca        1 1NJ     -0.089500
      7 C10        -2.4360    4.1570   -0.4520 ca        1 1NJ     -0.187900
      8 C11        -2.3810    5.6480   -0.5220 ce        1 1NJ      0.659800
      9 N12        -3.2140    6.3080    0.4170 nh        1 1NJ     -0.953800
     10 N15        -1.6610    6.2160   -1.4440 n2        1 1NJ     -0.836100
     11 C17        -2.2570    3.5040    0.7750 ca        1 1NJ     -0.089500
     12 C19        -2.3220    2.1220    0.8590 ca        1 1NJ     -0.168000
     13 C21        -2.4710   -2.4060   -0.6400 ca        1 1NJ      0.420800
     14 N22        -3.5970   -3.0830   -0.9670 nb        1 1NJ     -0.703000
     15 C23        -3.6900   -4.3590   -0.5240 ca        1 1NJ      0.610600
     16 O24        -4.7920   -5.1460   -0.8200 os        1 1NJ     -0.460100
     17 C25        -5.8740   -4.5210   -1.5050 c3        1 1NJ      0.128700
     18 C29        -2.6970   -5.0050    0.2560 ca        1 1NJ     -0.250300
     19 C31        -1.5580   -4.2790    0.5720 ca        1 1NJ     -0.052000
     20 C33        -1.4150   -2.9540    0.1190 cp        1 1NJ     -0.095300
     21 C34        -0.1720   -2.2360    0.4210 cp        1 1NJ     -0.016000
     22 C35         0.9380   -2.5150   -0.4010 ca        1 1NJ     -0.137000
     23 C37         2.1690   -1.9230   -0.1600 ca        1 1NJ     -0.128000
     24 C39        -0.0330   -1.3470    1.4950 ca        1 1NJ     -0.115600
     25 C40        -1.1820   -0.9100    2.3920 c         1 1NJ      0.898200
     26 O41        -2.2720   -1.5510    2.3590 o         1 1NJ     -0.820800
     27 O43        -1.0120    0.1240    3.0980 o         1 1NJ     -0.820800
     28 C44         1.2240   -0.7730    1.7480 ca        1 1NJ     -0.054000
     29 C46         2.3150   -1.0530    0.9290 ca        1 1NJ     -0.160600
     30 C47         3.6370   -0.4280    1.2060 c         1 1NJ      0.682700
     31 O48         4.2430   -0.5530    2.2880 o         1 1NJ     -0.612100
     32 N49         4.1690    0.3340    0.1770 n         1 1NJ     -0.581900
     33 C51         5.4930    0.9030    0.2290 c3        1 1NJ      0.074700
     34 C53         5.4430    2.4290    0.4810 c3        1 1NJ      0.118400
     35 O56         4.7390    3.1640   -0.4970 oh        1 1NJ     -0.606800
     36 C58         6.3670    0.5110   -0.9990 c3        1 1NJ     -0.060000
     37 C59         7.7320    1.1770   -0.8830 c3        1 1NJ     -0.091433
     38 C63         6.5710   -1.0000   -0.9940 c3        1 1NJ     -0.091433
     39 C67         5.7250    0.9210   -2.3140 c3        1 1NJ     -0.091433
     40 H1         -2.8390   -0.3790    0.7790 hn        1 1NJ      0.380500
     41 H2         -2.8850    1.4320   -2.4640 ha        1 1NJ      0.180500
     42 H3         -2.7630    3.9040   -2.5790 ha        1 1NJ      0.130500
     43 H4         -3.5480    5.7310    1.1550 hn        1 1NJ      0.388800
     44 H5         -2.9050    7.2030    0.7210 hn        1 1NJ      0.388800
     45 H6         -1.6590    7.2150   -1.4450 hn        1 1NJ      0.367400
     46 H7         -2.0350    4.0790    1.6870 ha        1 1NJ      0.130500
     47 H8         -2.1420    1.6160    1.8310 ha        1 1NJ      0.180500
     48 H9         -6.2750   -3.6630   -0.9140 h1        1 1NJ      0.043367
     49 H10        -5.5550   -4.1810   -2.5190 h1        1 1NJ      0.043367
     50 H11        -6.6340   -5.3400   -1.5820 h1        1 1NJ      0.043367
     51 H12        -2.8530   -6.0340    0.5990 ha        1 1NJ      0.147000
     52 H13        -0.7680   -4.7270    1.1930 ha        1 1NJ      0.145000
     53 H14         0.8210   -3.2040   -1.2500 ha        1 1NJ      0.128000
     54 H15         3.0260   -2.1440   -0.8110 ha        1 1NJ      0.119000
     55 H17         1.3180   -0.0850    2.6070 ha        1 1NJ      0.175000
     56 H18         3.6850    0.3820   -0.6880 hn        1 1NJ      0.315500
     57 H19         6.0130    0.4680    1.1410 h1        1 1NJ      0.082700
     58 H20         4.9910    2.6100    1.4950 h1        1 1NJ      0.049200
     59 H21         6.4810    2.8540    0.4640 h1        1 1NJ      0.049200
     60 H22         3.8070    2.9230   -0.4280 ho        1 1NJ      0.410000
     61 H23         8.1340    1.0710    0.1530 hc        1 1NJ      0.037033
     62 H24         8.4500    0.6970   -1.5920 hc        1 1NJ      0.037033
     63 H25         7.6650    2.2610   -1.1410 hc        1 1NJ      0.037033
     64 H26         5.5990   -1.5370   -1.1130 hc        1 1NJ      0.037033
     65 H27         7.2370   -1.2970   -1.8400 hc        1 1NJ      0.037033
     66 H28         7.0430   -1.3260   -0.0370 hc        1 1NJ      0.037033
     67 H29         5.4020    1.9900   -2.2740 hc        1 1NJ      0.037033
     68 H30         6.4590    0.8000   -3.1470 hc        1 1NJ      0.037033
     69 H31         4.8370    0.2850   -2.5450 hc        1 1NJ      0.037033
@<TRIPOS>BOND
     1    1    2 2   
     2    2    3 1   
     3    2   13 1   
     4    3    4 1   
     5    3   40 1   
     6    4    5 ar  
     7    4   12 ar  
     8    5    6 ar  
     9    5   41 1   
    10    6    7 ar  
    11    6   42 1   
    12    7    8 1   
    13    7   11 ar  
    14    8    9 1   
    15    8   10 2   
    16    9   43 1   
    17    9   44 1   
    18   10   45 1   
    19   11   12 ar  
    20   11   46 1   
    21   12   47 1   
    22   13   14 ar  
    23   13   20 ar  
    24   14   15 ar  
    25   15   16 1   
    26   15   18 ar  
    27   16   17 1   
    28   17   48 1   
    29   17   49 1   
    30   17   50 1   
    31   18   19 ar  
    32   18   51 1   
    33   19   20 ar  
    34   19   52 1   
    35   20   21 1   
    36   21   22 ar  
    37   21   24 ar  
    38   22   23 ar  
    39   22   53 1   
    40   23   29 ar  
    41   23   54 1   
    42   24   25 1   
    43   24   28 ar  
    44   25   26 1   
    45   25   27 1   
    46   28   29 ar  
    47   28   55 1   
    48   29   30 1   
    49   30   31 2   
    50   30   32 1   
    51   32   33 1   
    52   32   56 1   
    53   33   34 1   
    54   33   36 1   
    55   33   57 1   
    56   34   35 1   
    57   34   58 1   
    58   34   59 1   
    59   35   60 1   
    60   36   37 1   
    61   36   38 1   
    62   36   39 1   
    63   37   61 1   
    64   37   62 1   
    65   37   63 1   
    66   38   64 1   
    67   38   65 1   
    68   38   66 1   
    69   39   67 1   
    70   39   68 1   
    71   39   69 1   
@<TRIPOS>SUBSTRUCTURE
     1 1NJ         1 TEMP              0 ****  ****    0 ROOT
