@<TRIPOS>MOLECULE
1NJ
   72    74     1     0     0
SMALL
bcc


@<TRIPOS>ATOM
      1 O1          0.5680   -1.4800    1.1210 o         1 1NJ     -0.517500
      2 C2          0.4780   -0.7800    0.1220 c         1 1NJ      0.655100
      3 N3          0.0820    0.5720    3.2460 nh        1 1NJ     -0.839200
      4 C5          0.6300    1.0220    4.4070 ca        1 1NJ      0.263600
      5 C6          0.6640    2.4160    4.7170 ca        1 1NJ     -0.222500
      6 C8          1.1890    2.8570    5.9140 ca        1 1NJ     -0.029000
      7 C10         1.7030    1.9470    6.8510 ca        1 1NJ     -0.367900
      8 C11         2.3130    2.4130    8.1000 ce        1 1NJ      0.613800
      9 N12         1.2940    3.0740    9.0020 n4        1 1NJ     -0.828600
     10 N15         3.5050    2.3490    8.5550 n2        1 1NJ     -0.726100
     11 C17         1.6850    0.5720    6.5610 ca        1 1NJ     -0.029000
     12 C19         1.1610    0.1110    5.3710 ca        1 1NJ     -0.222500
     13 C21         1.2240   -0.8760   -1.1620 ca        1 1NJ      0.430800
     14 N22         2.5710   -0.9010   -1.0370 nb        1 1NJ     -0.697000
     15 C23         3.2960   -1.0040   -2.1810 ca        1 1NJ      0.676600
     16 O24         4.6600   -1.0340   -2.1730 os        1 1NJ     -0.417100
     17 C25         5.3380   -0.9770   -0.9110 c3        1 1NJ      0.117700
     18 C29         2.7050   -1.0870   -3.4810 ca        1 1NJ     -0.224300
     19 C31         1.3280   -1.0650   -3.5670 ca        1 1NJ     -0.043000
     20 C33         0.5420   -0.9540   -2.3940 cp        1 1NJ     -0.222300
     21 C34        -0.9070   -0.9360   -2.5010 cp        1 1NJ      0.096000
     22 C35        -1.5330   -1.7680   -3.4520 ca        1 1NJ     -0.129000
     23 C37        -2.9080   -1.7450   -3.6380 ca        1 1NJ     -0.060000
     24 C39        -1.7120   -0.0950   -1.7130 ca        1 1NJ     -0.166600
     25 C40        -1.1700    0.8090   -0.6810 c         1 1NJ      0.755200
     26 O41        -0.3590    0.3090    0.3200 os        1 1NJ     -0.475200
     27 O43        -1.4540    1.9880   -0.5010 o         1 1NJ     -0.516500
     28 C44        -3.0990   -0.0590   -1.9020 ca        1 1NJ      0.007000
     29 C46        -3.6990   -0.8730   -2.8730 ca        1 1NJ     -0.215600
     30 C47        -5.1570   -0.8020   -3.0020 c         1 1NJ      0.573700
     31 O48        -5.9770   -0.6190   -2.1110 o         1 1NJ     -0.418100
     32 N49        -5.7170   -0.9080   -4.4030 n4        1 1NJ     -0.670800
     33 C51        -6.7880   -1.9630   -4.5370 c3        1 1NJ      0.097500
     34 C53        -6.1360   -3.3640   -4.5180 c3        1 1NJ      0.107400
     35 O56        -5.0820   -3.4420   -5.4520 oh        1 1NJ     -0.624800
     36 C58        -7.6930   -1.6750   -5.7660 c3        1 1NJ     -0.069000
     37 C59        -6.8840   -1.3580   -7.0140 c3        1 1NJ     -0.109433
     38 C63        -8.5690   -2.8930   -6.0300 c3        1 1NJ     -0.109433
     39 C67        -8.6030   -0.4930   -5.4410 c3        1 1NJ     -0.109433
     40 H1         -0.1870    1.2120    2.5370 hn        1 1NJ      0.453300
     41 H2          0.2750    3.1470    3.9910 ha        1 1NJ      0.158500
     42 H3          1.2250    3.9400    6.1160 ha        1 1NJ      0.137500
     43 H4          1.7220    3.4920    9.8360 hn        1 1NJ      0.465800
     44 H5          0.8140    3.7990    8.4590 hn        1 1NJ      0.465800
     45 H6          4.2070    1.9320    7.9790 hn        1 1NJ      0.485400
     46 H7          2.0960   -0.1490    7.2870 ha        1 1NJ      0.137500
     47 H8          1.1570   -0.9710    5.1620 ha        1 1NJ      0.158500
     48 H9          5.1150   -0.0140   -0.3930 h1        1 1NJ      0.067367
     49 H10         6.4160   -1.0320   -1.2150 h1        1 1NJ      0.067367
     50 H11         5.0540   -1.8500   -0.2760 h1        1 1NJ      0.067367
     51 H12         3.3550   -1.1650   -4.3650 ha        1 1NJ      0.190000
     52 H13         0.8370   -1.1170   -4.5520 ha        1 1NJ      0.158000
     53 H14        -0.9170   -2.4640   -4.0490 ha        1 1NJ      0.175000
     54 H15        -3.3610   -2.4440   -4.3660 ha        1 1NJ      0.173000
     55 H17        -3.7160    0.6200   -1.2840 ha        1 1NJ      0.182000
     56 H18        -6.1260    0.0010   -4.6580 hn        1 1NJ      0.468300
     57 H19        -7.4410   -1.8870   -3.6110 hx        1 1NJ      0.124700
     58 H20        -5.6620   -3.5390   -3.5100 h1        1 1NJ      0.088700
     59 H21        -6.9240   -4.1430   -4.6830 h1        1 1NJ      0.088700
     60 H22        -5.3820   -3.9540   -6.2150 ho        1 1NJ      0.444000
     61 H23        -6.0500   -2.0870   -7.1510 hc        1 1NJ      0.057922
     62 H24        -6.4630   -0.3240   -6.9810 hc        1 1NJ      0.057922
     63 H25        -7.5480   -1.4180   -7.9130 hc        1 1NJ      0.057922
     64 H26        -9.0500   -3.2510   -5.0870 hc        1 1NJ      0.057922
     65 H27        -7.9710   -3.7210   -6.4820 hc        1 1NJ      0.057922
     66 H28        -9.3790   -2.6210   -6.7520 hc        1 1NJ      0.057922
     67 H29        -8.0250    0.4470   -5.2770 hc        1 1NJ      0.057922
     68 H30        -9.2990   -0.3140   -6.2990 hc        1 1NJ      0.057922
     69 H31        -9.2170   -0.7050   -4.5330 hc        1 1NJ      0.057922
     70 H32         0.1560   -0.3890    2.9970 hn        1 1NJ      0.453300
     71 H123        0.6140    2.3630    9.2860 hn        1 1NJ      0.465800
     72 H492       -4.9670   -1.1320   -5.0710 hn        1 1NJ      0.468300
@<TRIPOS>BOND
     1    1    2 2   
     2    2   13 1   
     3    2   26 1   
     4    3    4 1   
     5    3   40 1   
     6    3   70 1   
     7    4    5 ar  
     8    4   12 ar  
     9    5    6 ar  
    10    5   41 1   
    11    6    7 ar  
    12    6   42 1   
    13    7    8 1   
    14    7   11 ar  
    15    8    9 1   
    16    8   10 2   
    17    9   43 1   
    18    9   44 1   
    19    9   71 1   
    20   10   45 1   
    21   11   12 ar  
    22   11   46 1   
    23   12   47 1   
    24   13   14 ar  
    25   13   20 ar  
    26   14   15 ar  
    27   15   16 1   
    28   15   18 ar  
    29   16   17 1   
    30   17   48 1   
    31   17   49 1   
    32   17   50 1   
    33   18   19 ar  
    34   18   51 1   
    35   19   20 ar  
    36   19   52 1   
    37   20   21 1   
    38   21   22 ar  
    39   21   24 ar  
    40   22   23 ar  
    41   22   53 1   
    42   23   29 ar  
    43   23   54 1   
    44   24   25 1   
    45   24   28 ar  
    46   25   26 1   
    47   25   27 2   
    48   28   29 ar  
    49   28   55 1   
    50   29   30 1   
    51   30   31 2   
    52   30   32 1   
    53   32   33 1   
    54   32   56 1   
    55   32   72 1   
    56   33   34 1   
    57   33   36 1   
    58   33   57 1   
    59   34   35 1   
    60   34   58 1   
    61   34   59 1   
    62   35   60 1   
    63   36   37 1   
    64   36   38 1   
    65   36   39 1   
    66   37   61 1   
    67   37   62 1   
    68   37   63 1   
    69   38   64 1   
    70   38   65 1   
    71   38   66 1   
    72   39   67 1   
    73   39   68 1   
    74   39   69 1   
@<TRIPOS>SUBSTRUCTURE
     1 1NJ         1 TEMP              0 ****  ****    0 ROOT
