@<TRIPOS>MOLECULE
1NJ
   69    60     1     0     0
SMALL
bcc


@<TRIPOS>ATOM
      1 O1          1.8760   -0.9950   -0.5010 o         1 1NJ     -0.361000
      2 C2          2.1710   -2.0120   -1.1270 c1        1 1NJ      0.370000
      3 N3          3.0440   -1.9270   -2.2570 n3        1 1NJ     -0.311000
      4 C5          3.5650   -0.6680   -2.6500 c2        1 1NJ      0.112000
      5 C6          3.2740    0.4640   -1.9010 c2        1 1NJ     -0.179000
      6 C8          3.8290    1.6940   -2.2520 c1        1 1NJ     -0.096000
      7 C10         4.6730    1.7860   -3.3500 c1        1 1NJ     -0.160000
      8 C11         5.2270    3.1240   -3.7650 c2        1 1NJ      0.130000
      9 N12         6.4840    3.5450   -3.2850 n3        1 1NJ     -0.336000
     10 N15         4.5460    3.8890   -4.5690 n1        1 1NJ     -0.329000
     11 C17         4.9650    0.6460   -4.1030 c1        1 1NJ     -0.087000
     12 C19         4.4130   -0.5760   -3.7540 c1        1 1NJ     -0.169000
     13 C21         1.6420   -3.4250   -0.6360 c1        1 1NJ     -0.006000
     14 N22         2.1980   -4.5720   -1.1300 n1        1 1NJ     -0.177000
     15 C23         1.7780   -5.8200   -0.6520 c1        1 1NJ      0.116000
     16 O24         2.2950   -7.0410   -1.2570 os        1 1NJ     -0.214000
     17 C25         3.4200   -7.6070   -0.5610 c3        1 1NJ     -0.062000
     18 C29         0.7980   -5.8920    0.3250 c1        1 1NJ     -0.114500
     19 C31         0.2340   -4.7250    0.8260 c1        1 1NJ     -0.114500
     20 C33         0.6520   -3.4940    0.3490 c1        1 1NJ     -0.069000
     21 C34         0.0470   -2.2280    0.8960 c2        1 1NJ     -0.030000
     22 C35         0.5350   -1.6810    2.0610 c2        1 1NJ     -0.129000
     23 C37        -0.0180   -0.5160    2.5640 c1        1 1NJ     -0.102000
     24 C39        -0.9970   -1.6140    0.2270 c1        1 1NJ     -0.084000
     25 C40        -1.6510   -2.3140   -0.9870 c1        1 1NJ      0.363000
     26 O41        -2.5290   -3.2280   -0.8010 o         1 1NJ     -0.550000
     27 O43        -1.3800   -1.9200   -2.1750 o         1 1NJ     -0.550000
     28 C44        -1.5480   -0.4510    0.7300 c2        1 1NJ     -0.091000
     29 C46        -1.0560    0.0970    1.9000 c1        1 1NJ     -0.129000
     30 C47        -1.5870    1.4620    2.3970 c1        1 1NJ      0.353000
     31 O48        -1.0960    1.9840    3.3810 o         1 1NJ     -0.401000
     32 N49        -2.6960    2.1230    1.6900 n2        1 1NJ     -0.384000
     33 C51        -3.4380    3.1670    2.3380 c3        1 1NJ     -0.002000
     34 C53        -3.7870    2.7400    3.7100 c3        1 1NJ     -0.026000
     35 O56        -2.6290    2.7530    4.5130 oh        1 1NJ     -0.347000
     36 C58        -4.7360    3.4580    1.5370 c3        1 1NJ     -0.061000
     37 C59        -4.8240    4.9660    1.2330 c3        1 1NJ     -0.207667
     38 C63        -4.7120    2.6670    0.2260 c3        1 1NJ     -0.207667
     39 C67        -5.9700    3.0330    2.3700 c3        1 1NJ     -0.207667
     40 H1          3.3110   -2.6720   -2.6740 hn        1 1NJ      0.306000
     41 H2          2.6750    0.3980   -1.1220 ha        1 1NJ      0.167000
     42 H3          3.6110    2.4650   -1.7600 ha        1 1NJ      0.117000
     43 H4          6.9610    4.1950   -3.7440 hn        1 1NJ      0.186500
     44 H5          6.8020    3.2230   -2.4750 hn        1 1NJ      0.186500
     45 H6          3.7280    3.6140   -4.8830 DU        1 1NJ      0.149000
     46 H7          5.5150    0.7200   -4.9000 ha        1 1NJ      0.133000
     47 H8          4.6160   -1.3680   -4.2790 ha        1 1NJ      0.186000
     48 H9          3.3100   -8.6080   -0.5030 h1        1 1NJ      0.084667
     49 H10         4.2520   -7.3960   -1.0500 h1        1 1NJ      0.084667
     50 H11         3.4680   -7.2290    0.3480 h1        1 1NJ      0.084667
     51 H12         0.4500   -6.7690    0.6090 ha        1 1NJ      0.156000
     52 H13        -0.4520   -4.7710    1.5080 ha        1 1NJ      0.156000
     53 H14         1.2620   -2.1090    2.5260 ha        1 1NJ      0.133000
     54 H15         0.3220   -0.1360    3.3720 ha        1 1NJ      0.142000
     55 H17        -2.2700   -0.0250    0.2680 ha        1 1NJ      0.139000
     56 H18        -2.9100    1.8700    0.8160 hn        1 1NJ      0.233000
     57 H19        -2.8820    3.9920    2.3780 h1        1 1NJ      0.120000
     58 H20        -4.1510    1.8490    3.6870 h1        1 1NJ      0.080000
     59 H21        -4.4540    3.3570    4.0860 h1        1 1NJ      0.080000
     60 H22        -2.8030    2.3460    5.2950 ho        1 1NJ      0.230000
     61 H23        -5.5380    5.1280    0.5620 hc        1 1NJ      0.077222
     62 H24        -3.9630    5.2810    0.8780 hc        1 1NJ      0.077222
     63 H25        -5.0370    5.4570    2.0640 hc        1 1NJ      0.077222
     64 H26        -4.8090    1.6870    0.4250 hc        1 1NJ      0.077222
     65 H27        -5.4750    2.9680   -0.3650 hc        1 1NJ      0.077222
     66 H28        -3.8470    2.8260   -0.2420 hc        1 1NJ      0.077222
     67 H29        -5.9440    3.4720    3.2320 hc        1 1NJ      0.077222
     68 H30        -5.9600    2.0470    2.4990 hc        1 1NJ      0.077222
     69 H31        -6.8030    3.2970    1.8880 hc        1 1NJ      0.077222
@<TRIPOS>BOND
     1    1    2 1   
     2    2    3 1   
     3    3    4 1   
     4    3   40 1   
     5    4    5 1   
     6    4   12 1   
     7    5    6 1   
     8    5   41 1   
     9    6   42 1   
    10    7    8 1   
    11    7   11 1   
    12    8    9 1   
    13    8   10 1   
    14    9   43 1   
    15    9   44 1   
    16   11   46 1   
    17   12   47 1   
    18   13   20 1   
    19   14   15 1   
    20   15   16 1   
    21   16   17 1   
    22   17   48 1   
    23   17   49 1   
    24   17   50 1   
    25   18   19 1   
    26   18   51 1   
    27   19   52 1   
    28   20   21 1   
    29   21   22 1   
    30   21   24 1   
    31   22   23 1   
    32   22   53 1   
    33   23   54 1   
    34   24   28 1   
    35   25   26 1   
    36   25   27 1   
    37   28   29 1   
    38   28   55 1   
    39   30   31 1   
    40   32   33 1   
    41   32   56 1   
    42   33   34 1   
    43   33   36 1   
    44   33   57 1   
    45   34   35 1   
    46   34   58 1   
    47   34   59 1   
    48   35   60 1   
    49   36   37 1   
    50   36   38 1   
    51   36   39 1   
    52   37   61 1   
    53   37   62 1   
    54   37   63 1   
    55   38   64 1   
    56   38   65 1   
    57   38   66 1   
    58   39   67 1   
    59   39   68 1   
    60   39   69 1   
@<TRIPOS>SUBSTRUCTURE
     1 1NJ         1 TEMP              0 ****  ****    0 ROOT
