@<TRIPOS>MOLECULE
1NJ
   71    73     1     0     0
SMALL
bcc


@<TRIPOS>ATOM
      1 O1          1.0430   -1.8810   -0.9460 o         1 1NJ     -0.578100
      2 C2          1.4450   -0.7590   -0.5970 c         1 1NJ      0.585600
      3 N3          1.0990   -0.1380    0.5900 n         1 1NJ     -0.458100
      4 C5          0.0260   -0.5080    1.4170 ca        1 1NJ      0.074600
      5 C6         -0.5180    0.4590    2.2980 ca        1 1NJ     -0.162500
      6 C8         -1.6510    0.1680    3.0470 ca        1 1NJ     -0.091000
      7 C10        -2.2640   -1.0840    2.9460 ca        1 1NJ     -0.225900
      8 C11        -3.5270   -1.3910    3.6860 ce        1 1NJ      0.605800
      9 N12        -4.6030   -0.5170    3.3550 nh        1 1NJ     -0.894800
     10 N15        -3.6890   -2.3970    4.4870 n2        1 1NJ     -0.795100
     11 C17        -1.6900   -2.0670    2.1370 ca        1 1NJ     -0.091000
     12 C19        -0.5540   -1.7950    1.3830 ca        1 1NJ     -0.162500
     13 C21         2.3330    0.0590   -1.5150 ca        1 1NJ      0.423800
     14 N22         3.6460    0.1000   -1.2140 nb        1 1NJ     -0.714000
     15 C23         4.4490    0.7910   -2.0670 ca        1 1NJ      0.662600
     16 O24         5.8010    0.8830   -1.8690 os        1 1NJ     -0.427100
     17 C25         6.3710    0.1880   -0.7550 c3        1 1NJ      0.119700
     18 C29         3.9650    1.4800   -3.2180 ca        1 1NJ     -0.241300
     19 C31         2.6070    1.4400   -3.4780 ca        1 1NJ     -0.019000
     20 C33         1.7500    0.7150   -2.6240 cp        1 1NJ     -0.236300
     21 C34         0.3150    0.6250   -2.8830 cp        1 1NJ      0.097000
     22 C35        -0.2440   -0.6450   -3.1330 ca        1 1NJ     -0.113000
     23 C37        -1.6140   -0.8170   -3.2610 ca        1 1NJ     -0.067000
     24 C39        -0.5420    1.7400   -2.8500 ca        1 1NJ     -0.117600
     25 C40        -0.0390    3.1180   -2.6910 c         1 1NJ      0.647700
     26 O41         0.9000    3.6750   -3.2610 o         1 1NJ     -0.512000
     27 O43        -0.7630    3.8650   -1.8080 oh        1 1NJ     -0.604100
     28 C44        -1.9270    1.5700   -2.9650 ca        1 1NJ     -0.004000
     29 C46        -2.4710    0.2900   -3.1390 ca        1 1NJ     -0.210600
     30 C47        -3.9300    0.1840   -3.1840 c         1 1NJ      0.574700
     31 O48        -4.7310    1.0380   -3.5470 o         1 1NJ     -0.432100
     32 N49        -4.5240   -1.1210   -2.7030 n4        1 1NJ     -0.673800
     33 C51        -5.6700   -0.9370   -1.7350 c3        1 1NJ      0.129500
     34 C53        -5.1200   -0.6380   -0.3230 c3        1 1NJ      0.118400
     35 O56        -4.1290   -1.5980   -0.0110 oh        1 1NJ     -0.639800
     36 C58        -6.6520   -2.1390   -1.8050 c3        1 1NJ     -0.063000
     37 C59        -5.9410   -3.4620   -1.5780 c3        1 1NJ     -0.108767
     38 C63        -7.7230   -1.9520   -0.7360 c3        1 1NJ     -0.108767
     39 C67        -7.3350   -2.1500   -3.1680 c3        1 1NJ     -0.108767
     40 H1          1.5880    0.6950    0.8410 hn        1 1NJ      0.338500
     41 H2         -0.0510    1.4520    2.3970 ha        1 1NJ      0.161500
     42 H3         -2.0580    0.9330    3.7270 ha        1 1NJ      0.144500
     43 H4         -5.4220   -0.6610    3.9160 hn        1 1NJ      0.389300
     44 H5         -0.3950    4.7650   -1.7660 ho        1 1NJ      0.464000
     45 H6         -2.8970   -2.9960    4.5770 hn        1 1NJ      0.409400
     46 H7         -2.1390   -3.0730    2.0880 ha        1 1NJ      0.144500
     47 H8         -0.1170   -2.5930    0.7590 ha        1 1NJ      0.161500
     48 H9          6.1840   -0.9080   -0.8400 h1        1 1NJ      0.062033
     49 H10         5.9630    0.5880    0.2040 h1        1 1NJ      0.062033
     50 H11         7.4620    0.4210   -0.8560 h1        1 1NJ      0.062033
     51 H12         4.6710    2.0270   -3.8590 ha        1 1NJ      0.182000
     52 H13         2.1890    1.9860   -4.3410 ha        1 1NJ      0.174000
     53 H14         0.4280   -1.5220   -3.1920 ha        1 1NJ      0.195000
     54 H15        -2.0000   -1.8270   -3.4710 ha        1 1NJ      0.141000
     55 H17        -2.5900    2.4530   -2.9020 ha        1 1NJ      0.180000
     56 H18        -4.8670   -1.6430   -3.5180 hn        1 1NJ      0.469300
     57 H19        -6.2420   -0.0160   -2.0700 hx        1 1NJ      0.117700
     58 H20        -4.6590    0.3890   -0.3140 h1        1 1NJ      0.067700
     59 H21        -5.9600   -0.6630    0.4200 h1        1 1NJ      0.067700
     60 H22        -3.9180   -1.5100    0.9320 ho        1 1NJ      0.463000
     61 H23        -6.6980   -4.2710   -1.4280 hc        1 1NJ      0.056367
     62 H24        -5.2940   -3.4130   -0.6670 hc        1 1NJ      0.056367
     63 H25        -5.3120   -3.7460   -2.4570 hc        1 1NJ      0.056367
     64 H26        -7.3230   -2.2010    0.2770 hc        1 1NJ      0.056367
     65 H27        -8.1080   -0.9040   -0.7360 hc        1 1NJ      0.056367
     66 H28        -8.5800   -2.6400   -0.9420 hc        1 1NJ      0.056367
     67 H29        -8.1650   -2.9010   -3.1610 hc        1 1NJ      0.056367
     68 H30        -7.7730   -1.1500   -3.4020 hc        1 1NJ      0.056367
     69 H31        -6.6370   -2.4440   -3.9880 hc        1 1NJ      0.056367
     70 H123       -4.3120    0.4390    3.3870 hn        1 1NJ      0.389300
     71 H492       -3.8020   -1.6830   -2.2270 hn        1 1NJ      0.469300
@<TRIPOS>BOND
     1    1    2 2   
     2    2    3 1   
     3    2   13 1   
     4    3    4 1   
     5    3   40 1   
     6    4    5 ar  
     7    4   12 ar  
     8    5    6 ar  
     9    5   41 1   
    10    6    7 ar  
    11    6   42 1   
    12    7    8 1   
    13    7   11 ar  
    14    8    9 1   
    15    8   10 2   
    16    9   43 1   
    17    9   70 1   
    18   10   45 1   
    19   11   12 ar  
    20   11   46 1   
    21   12   47 1   
    22   13   14 ar  
    23   13   20 ar  
    24   14   15 ar  
    25   15   16 1   
    26   15   18 ar  
    27   16   17 1   
    28   17   48 1   
    29   17   49 1   
    30   17   50 1   
    31   18   19 ar  
    32   18   51 1   
    33   19   20 ar  
    34   19   52 1   
    35   20   21 1   
    36   21   22 ar  
    37   21   24 ar  
    38   22   23 ar  
    39   22   53 1   
    40   23   29 ar  
    41   23   54 1   
    42   24   25 1   
    43   24   28 ar  
    44   25   26 2   
    45   25   27 1   
    46   27   44 1   
    47   28   29 ar  
    48   28   55 1   
    49   29   30 1   
    50   30   31 2   
    51   30   32 1   
    52   32   33 1   
    53   32   56 1   
    54   32   71 1   
    55   33   34 1   
    56   33   36 1   
    57   33   57 1   
    58   34   35 1   
    59   34   58 1   
    60   34   59 1   
    61   35   60 1   
    62   36   37 1   
    63   36   38 1   
    64   36   39 1   
    65   37   61 1   
    66   37   62 1   
    67   37   63 1   
    68   38   64 1   
    69   38   65 1   
    70   38   66 1   
    71   39   67 1   
    72   39   68 1   
    73   39   69 1   
@<TRIPOS>SUBSTRUCTURE
     1 1NJ         1 TEMP              0 ****  ****    0 ROOT
