@<TRIPOS>MOLECULE
1NK
   72    75     1     0     0
SMALL
bcc


@<TRIPOS>ATOM
      1 C1          0.0120    0.3320    0.0340 c3        1 1NK     -0.106767
      2 C2          1.4690    0.3410    0.4630 c3        1 1NK     -0.061000
      3 C3          1.5700    0.7670    1.9240 c3        1 1NK     -0.106767
      4 C4          2.0460   -1.0650    0.3370 c3        1 1NK     -0.106767
      5 C5          2.3210    1.3010   -0.4110 c3        1 1NK      0.124500
      6 C6          2.3730    0.9060   -1.9030 c3        1 1NK      0.106400
      7 O7          1.2420    1.4480   -2.5660 oh        1 1NK     -0.627800
      8 N8          1.8880    2.7300   -0.2640 n4        1 1NK     -0.673800
      9 C9          2.5980    3.5120    0.8440 c         1 1NK      0.589700
     10 O10         3.7320    3.1360    1.1070 o         1 1NK     -0.456100
     11 C11         1.8110    4.5840    1.4310 ca        1 1NK     -0.227600
     12 C12         0.7640    5.2330    0.7480 ca        1 1NK     -0.132000
     13 C13         0.0670    6.2510    1.3750 ca        1 1NK     -0.112000
     14 C14         0.3930    6.6470    2.6900 cp        1 1NK      0.045000
     15 C15         1.4400    6.0130    3.3660 ca        1 1NK     -0.113600
     16 C16         2.1480    4.9860    2.7330 ca        1 1NK     -0.018000
     17 C17         1.8710    6.3830    4.7960 c         1 1NK      0.924200
     18 O18         1.4750    5.6230    5.7100 o         1 1NK     -0.788300
     19 O19         2.6140    7.3930    4.9180 o         1 1NK     -0.788300
     20 C20        -0.3850    7.7250    3.3040 cp        1 1NK     -0.186300
     21 C21        -1.4280    7.4320    4.2000 ca        1 1NK     -0.034000
     22 C22        -2.1740    8.4660    4.7460 ca        1 1NK     -0.250300
     23 C23        -1.8320    9.7960    4.3780 ca        1 1NK      0.636600
     24 N24        -0.8130   10.1130    3.5380 nb        1 1NK     -0.698000
     25 C25        -0.1120    9.0810    3.0230 ca        1 1NK      0.427800
     26 C26         1.0440    9.4280    2.1020 c         1 1NK      0.577600
     27 O27         0.8380    9.7960    0.9320 o         1 1NK     -0.593100
     28 N28         2.2810    9.2730    2.6920 n         1 1NK     -0.454100
     29 C29         3.5260    9.4350    2.0730 ca        1 1NK      0.096600
     30 C30         4.6820    8.9830    2.8020 ca        1 1NK     -0.162000
     31 C31         5.9370    9.1210    2.2720 ca        1 1NK     -0.091000
     32 C32         6.1400    9.6950    0.9910 ca        1 1NK     -0.205300
     33 C33         5.0050   10.1460    0.2700 ca        1 1NK      0.036000
     34 C34         3.7070   10.0110    0.8210 ca        1 1NK     -0.192000
     35 C35         5.1970   10.7340   -1.0120 ca        1 1NK     -0.285300
     36 C36         6.4810   10.8310   -1.5090 ca        1 1NK      0.422200
     37 N37         7.5960   10.3960   -0.8640 nb        1 1NK     -0.758000
     38 C38         7.4470    9.8560    0.3690 ca        1 1NK      0.655200
     39 N39         8.5980    9.5060    1.0880 nh        1 1NK     -0.930500
     40 O40        -2.6260   10.7700    4.9450 os        1 1NK     -0.446100
     41 C41        -2.2920   12.1330    4.6810 c3        1 1NK      0.123700
     42 H1         -0.5210    1.2550    0.3680 hc        1 1NK      0.054367
     43 H2         -0.5080   -0.5430    0.4980 hc        1 1NK      0.054367
     44 H3         -0.0730    0.2480   -1.0770 hc        1 1NK      0.054367
     45 H4          2.6400    0.8590    2.2330 hc        1 1NK      0.054367
     46 H5          1.0780    0.0020    2.5740 hc        1 1NK      0.054367
     47 H6          1.0570    1.7420    2.1080 hc        1 1NK      0.054367
     48 H7          1.6590   -1.7030    1.1700 hc        1 1NK      0.054367
     49 H8          1.7370   -1.5420   -0.6250 hc        1 1NK      0.054367
     50 H9          3.1600   -1.0470    0.3980 hc        1 1NK      0.054367
     51 H10         3.3900    1.2370   -0.0280 hx        1 1NK      0.123700
     52 H11         2.3960   -0.2110   -1.9910 h1        1 1NK      0.063200
     53 H12         3.3060    1.3310   -2.3680 h1        1 1NK      0.063200
     54 H13         1.1780    1.0150   -3.4270 ho        1 1NK      0.439000
     55 H14         2.0540    3.2170   -1.1530 hn        1 1NK      0.459800
     56 H15         0.5080    4.9820   -0.2920 ha        1 1NK      0.112000
     57 H16        -0.7400    6.7750    0.8380 ha        1 1NK      0.156000
     58 H17         2.9750    4.4940    3.2740 ha        1 1NK      0.170000
     59 H19        -1.6340    6.3870    4.4810 ha        1 1NK      0.157000
     60 H20        -2.9920    8.2890    5.4550 ha        1 1NK      0.163000
     61 H21         2.3080    8.8720    3.6230 hn        1 1NK      0.385500
     62 H22         4.5380    8.5190    3.7970 ha        1 1NK      0.180000
     63 H23         6.7950    8.7820    2.8740 ha        1 1NK      0.129000
     64 H24         2.8510   10.3790    0.2320 ha        1 1NK      0.169000
     65 H25         4.3320   11.1010   -1.5770 ha        1 1NK      0.143000
     66 H26         6.6830   11.2780   -2.4990 h4        1 1NK      0.012100
     67 H27         9.4500    9.4940    0.5710 hn        1 1NK      0.403300
     68 H28         8.4840    8.7300    1.6990 hn        1 1NK      0.403300
     69 H29        -2.3820   12.3560    3.5910 h1        1 1NK      0.052700
     70 H30        -3.0610   12.6960    5.2700 h1        1 1NK      0.052700
     71 H31        -1.2620   12.3640    5.0460 h1        1 1NK      0.052700
     72 H82         0.8770    2.7510   -0.0850 hn        1 1NK      0.459800
@<TRIPOS>BOND
     1    1    2 1   
     2    1   42 1   
     3    1   43 1   
     4    1   44 1   
     5    2    3 1   
     6    2    4 1   
     7    2    5 1   
     8    3   45 1   
     9    3   46 1   
    10    3   47 1   
    11    4   48 1   
    12    4   49 1   
    13    4   50 1   
    14    5    6 1   
    15    5    8 1   
    16    5   51 1   
    17    6    7 1   
    18    6   52 1   
    19    6   53 1   
    20    7   54 1   
    21    8    9 1   
    22    8   55 1   
    23    8   72 1   
    24    9   10 2   
    25    9   11 1   
    26   11   12 ar  
    27   11   16 ar  
    28   12   13 ar  
    29   12   56 1   
    30   13   14 ar  
    31   13   57 1   
    32   14   15 ar  
    33   14   20 1   
    34   15   16 ar  
    35   15   17 1   
    36   16   58 1   
    37   17   18 1   
    38   17   19 1   
    39   20   21 ar  
    40   20   25 ar  
    41   21   22 ar  
    42   21   59 1   
    43   22   23 ar  
    44   22   60 1   
    45   23   24 ar  
    46   23   40 1   
    47   24   25 ar  
    48   25   26 1   
    49   26   27 2   
    50   26   28 1   
    51   28   29 1   
    52   28   61 1   
    53   29   30 ar  
    54   29   34 ar  
    55   30   31 ar  
    56   30   62 1   
    57   31   32 ar  
    58   31   63 1   
    59   32   33 ar  
    60   32   38 ar  
    61   33   34 ar  
    62   33   35 ar  
    63   34   64 1   
    64   35   36 ar  
    65   35   65 1   
    66   36   37 ar  
    67   36   66 1   
    68   37   38 ar  
    69   38   39 1   
    70   39   67 1   
    71   39   68 1   
    72   40   41 1   
    73   41   69 1   
    74   41   70 1   
    75   41   71 1   
@<TRIPOS>SUBSTRUCTURE
     1 1NK         1 TEMP              0 ****  ****    0 ROOT
