@<TRIPOS>MOLECULE
1NK
   71    63     1     0     0
SMALL
bcc


@<TRIPOS>ATOM
      1 C1         -0.9370   -6.8490    0.6740 c3        1 1NK     -0.208000
      2 C2          0.4700   -6.6400   -0.0240 c3        1 1NK     -0.073000
      3 C3          1.5520   -6.4780    1.0500 c3        1 1NK     -0.208000
      4 C4          0.7910   -7.8300   -0.8870 c3        1 1NK     -0.208000
      5 C5          0.4280   -5.4080   -0.8790 c3        1 1NK     -0.021000
      6 C6         -0.4380   -5.6600   -2.0740 c3        1 1NK     -0.020000
      7 O7         -0.1470   -4.6600   -3.1070 oh        1 1NK     -0.334000
      8 N8         -0.1200   -4.2850   -0.1030 n         1 1NK     -0.378000
      9 C9          0.5880   -3.0560   -0.0380 c2        1 1NK      0.344000
     10 O10         1.7460   -3.0080   -0.3890 o         1 1NK     -0.356000
     11 C11        -0.0780   -1.8190    0.5890 c2        1 1NK     -0.133000
     12 C12        -1.2950   -1.3550    0.0900 c2        1 1NK     -0.132000
     13 C13        -1.8810   -0.2250    0.6340 c1        1 1NK     -0.127000
     14 C14        -1.2530    0.4500    1.6830 c1        1 1NK     -0.036000
     15 C15        -0.0330   -0.0160    2.1820 c1        1 1NK     -0.082000
     16 C16         0.5510   -1.1460    1.6360 c2        1 1NK     -0.065000
     17 C17         0.6410    0.7020    3.3270 c1        1 1NK      0.365000
     18 O18         1.7930    1.1770    3.1720 o         1 1NK     -0.549000
     19 O19         0.1260    0.6800    4.4650 o         1 1NK     -0.549000
     20 C20        -1.9180    1.7070    2.3050 c1        1 1NK     -0.068000
     21 C21        -2.8390    1.5720    3.2950 c1        1 1NK     -0.114000
     22 C22        -3.4380    2.6930    3.8350 c1        1 1NK     -0.114000
     23 C23        -3.0960    3.9690    3.3620 c1        1 1NK      0.115000
     24 N24        -2.1760    4.1040    2.3720 n1        1 1NK     -0.177000
     25 C25        -1.5780    2.9950    1.8320 c1        1 1NK     -0.006000
     26 C26        -0.6450    3.1420    0.6910 c2        1 1NK      0.372000
     27 O27        -0.2520    2.1360    0.0810 o         1 1NK     -0.366000
     28 N28        -0.2960    4.4900    0.1960 n         1 1NK     -0.311000
     29 C29         0.5070    4.6330   -1.0130 c2        1 1NK      0.113000
     30 C30         0.2120    4.0170   -2.2220 c2        1 1NK     -0.161000
     31 C31         1.1500    4.0240   -3.2570 c1        1 1NK     -0.098000
     32 C32         2.4080    4.6610   -3.0720 c1        1 1NK     -0.135000
     33 C33         2.6970    5.2680   -1.8820 c1        1 1NK      0.032000
     34 C34         1.7420    5.2610   -0.8310 c1        1 1NK     -0.183000
     35 C35         3.9370    5.8960   -1.7040 c1        1 1NK     -0.196000
     36 C36         4.8730    5.9010   -2.7420 c1        1 1NK     -0.061000
     37 N37         4.5790    5.2870   -3.9420 n1        1 1NK     -0.233000
     38 C38         3.3640    4.6690   -4.1220 c1        1 1NK      0.115000
     39 N39         3.2570    4.3530   -5.5510 n2        1 1NK     -0.318000
     40 O40        -3.7380    5.1130    3.8870 os        1 1NK     -0.215000
     41 C41        -5.0650    5.2020    3.5660 c3        1 1NK     -0.062000
     42 H1         -1.3260   -5.9860    0.8790 hc        1 1NK      0.076667
     43 H2         -1.5380   -7.3440    0.0670 hc        1 1NK      0.076667
     44 H3         -0.8110   -7.3860    1.5500 hc        1 1NK      0.076667
     45 H4          2.3890   -6.1200    0.6280 hc        1 1NK      0.076667
     46 H5          1.7420   -7.3560    1.4650 hc        1 1NK      0.076667
     47 H6          1.2430   -5.8590    1.7310 hc        1 1NK      0.076667
     48 H7          1.1500   -8.5450   -0.3350 hc        1 1NK      0.076667
     49 H8         -0.0400   -8.1450   -1.3420 hc        1 1NK      0.076667
     50 H9          1.4950   -7.5580   -1.6010 hc        1 1NK      0.076667
     51 H10         1.3420   -5.1860   -1.1780 h1        1 1NK      0.140000
     52 H11        -0.2610   -6.5340   -2.4180 h1        1 1NK      0.080000
     53 H12        -1.3580   -5.5990   -1.8200 h1        1 1NK      0.080000
     54 H13        -0.6000   -4.8640   -3.8610 ho        1 1NK      0.213000
     55 H14        -0.9720   -4.3660    0.3140 hn        1 1NK      0.212000
     56 H15        -1.7400   -1.8350   -0.6210 ha        1 1NK      0.123000
     57 H16        -2.7960    0.0710    0.3170 ha        1 1NK      0.131000
     58 H17         1.4180   -1.4030    1.9040 ha        1 1NK      0.159000
     59 H19        -3.0750    0.6450    3.6510 ha        1 1NK      0.156000
     60 H20        -4.1060    2.5970    4.5530 ha        1 1NK      0.156000
     61 H21        -0.6670    5.2580    0.6130 hn        1 1NK      0.307000
     62 H22        -0.6610    3.6190   -2.3620 ha        1 1NK      0.167000
     63 H23         0.9370    3.5830   -4.1240 ha        1 1NK      0.121000
     64 H24         1.9170    5.7660   -0.0060 ha        1 1NK      0.188000
     65 H25         4.1490    6.3360   -0.8490 ha        1 1NK      0.150000
     66 H26         5.7230    6.3320   -2.6190 ha        1 1NK      0.144000
     67 H27         2.3930    4.1160   -5.9320 hn        1 1NK      0.184500
     68 H28         4.0120    4.4390   -6.1100 hn        1 1NK      0.184500
     69 H29        -5.5380    4.4070    3.9060 h1        1 1NK      0.084333
     70 H30        -5.4400    5.9950    3.9680 h1        1 1NK      0.084333
     71 H31        -5.1700    5.2530    2.5500 h1        1 1NK      0.084333
@<TRIPOS>BOND
     1    1    2 1   
     2    1   42 1   
     3    1   43 1   
     4    1   44 1   
     5    2    3 1   
     6    2    4 1   
     7    2    5 1   
     8    3   45 1   
     9    3   46 1   
    10    3   47 1   
    11    4   48 1   
    12    4   49 1   
    13    4   50 1   
    14    5    6 1   
    15    5    8 1   
    16    5   51 1   
    17    6    7 1   
    18    6   52 1   
    19    6   53 1   
    20    7   54 1   
    21    8    9 1   
    22    8   55 1   
    23    9   10 1   
    24    9   11 1   
    25   11   12 1   
    26   11   16 1   
    27   12   13 1   
    28   12   56 1   
    29   13   57 1   
    30   14   15 1   
    31   15   16 1   
    32   16   58 1   
    33   17   18 1   
    34   17   19 1   
    35   20   25 1   
    36   21   22 1   
    37   21   59 1   
    38   22   60 1   
    39   23   24 1   
    40   23   40 1   
    41   25   26 1   
    42   26   27 1   
    43   26   28 1   
    44   28   29 1   
    45   28   61 1   
    46   29   30 1   
    47   29   34 1   
    48   30   31 1   
    49   30   62 1   
    50   31   63 1   
    51   32   33 1   
    52   32   38 1   
    53   33   35 1   
    54   34   64 1   
    55   35   65 1   
    56   36   37 1   
    57   36   66 1   
    58   39   67 1   
    59   39   68 1   
    60   40   41 1   
    61   41   69 1   
    62   41   70 1   
    63   41   71 1   
@<TRIPOS>SUBSTRUCTURE
     1 1NK         1 TEMP              0 ****  ****    0 ROOT
