@<TRIPOS>MOLECULE
1NK
   71    74     1     0     0
SMALL
bcc


@<TRIPOS>ATOM
      1 C1          7.1490   -0.6440   -0.2980 c3        1 1NK     -0.089433
      2 C2          6.9060    0.5050    0.6680 c3        1 1NK     -0.049000
      3 C3          6.8680   -0.0420    2.0910 c3        1 1NK     -0.089433
      4 C4          8.0620    1.4920    0.5640 c3        1 1NK     -0.089433
      5 C5          5.5640    1.2410    0.3880 c3        1 1NK      0.109700
      6 C6          5.6240    2.1880   -0.8350 c3        1 1NK      0.102400
      7 O7          5.8030    1.4350   -2.0220 oh        1 1NK     -0.606800
      8 N8          4.4480    0.3320    0.3080 n         1 1NK     -0.560900
      9 C9          3.2000    0.6550    0.8240 c         1 1NK      0.674700
     10 O10         3.0560    1.6650    1.5450 o         1 1NK     -0.617100
     11 C11         2.0830   -0.2820    0.5230 ca        1 1NK     -0.145600
     12 C12         1.9240   -0.8360   -0.7540 ca        1 1NK     -0.135000
     13 C13         0.8720   -1.7090   -1.0000 ca        1 1NK     -0.126000
     14 C14        -0.0340   -2.0430    0.0220 cp        1 1NK     -0.036000
     15 C15         0.1110   -1.4740    1.2940 ca        1 1NK     -0.103600
     16 C16         1.1730   -0.5930    1.5340 ca        1 1NK     -0.063000
     17 C17        -0.8550   -1.7700    2.4360 c         1 1NK      0.916200
     18 O18        -0.5420   -2.6650    3.2600 o         1 1NK     -0.815300
     19 O19        -1.9150   -1.0760    2.4920 o         1 1NK     -0.815300
     20 C20        -1.0920   -3.0120   -0.2720 cp        1 1NK     -0.133300
     21 C21        -0.9320   -4.3560    0.1160 ca        1 1NK     -0.041000
     22 C22        -1.9090   -5.2880   -0.2020 ca        1 1NK     -0.251300
     23 C23        -3.0520   -4.8290   -0.9080 ca        1 1NK      0.612600
     24 N24        -3.2550   -3.5400   -1.2710 nb        1 1NK     -0.702000
     25 C25        -2.2800   -2.6590   -0.9460 ca        1 1NK      0.409800
     26 C26        -2.5300   -1.2120   -1.3290 c         1 1NK      0.585600
     27 O27        -2.5690   -0.8600   -2.5220 o         1 1NK     -0.599100
     28 N28        -2.7190   -0.3810   -0.2420 n         1 1NK     -0.455100
     29 C29        -2.9050    1.0030   -0.2740 ca        1 1NK      0.111600
     30 C30        -2.8250    1.7030    0.9820 ca        1 1NK     -0.152000
     31 C31        -3.0120    3.0580    1.0390 ca        1 1NK     -0.097000
     32 C32        -3.2840    3.8160   -0.1290 ca        1 1NK     -0.201300
     33 C33        -3.3780    3.1310   -1.3670 ca        1 1NK      0.035000
     34 C34        -3.1850    1.7300   -1.4280 ca        1 1NK     -0.201000
     35 C35        -3.6690    3.8810   -2.5420 ca        1 1NK     -0.276300
     36 C36        -3.8330    5.2470   -2.4330 ca        1 1NK      0.408200
     37 N37        -3.7250    5.9490   -1.2720 nb        1 1NK     -0.764000
     38 C38        -3.4700    5.2600   -0.1370 ca        1 1NK      0.645200
     39 N39        -3.4450    5.9610    1.0830 nh        1 1NK     -0.923500
     40 O40        -3.9750   -5.8160   -1.2110 os        1 1NK     -0.457100
     41 C41        -5.1880   -5.4050   -1.8390 c3        1 1NK      0.127700
     42 H1          8.2020   -1.0040   -0.1990 hc        1 1NK      0.036589
     43 H2          6.4700   -1.5020   -0.0750 hc        1 1NK      0.036589
     44 H3          6.9820   -0.3140   -1.3510 hc        1 1NK      0.036589
     45 H4          7.8230   -0.5740    2.3190 hc        1 1NK      0.036589
     46 H5          6.7400    0.7900    2.8250 hc        1 1NK      0.036589
     47 H6          6.0250   -0.7610    2.2190 hc        1 1NK      0.036589
     48 H7          8.2580    1.7540   -0.5030 hc        1 1NK      0.036589
     49 H8          7.8370    2.4240    1.1360 hc        1 1NK      0.036589
     50 H9          8.9890    1.0340    0.9870 hc        1 1NK      0.036589
     51 H10         5.3800    1.9260    1.2760 h1        1 1NK      0.085700
     52 H11         4.6640    2.7720   -0.8860 h1        1 1NK      0.032200
     53 H12         6.4740    2.9130   -0.7220 h1        1 1NK      0.032200
     54 H13         5.5340    2.0030   -2.7520 ho        1 1NK      0.397000
     55 H14         4.5130   -0.3840   -0.3780 hn        1 1NK      0.314500
     56 H15         2.6090   -0.5730   -1.5730 ha        1 1NK      0.120000
     57 H16         0.7410   -2.1390   -2.0040 ha        1 1NK      0.130000
     58 H17         1.2840   -0.1410    2.5330 ha        1 1NK      0.159000
     59 H19        -0.0420   -4.6510    0.6940 ha        1 1NK      0.161000
     60 H20        -1.8310   -6.3430    0.0870 ha        1 1NK      0.152000
     61 H21        -2.5510   -0.7750    0.6820 hn        1 1NK      0.392500
     62 H22        -2.5980    1.1230    1.9000 ha        1 1NK      0.192000
     63 H23        -2.9540    3.5490    2.0220 ha        1 1NK      0.127000
     64 H24        -3.2540    1.2350   -2.4100 ha        1 1NK      0.167000
     65 H25        -3.7540    3.3670   -3.5070 ha        1 1NK      0.139000
     66 H26        -4.0590    5.8720   -3.3150 h4        1 1NK      0.003100
     67 H27        -2.7960    5.5880    1.7410 hn        1 1NK      0.394800
     68 H28        -3.3900    6.9530    1.0000 hn        1 1NK      0.394800
     69 H29        -4.9820   -4.9560   -2.8390 h1        1 1NK      0.044700
     70 H30        -5.7570   -6.3640   -1.9430 h1        1 1NK      0.044700
     71 H31        -5.7430   -4.6830   -1.1930 h1        1 1NK      0.044700
@<TRIPOS>BOND
     1    1    2 1   
     2    1   42 1   
     3    1   43 1   
     4    1   44 1   
     5    2    3 1   
     6    2    4 1   
     7    2    5 1   
     8    3   45 1   
     9    3   46 1   
    10    3   47 1   
    11    4   48 1   
    12    4   49 1   
    13    4   50 1   
    14    5    6 1   
    15    5    8 1   
    16    5   51 1   
    17    6    7 1   
    18    6   52 1   
    19    6   53 1   
    20    7   54 1   
    21    8    9 1   
    22    8   55 1   
    23    9   10 2   
    24    9   11 1   
    25   11   12 ar  
    26   11   16 ar  
    27   12   13 ar  
    28   12   56 1   
    29   13   14 ar  
    30   13   57 1   
    31   14   15 ar  
    32   14   20 1   
    33   15   16 ar  
    34   15   17 1   
    35   16   58 1   
    36   17   18 1   
    37   17   19 1   
    38   20   21 ar  
    39   20   25 ar  
    40   21   22 ar  
    41   21   59 1   
    42   22   23 ar  
    43   22   60 1   
    44   23   24 ar  
    45   23   40 1   
    46   24   25 ar  
    47   25   26 1   
    48   26   27 2   
    49   26   28 1   
    50   28   29 1   
    51   28   61 1   
    52   29   30 ar  
    53   29   34 ar  
    54   30   31 ar  
    55   30   62 1   
    56   31   32 ar  
    57   31   63 1   
    58   32   33 ar  
    59   32   38 ar  
    60   33   34 ar  
    61   33   35 ar  
    62   34   64 1   
    63   35   36 ar  
    64   35   65 1   
    65   36   37 ar  
    66   36   66 1   
    67   37   38 ar  
    68   38   39 1   
    69   39   67 1   
    70   39   68 1   
    71   40   41 1   
    72   41   69 1   
    73   41   70 1   
    74   41   71 1   
@<TRIPOS>SUBSTRUCTURE
     1 1NK         1 TEMP              0 ****  ****    0 ROOT
