@<TRIPOS>MOLECULE
1NK
   71    74     1     0     0
SMALL
bcc


@<TRIPOS>ATOM
      1 C1          0.0550    0.0820   -0.0740 c3        1 1NK     -0.089433
      2 C2          1.5300   -0.0720    0.2630 c3        1 1NK     -0.049000
      3 C3          1.6650   -0.4940    1.7220 c3        1 1NK     -0.089433
      4 C4          2.1260   -1.1680   -0.6100 c3        1 1NK     -0.089433
      5 C5          2.3250    1.2500    0.0580 c3        1 1NK      0.109700
      6 C6          2.6240    1.5650   -1.4280 c3        1 1NK      0.102400
      7 O7          1.4160    1.8350   -2.1180 oh        1 1NK     -0.606800
      8 N8          1.7100    2.3680    0.7300 n         1 1NK     -0.560900
      9 C9          2.4640    3.3500    1.3590 c         1 1NK      0.674700
     10 O10         3.6910    3.1930    1.5290 o         1 1NK     -0.617100
     11 C11         1.7300    4.5450    1.8590 ca        1 1NK     -0.145600
     12 C12         0.7270    5.1540    1.0940 ca        1 1NK     -0.135000
     13 C13         0.0610    6.2660    1.5930 ca        1 1NK     -0.126000
     14 C14         0.3830    6.7860    2.8580 cp        1 1NK     -0.036000
     15 C15         1.4000    6.1910    3.6160 ca        1 1NK     -0.103600
     16 C16         2.0700    5.0710    3.1070 ca        1 1NK     -0.063000
     17 C17         1.8200    6.7240    4.9810 c         1 1NK      0.916200
     18 O18         1.3230    6.1930    6.0040 o         1 1NK     -0.815300
     19 O19         2.6670    7.6690    4.9980 o         1 1NK     -0.815300
     20 C20        -0.3880    7.9250    3.3630 cp        1 1NK     -0.133300
     21 C21        -1.4380    7.7050    4.2740 ca        1 1NK     -0.041000
     22 C22        -2.2020    8.7740    4.7190 ca        1 1NK     -0.251300
     23 C23        -1.8730   10.0660    4.2310 ca        1 1NK      0.612600
     24 N24        -0.8520   10.3200    3.3780 nb        1 1NK     -0.702000
     25 C25        -0.1290    9.2530    2.9640 ca        1 1NK      0.409800
     26 C26         1.0330    9.5510    2.0340 c         1 1NK      0.585600
     27 O27         0.8390    9.9760    0.8810 o         1 1NK     -0.599100
     28 N28         2.2680    9.3200    2.6070 n         1 1NK     -0.455100
     29 C29         3.5110    9.4420    1.9820 ca        1 1NK      0.111600
     30 C30         4.6500    8.9070    2.6820 ca        1 1NK     -0.152000
     31 C31         5.9060    9.0010    2.1460 ca        1 1NK     -0.097000
     32 C32         6.1290    9.6170    0.8870 ca        1 1NK     -0.201300
     33 C33         5.0130   10.1580    0.1990 ca        1 1NK      0.035000
     34 C34         3.7140   10.0620    0.7520 ca        1 1NK     -0.201000
     35 C35         5.2290   10.7950   -1.0560 ca        1 1NK     -0.276300
     36 C36         6.5120   10.8490   -1.5600 ca        1 1NK      0.408200
     37 N37         7.6070   10.3210   -0.9480 nb        1 1NK     -0.764000
     38 C38         7.4350    9.7270    0.2550 ca        1 1NK      0.645200
     39 N39         8.5710    9.2570    0.9410 nh        1 1NK     -0.923500
     40 O40        -2.6890   11.0820    4.6990 os        1 1NK     -0.457100
     41 C41        -2.3560   12.4160    4.3190 c3        1 1NK      0.127700
     42 H1         -0.0720    0.5810   -1.0650 hc        1 1NK      0.036589
     43 H2         -0.4720    0.6830    0.7050 hc        1 1NK      0.036589
     44 H3         -0.4290   -0.9240   -0.1160 hc        1 1NK      0.036589
     45 H4          2.7380   -0.6610    1.9820 hc        1 1NK      0.036589
     46 H5          1.1040   -1.4440    1.8960 hc        1 1NK      0.036589
     47 H6          1.2520    0.2880    2.4020 hc        1 1NK      0.036589
     48 H7          1.8610   -1.0020   -1.6820 hc        1 1NK      0.036589
     49 H8          1.7200   -2.1620   -0.3010 hc        1 1NK      0.036589
     50 H9          3.2370   -1.1940   -0.5070 hc        1 1NK      0.036589
     51 H10         3.3450    1.0900    0.5310 h1        1 1NK      0.085700
     52 H11         3.1430    0.6950   -1.9110 h1        1 1NK      0.032200
     53 H12         3.3080    2.4570   -1.4760 h1        1 1NK      0.032200
     54 H13         1.6580    2.3090   -2.9210 ho        1 1NK      0.397000
     55 H14         0.7730    2.5730    0.4730 hn        1 1NK      0.314500
     56 H15         0.4720    4.7760    0.0940 ha        1 1NK      0.120000
     57 H16        -0.7230    6.7500    0.9900 ha        1 1NK      0.130000
     58 H17         2.8740    4.6060    3.6990 ha        1 1NK      0.159000
     59 H19        -1.6270    6.6860    4.6480 ha        1 1NK      0.161000
     60 H20        -3.0230    8.6520    5.4340 ha        1 1NK      0.152000
     61 H21         2.2830    8.8670    3.5190 hn        1 1NK      0.392500
     62 H22         4.4870    8.4100    3.6600 ha        1 1NK      0.192000
     63 H23         6.7490    8.5890    2.7220 ha        1 1NK      0.127000
     64 H24         2.8700   10.4840    0.1820 ha        1 1NK      0.167000
     65 H25         4.3790   11.2270   -1.5990 ha        1 1NK      0.139000
     66 H26         6.7310   11.3310   -2.5290 h4        1 1NK      0.003100
     67 H27         8.3950    8.4420    1.4850 hn        1 1NK      0.394800
     68 H28         9.3990    9.1870    0.3900 hn        1 1NK      0.394800
     69 H29        -2.4290   12.5410    3.2130 h1        1 1NK      0.044700
     70 H30        -1.3330   12.6850    4.6760 h1        1 1NK      0.044700
     71 H31        -3.1330   13.0300    4.8410 h1        1 1NK      0.044700
@<TRIPOS>BOND
     1    1    2 1   
     2    1   42 1   
     3    1   43 1   
     4    1   44 1   
     5    2    3 1   
     6    2    4 1   
     7    2    5 1   
     8    3   45 1   
     9    3   46 1   
    10    3   47 1   
    11    4   48 1   
    12    4   49 1   
    13    4   50 1   
    14    5    6 1   
    15    5    8 1   
    16    5   51 1   
    17    6    7 1   
    18    6   52 1   
    19    6   53 1   
    20    7   54 1   
    21    8    9 1   
    22    8   55 1   
    23    9   10 2   
    24    9   11 1   
    25   11   12 ar  
    26   11   16 ar  
    27   12   13 ar  
    28   12   56 1   
    29   13   14 ar  
    30   13   57 1   
    31   14   15 ar  
    32   14   20 1   
    33   15   16 ar  
    34   15   17 1   
    35   16   58 1   
    36   17   18 1   
    37   17   19 1   
    38   20   21 ar  
    39   20   25 ar  
    40   21   22 ar  
    41   21   59 1   
    42   22   23 ar  
    43   22   60 1   
    44   23   24 ar  
    45   23   40 1   
    46   24   25 ar  
    47   25   26 1   
    48   26   27 2   
    49   26   28 1   
    50   28   29 1   
    51   28   61 1   
    52   29   30 ar  
    53   29   34 ar  
    54   30   31 ar  
    55   30   62 1   
    56   31   32 ar  
    57   31   63 1   
    58   32   33 ar  
    59   32   38 ar  
    60   33   34 ar  
    61   33   35 ar  
    62   34   64 1   
    63   35   36 ar  
    64   35   65 1   
    65   36   37 ar  
    66   36   66 1   
    67   37   38 ar  
    68   38   39 1   
    69   39   67 1   
    70   39   68 1   
    71   40   41 1   
    72   41   69 1   
    73   41   70 1   
    74   41   71 1   
@<TRIPOS>SUBSTRUCTURE
     1 1NK         1 TEMP              0 ****  ****    0 ROOT
