@<TRIPOS>MOLECULE
1NK
   72    75     1     0     0
SMALL
bcc


@<TRIPOS>ATOM
      1 C1          0.0090    0.3360    0.0450 c3        1 1NK     -0.106767
      2 C2          1.4670    0.3430    0.4730 c3        1 1NK     -0.061000
      3 C3          1.5710    0.7760    1.9320 c3        1 1NK     -0.106767
      4 C4          2.0380   -1.0670    0.3540 c3        1 1NK     -0.106767
      5 C5          2.3220    1.2940   -0.4070 c3        1 1NK      0.124500
      6 C6          2.3710    0.8900   -1.8970 c3        1 1NK      0.106400
      7 O7          1.2420    1.4320   -2.5620 oh        1 1NK     -0.627800
      8 N8          1.8930    2.7260   -0.2690 ny        1 1NK     -0.673800
      9 C9          2.6030    3.5100    0.8370 c         1 1NK      0.589700
     10 O10         3.7390    3.1370    1.0980 o         1 1NK     -0.456100
     11 C11         1.8160    4.5810    1.4250 ca        1 1NK     -0.227600
     12 C12         0.7700    5.2310    0.7400 ca        1 1NK     -0.132000
     13 C13         0.0720    6.2470    1.3680 ca        1 1NK     -0.112000
     14 C14         0.3940    6.6420    2.6840 cp        1 1NK      0.045000
     15 C15         1.4400    6.0070    3.3610 ca        1 1NK     -0.113600
     16 C16         2.1510    4.9810    2.7280 ca        1 1NK     -0.018000
     17 C17         1.8680    6.3740    4.7930 c         1 1NK      0.924200
     18 O18         1.4700    5.6120    5.7040 o         1 1NK     -0.788300
     19 O19         2.6110    7.3840    4.9190 o         1 1NK     -0.788300
     20 C20        -0.3840    7.7180    3.2980 cp        1 1NK     -0.186300
     21 C21        -1.4300    7.4240    4.1910 ca        1 1NK     -0.034000
     22 C22        -2.1760    8.4570    4.7380 ca        1 1NK     -0.250300
     23 C23        -1.8340    9.7880    4.3730 ca        1 1NK      0.636600
     24 N24        -0.8130   10.1070    3.5360 nb        1 1NK     -0.698000
     25 C25        -0.1110    9.0750    3.0200 ca        1 1NK      0.428800
     26 C26         1.0480    9.4230    2.1020 c         1 1NK      0.577600
     27 O27         0.8440    9.7930    0.9330 o         1 1NK     -0.593100
     28 N28         2.2830    9.2680    2.6950 ns        1 1NK     -0.454100
     29 C29         3.5300    9.4300    2.0790 ca        1 1NK      0.096600
     30 C30         4.6840    8.9770    2.8090 ca        1 1NK     -0.162000
     31 C31         5.9400    9.1150    2.2820 ca        1 1NK     -0.090000
     32 C32         6.1450    9.6910    1.0020 ca        1 1NK     -0.205300
     33 C33         5.0130   10.1430    0.2790 ca        1 1NK      0.036000
     34 C34         3.7130   10.0080    0.8280 ca        1 1NK     -0.192000
     35 C35         5.2070   10.7330   -1.0010 ca        1 1NK     -0.285300
     36 C36         6.4920   10.8300   -1.4960 ca        1 1NK      0.422200
     37 N37         7.6060   10.3940   -0.8480 nb        1 1NK     -0.758000
     38 C38         7.4540    9.8520    0.3830 ca        1 1NK      0.655200
     39 N39         8.6040    9.5010    1.1040 nv        1 1NK     -0.930500
     40 O40        -2.6280   10.7610    4.9400 os        1 1NK     -0.446100
     41 C41        -2.2930   12.1250    4.6800 c3        1 1NK      0.123700
     42 H1         -0.5200    1.2620    0.3750 hc        1 1NK      0.054478
     43 H2         -0.5130   -0.5340    0.5140 hc        1 1NK      0.054478
     44 H3         -0.0770    0.2470   -1.0650 hc        1 1NK      0.054478
     45 H4          2.6410    0.8650    2.2400 hc        1 1NK      0.054478
     46 H5          1.0760    0.0170    2.5860 hc        1 1NK      0.054478
     47 H6          1.0620    1.7540    2.1100 hc        1 1NK      0.054478
     48 H7          1.7270   -1.5480   -0.6040 hc        1 1NK      0.054478
     49 H8          1.6510   -1.6980    1.1920 hc        1 1NK      0.054478
     50 H9          3.1530   -1.0520    0.4140 hc        1 1NK      0.054478
     51 H10         3.3900    1.2290   -0.0240 hx        1 1NK      0.123700
     52 H11         2.3910   -0.2280   -1.9780 h1        1 1NK      0.063200
     53 H12         3.3050    1.3090   -2.3650 h1        1 1NK      0.063200
     54 H13         1.1750    0.9940   -3.4200 ho        1 1NK      0.439000
     55 H14         0.8810    2.7510   -0.0920 hn        1 1NK      0.459800
     56 H15         0.5160    4.9810   -0.3000 ha        1 1NK      0.112000
     57 H16        -0.7340    6.7730    0.8300 ha        1 1NK      0.156000
     58 H17         2.9760    4.4890    3.2700 ha        1 1NK      0.170000
     59 H19        -1.6360    6.3790    4.4700 ha        1 1NK      0.157000
     60 H20        -2.9960    8.2800    5.4450 ha        1 1NK      0.163000
     61 H21         2.3080    8.8650    3.6260 hn        1 1NK      0.385500
     62 H22         4.5380    8.5110    3.8030 ha        1 1NK      0.180000
     63 H23         6.7960    8.7750    2.8850 ha        1 1NK      0.129000
     64 H24         2.8580   10.3770    0.2370 ha        1 1NK      0.169000
     65 H25         4.3430   11.1010   -1.5680 ha        1 1NK      0.143000
     66 H26         6.6960   11.2790   -2.4850 h4        1 1NK      0.012100
     67 H27         8.4880    8.7240    1.7140 hn        1 1NK      0.403300
     68 H28         9.4560    9.4900    0.5890 hn        1 1NK      0.403300
     69 H29        -1.2640   12.3550    5.0480 h1        1 1NK      0.052700
     70 H30        -2.3810   12.3500    3.5900 h1        1 1NK      0.052700
     71 H31        -3.0630   12.6870    5.2680 h1        1 1NK      0.052700
     72 H82         2.0640    3.2080   -1.1600 hn        1 1NK      0.459800
@<TRIPOS>BOND
     1    1    2 1   
     2    1   42 1   
     3    1   43 1   
     4    1   44 1   
     5    2    3 1   
     6    2    4 1   
     7    2    5 1   
     8    3   45 1   
     9    3   46 1   
    10    3   47 1   
    11    4   48 1   
    12    4   49 1   
    13    4   50 1   
    14    5    6 1   
    15    5    8 1   
    16    5   51 1   
    17    6    7 1   
    18    6   52 1   
    19    6   53 1   
    20    7   54 1   
    21    8    9 1   
    22    8   55 1   
    23    8   72 1   
    24    9   10 2   
    25    9   11 1   
    26   11   12 ar  
    27   11   16 ar  
    28   12   13 ar  
    29   12   56 1   
    30   13   14 ar  
    31   13   57 1   
    32   14   15 ar  
    33   14   20 1   
    34   15   16 ar  
    35   15   17 1   
    36   16   58 1   
    37   17   18 1   
    38   17   19 1   
    39   20   21 ar  
    40   20   25 ar  
    41   21   22 ar  
    42   21   59 1   
    43   22   23 ar  
    44   22   60 1   
    45   23   24 ar  
    46   23   40 1   
    47   24   25 ar  
    48   25   26 1   
    49   26   27 2   
    50   26   28 1   
    51   28   29 1   
    52   28   61 1   
    53   29   30 ar  
    54   29   34 ar  
    55   30   31 ar  
    56   30   62 1   
    57   31   32 ar  
    58   31   63 1   
    59   32   33 ar  
    60   32   38 ar  
    61   33   34 ar  
    62   33   35 ar  
    63   34   64 1   
    64   35   36 ar  
    65   35   65 1   
    66   36   37 ar  
    67   36   66 1   
    68   37   38 ar  
    69   38   39 1   
    70   39   67 1   
    71   39   68 1   
    72   40   41 1   
    73   41   69 1   
    74   41   70 1   
    75   41   71 1   
@<TRIPOS>SUBSTRUCTURE
     1 1NK         1 TEMP              0 ****  ****    0 ROOT
