@<TRIPOS>MOLECULE
1NL
   71    73     1     0     0
SMALL
bcc


@<TRIPOS>ATOM
      1 C1          2.6360    2.8810   -1.0790 c3        1 1NL     -0.109100
      2 C2          2.7490    1.7200   -0.1030 c3        1 1NL     -0.069000
      3 C3          2.2120    2.1520    1.2560 c3        1 1NL     -0.109100
      4 C4          4.2170    1.3410    0.0610 c3        1 1NL     -0.109100
      5 C5          1.9590    0.4720   -0.5820 c3        1 1NL      0.097500
      6 C6          0.4290    0.5480   -0.3800 c3        1 1NL      0.107400
      7 O7         -0.1630    1.4170   -1.3200 oh        1 1NL     -0.624800
      8 N8          2.2600    0.1730   -2.0310 n4        1 1NL     -0.671800
      9 C9          1.9750   -1.2620   -2.4140 c         1 1NL      0.573700
     10 O10         2.5190   -2.1180   -1.7290 o         1 1NL     -0.417100
     11 C11         1.1300   -1.4670   -3.5950 ca        1 1NL     -0.215600
     12 C12         0.0040   -0.6740   -3.8710 ca        1 1NL     -0.060000
     13 C13        -0.7590   -0.9330   -5.0000 ca        1 1NL     -0.129000
     14 C14        -0.4320   -1.9850   -5.8810 cp        1 1NL      0.096000
     15 C15         0.6730   -2.7970   -5.5740 ca        1 1NL     -0.165600
     16 C16         1.4530   -2.5360   -4.4410 ca        1 1NL      0.006000
     17 C17         1.1010   -3.9310   -6.4150 c         1 1NL      0.755200
     18 O18         2.2380   -4.1960   -6.7860 o         1 1NL     -0.513500
     19 O19         0.2000   -4.9290   -6.7360 os        1 1NL     -0.475200
     20 C20        -1.2230   -2.1680   -7.0870 cp        1 1NL     -0.221300
     21 C21        -1.6830   -1.0320   -7.7980 ca        1 1NL     -0.043000
     22 C22        -2.4350   -1.1870   -8.9440 ca        1 1NL     -0.223300
     23 C23        -2.7330   -2.5180   -9.3730 ca        1 1NL      0.676600
     24 N24        -2.3130   -3.6280   -8.7120 nb        1 1NL     -0.698000
     25 C25        -1.5730   -3.4360   -7.5950 ca        1 1NL      0.430800
     26 C26        -1.1550   -4.6840   -6.9010 c         1 1NL      0.657100
     27 O27        -1.8420   -5.6260   -6.5300 o         1 1NL     -0.521500
     28 N28        -0.0150   -7.9390   -6.6140 nh        1 1NL     -0.836200
     29 C29         0.1990   -9.1360   -7.2530 ca        1 1NL      0.199600
     30 C30         1.4290   -9.4100   -7.9130 ca        1 1NL     -0.146000
     31 C31         1.6680  -10.6530   -8.4800 ca        1 1NL     -0.070000
     32 C32         0.7150  -11.6700   -8.4230 ca        1 1NL     -0.165000
     33 C33        -0.5060  -11.4180   -7.7830 ca        1 1NL     -0.148600
     34 C34        -0.7750  -10.1680   -7.2100 ca        1 1NL     -0.141000
     35 C35        -1.5710  -12.4110   -7.6770 c         1 1NL      0.576700
     36 O36        -2.7320  -12.2840   -7.3170 o         1 1NL     -0.417100
     37 N37        -1.2080  -13.8450   -8.0450 n4        1 1NL     -0.763400
     38 O38        -3.4810   -2.5950  -10.5120 os        1 1NL     -0.417100
     39 C39        -3.8420   -3.8910  -11.0080 c3        1 1NL      0.117700
     40 H1          1.5790    3.0370   -1.4030 hc        1 1NL      0.057811
     41 H2          2.9890    3.8200   -0.5820 hc        1 1NL      0.057811
     42 H3          3.2750    2.7240   -1.9820 hc        1 1NL      0.057811
     43 H4          2.1260    1.2780    1.9470 hc        1 1NL      0.057811
     44 H5          1.2150    2.6440    1.1510 hc        1 1NL      0.057811
     45 H6          2.9140    2.8920    1.7160 hc        1 1NL      0.057811
     46 H7          4.6860    1.0530   -0.9100 hc        1 1NL      0.057811
     47 H8          4.7850    2.2170    0.4620 hc        1 1NL      0.057811
     48 H9          4.3280    0.4950    0.7820 hc        1 1NL      0.057811
     49 H10         2.3310   -0.4150    0.0200 hx        1 1NL      0.124700
     50 H11        -0.0220   -0.4670   -0.5790 h1        1 1NL      0.088700
     51 H12         0.2070    0.8350    0.6800 h1        1 1NL      0.088700
     52 H13        -0.3930    2.2440   -0.8740 ho        1 1NL      0.444000
     53 H14         3.2570    0.3620   -2.1990 hn        1 1NL      0.468300
     54 H15        -0.3100    0.1360   -3.1870 ha        1 1NL      0.173000
     55 H16        -1.6490   -0.3140   -5.2070 ha        1 1NL      0.175000
     56 H17         2.3290   -3.1760   -4.2230 ha        1 1NL      0.183000
     57 H19        -1.4240   -0.0220   -7.4410 ha        1 1NL      0.158000
     58 H20        -2.8060   -0.3340   -9.5320 ha        1 1NL      0.190000
     59 H21         0.5900   -7.1780   -6.8290 hn        1 1NL      0.441300
     60 H22         2.2050   -8.6280   -7.9750 ha        1 1NL      0.164000
     61 H23         2.6290  -10.8420   -8.9880 ha        1 1NL      0.163000
     62 H24         0.9490  -12.6310   -8.8990 ha        1 1NL      0.123000
     63 H25        -1.7480   -9.9920   -6.7220 ha        1 1NL      0.168000
     64 H26        -1.9960  -14.4700   -7.8360 hn        1 1NL      0.468133
     65 H27        -0.3860  -14.1410   -7.5110 hn        1 1NL      0.468133
     66 H28        -4.4440   -3.6400  -11.9200 h1        1 1NL      0.067033
     67 H29        -4.4580   -4.4380  -10.2560 h1        1 1NL      0.067033
     68 H30        -2.9280   -4.4720  -11.2770 h1        1 1NL      0.067033
     69 H82         1.6990    0.8140   -2.6090 hn        1 1NL      0.468300
     70 H282       -0.9440   -7.6980   -6.3520 hn        1 1NL      0.441300
     71 H373       -0.9910  -13.9010   -9.0440 hn        1 1NL      0.468133
@<TRIPOS>BOND
     1    1    2 1   
     2    1   40 1   
     3    1   41 1   
     4    1   42 1   
     5    2    3 1   
     6    2    4 1   
     7    2    5 1   
     8    3   43 1   
     9    3   44 1   
    10    3   45 1   
    11    4   46 1   
    12    4   47 1   
    13    4   48 1   
    14    5    6 1   
    15    5    8 1   
    16    5   49 1   
    17    6    7 1   
    18    6   50 1   
    19    6   51 1   
    20    7   52 1   
    21    8    9 1   
    22    8   53 1   
    23    8   69 1   
    24    9   10 2   
    25    9   11 1   
    26   11   12 ar  
    27   11   16 ar  
    28   12   13 ar  
    29   12   54 1   
    30   13   14 ar  
    31   13   55 1   
    32   14   15 ar  
    33   14   20 1   
    34   15   16 ar  
    35   15   17 1   
    36   16   56 1   
    37   17   18 2   
    38   17   19 1   
    39   19   26 1   
    40   20   21 ar  
    41   20   25 ar  
    42   21   22 ar  
    43   21   57 1   
    44   22   23 ar  
    45   22   58 1   
    46   23   24 ar  
    47   23   38 1   
    48   24   25 ar  
    49   25   26 1   
    50   26   27 2   
    51   28   29 1   
    52   28   59 1   
    53   28   70 1   
    54   29   30 ar  
    55   29   34 ar  
    56   30   31 ar  
    57   30   60 1   
    58   31   32 ar  
    59   31   61 1   
    60   32   33 ar  
    61   32   62 1   
    62   33   34 ar  
    63   33   35 1   
    64   34   63 1   
    65   35   36 2   
    66   35   37 1   
    67   37   64 1   
    68   37   65 1   
    69   37   71 1   
    70   38   39 1   
    71   39   66 1   
    72   39   67 1   
    73   39   68 1   
@<TRIPOS>SUBSTRUCTURE
     1 1NL         1 TEMP              0 ****  ****    0 ROOT
