@<TRIPOS>MOLECULE
1NL
   70    72     1     0     0
SMALL
bcc


@<TRIPOS>ATOM
      1 C1          0.0010    1.0260   -0.0840 c3        1 1NL     -0.106433
      2 C2          1.4640    0.6910    0.1800 c3        1 1NL     -0.070000
      3 C3          1.6220    0.3770    1.6640 c3        1 1NL     -0.106433
      4 C4          2.3240    1.8950   -0.1720 c3        1 1NL     -0.106433
      5 C5          1.8490   -0.5690   -0.6410 c3        1 1NL      0.096500
      6 C6          1.3050   -0.5980   -2.0890 c3        1 1NL      0.106400
      7 O7          1.9710    0.3420   -2.9000 oh        1 1NL     -0.604800
      8 N8          3.3390   -0.7620   -0.6660 ny        1 1NL     -0.679800
      9 C9          3.7950   -2.1990   -0.8750 c         1 1NL      0.588700
     10 O10         2.9220   -3.0550   -0.8540 o         1 1NL     -0.424100
     11 C11         5.2270   -2.3570   -1.1110 ca        1 1NL     -0.229600
     12 C12         6.1970   -1.5040   -0.5530 ca        1 1NL     -0.101000
     13 C13         7.5330   -1.7220   -0.8290 ca        1 1NL     -0.124000
     14 C14         7.9500   -2.7770   -1.6770 cp        1 1NL      0.087000
     15 C15         6.9850   -3.6250   -2.2330 ca        1 1NL     -0.096600
     16 C16         5.6280   -3.4150   -1.9340 ca        1 1NL     -0.008000
     17 C17         7.2640   -4.7280   -3.2130 c         1 1NL      0.918200
     18 O18         8.4240   -5.2040   -3.3960 o         1 1NL     -0.836800
     19 O19         6.2840   -5.1610   -3.9060 o         1 1NL     -0.836800
     20 C20         9.4010   -2.9180   -1.8430 cp        1 1NL     -0.137300
     21 C21        10.1140   -3.4990   -0.7670 ca        1 1NL     -0.057000
     22 C22        11.4930   -3.5560   -0.7950 ca        1 1NL     -0.224300
     23 C23        12.1510   -3.0060   -1.9350 ca        1 1NL      0.646600
     24 N24        11.4980   -2.4760   -2.9910 nb        1 1NL     -0.739000
     25 C25        10.1390   -2.4520   -2.9500 ca        1 1NL      0.402800
     26 C26         9.4170   -1.9700   -4.1920 c         1 1NL      0.580600
     27 O27         8.2320   -1.6170   -4.1420 o         1 1NL     -0.535100
     28 N28        10.1240   -1.9200   -5.4160 ns        1 1NL     -0.463100
     29 C29         9.7330   -2.7530   -6.4850 ca        1 1NL      0.051600
     30 C30        10.0910   -2.4160   -7.8100 ca        1 1NL     -0.086000
     31 C31         9.7510   -3.2620   -8.8610 ca        1 1NL     -0.123000
     32 C32         9.0700   -4.4560   -8.6290 ca        1 1NL     -0.069000
     33 C33         8.7100   -4.8010   -7.3160 ca        1 1NL     -0.165600
     34 C34         9.0150   -3.9450   -6.2550 ca        1 1NL     -0.126000
     35 C35         8.0470   -6.0960   -7.1190 c         1 1NL      0.570700
     36 O36         7.6990   -6.8780   -8.0040 o         1 1NL     -0.473100
     37 N37         7.7710   -6.5500   -5.7310 nz        1 1NL     -0.782400
     38 O38        13.5240   -3.0580   -1.8790 os        1 1NL     -0.435100
     39 C39        14.2620   -2.5320   -2.9840 c3        1 1NL      0.121700
     40 H1         -0.6400    0.1180    0.0210 hc        1 1NL      0.053922
     41 H2         -0.1270    1.4550   -1.1080 hc        1 1NL      0.053922
     42 H3         -0.3470    1.7880    0.6560 hc        1 1NL      0.053922
     43 H4          0.9690   -0.4820    1.9560 hc        1 1NL      0.053922
     44 H5          2.6780    0.1320    1.9270 hc        1 1NL      0.053922
     45 H6          1.3190    1.2680    2.2680 hc        1 1NL      0.053922
     46 H7          3.3380    1.8250    0.2920 hc        1 1NL      0.053922
     47 H8          2.4380    2.0020   -1.2770 hc        1 1NL      0.053922
     48 H9          1.8420    2.8250    0.2210 hc        1 1NL      0.053922
     49 H10         1.4020   -1.4680   -0.1120 hx        1 1NL      0.111700
     50 H11         0.1950   -0.4500   -2.0710 h1        1 1NL      0.092200
     51 H12         1.5280   -1.6050   -2.5460 h1        1 1NL      0.092200
     52 H13         1.4090    1.1230   -2.9850 ho        1 1NL      0.429000
     53 H14         3.7360   -0.4210    0.2150 hn        1 1NL      0.466800
     54 H15         5.9220   -0.6800    0.1220 ha        1 1NL      0.127000
     55 H16         8.2960   -1.0600   -0.3880 ha        1 1NL      0.157000
     56 H17         4.8810   -4.0980   -2.3840 ha        1 1NL      0.188000
     57 H19         9.5590   -3.9100    0.0910 ha        1 1NL      0.155000
     58 H20        12.0870   -4.0040    0.0130 ha        1 1NL      0.175000
     59 H21        11.1130   -1.7880   -5.3530 hn        1 1NL      0.329500
     60 H22        10.6410   -1.4820   -8.0150 ha        1 1NL      0.160000
     61 H23        10.0260   -2.9860   -9.8920 ha        1 1NL      0.159000
     62 H24         8.8180   -5.1290   -9.4640 ha        1 1NL      0.166000
     63 H25         8.7000   -4.1750   -5.2190 ha        1 1NL      0.183000
     64 H26         7.6030   -7.5560   -5.7110 hn        1 1NL      0.488467
     65 H27         8.5370   -6.3030   -5.0720 hn        1 1NL      0.488467
     66 H28        14.0260   -3.0970   -3.9170 h1        1 1NL      0.055367
     67 H29        14.0510   -1.4440   -3.1150 h1        1 1NL      0.055367
     68 H30        15.3250   -2.7000   -2.6730 h1        1 1NL      0.055367
     69 H82         3.7200   -0.1920   -1.4370 hn        1 1NL      0.466800
     70 H373        6.9190   -6.0560   -5.3430 hn        1 1NL      0.488467
@<TRIPOS>BOND
     1    1    2 1   
     2    1   40 1   
     3    1   41 1   
     4    1   42 1   
     5    2    3 1   
     6    2    4 1   
     7    2    5 1   
     8    3   43 1   
     9    3   44 1   
    10    3   45 1   
    11    4   46 1   
    12    4   47 1   
    13    4   48 1   
    14    5    6 1   
    15    5    8 1   
    16    5   49 1   
    17    6    7 1   
    18    6   50 1   
    19    6   51 1   
    20    7   52 1   
    21    8    9 1   
    22    8   53 1   
    23    8   69 1   
    24    9   10 2   
    25    9   11 1   
    26   11   12 ar  
    27   11   16 ar  
    28   12   13 ar  
    29   12   54 1   
    30   13   14 ar  
    31   13   55 1   
    32   14   15 ar  
    33   14   20 1   
    34   15   16 ar  
    35   15   17 1   
    36   16   56 1   
    37   17   18 1   
    38   17   19 1   
    39   20   21 ar  
    40   20   25 ar  
    41   21   22 ar  
    42   21   57 1   
    43   22   23 ar  
    44   22   58 1   
    45   23   24 ar  
    46   23   38 1   
    47   24   25 ar  
    48   25   26 1   
    49   26   27 2   
    50   26   28 1   
    51   28   29 1   
    52   28   59 1   
    53   29   30 ar  
    54   29   34 ar  
    55   30   31 ar  
    56   30   60 1   
    57   31   32 ar  
    58   31   61 1   
    59   32   33 ar  
    60   32   62 1   
    61   33   34 ar  
    62   33   35 1   
    63   34   63 1   
    64   35   36 2   
    65   35   37 1   
    66   37   64 1   
    67   37   65 1   
    68   37   70 1   
    69   38   39 1   
    70   39   66 1   
    71   39   67 1   
    72   39   68 1   
@<TRIPOS>SUBSTRUCTURE
     1 1NL         1 TEMP              0 ****  ****    0 ROOT
