@<TRIPOS>MOLECULE
1NL
   68    62     1     0     0
SMALL
bcc


@<TRIPOS>ATOM
      1 C1          3.2300   -5.5230    2.4520 c3        1 1NL     -0.205667
      2 C2          3.7580   -5.0900    1.0790 c3        1 1NL     -0.062000
      3 C3          4.5470   -3.7470    1.2230 c3        1 1NL     -0.205667
      4 C4          4.6850   -6.1680    0.5320 c3        1 1NL     -0.205667
      5 C5          2.5790   -4.8870    0.1110 c3        1 1NL      0.001000
      6 C6          1.8580   -6.1970   -0.0980 c3        1 1NL     -0.035000
      7 O7          1.9460   -6.5720   -1.4710 oh        1 1NL     -0.337000
      8 N8          1.6820   -3.9350    0.6540 n         1 1NL     -0.389000
      9 C9          1.1960   -2.8490   -0.1730 c2        1 1NL      0.354000
     10 O10         1.2560   -2.9350   -1.3800 o         1 1NL     -0.376000
     11 C11         0.5310   -1.6000    0.4880 c2        1 1NL     -0.127000
     12 C12        -0.7550   -1.6920    1.0060 c2        1 1NL     -0.135000
     13 C13        -1.3860   -0.5600    1.4990 c1        1 1NL     -0.125000
     14 C14        -0.7360    0.6650    1.4760 c1        1 1NL     -0.033000
     15 C15         0.5460    0.7580    0.9600 c1        1 1NL     -0.081000
     16 C16         1.1800   -0.3780    0.4640 c2        1 1NL     -0.066000
     17 C17         1.2680    2.0640    0.9870 c1        1 1NL      0.365000
     18 O18         1.6880    2.5260    2.0740 o         1 1NL     -0.553000
     19 O19         1.4440    2.7020   -0.0720 o         1 1NL     -0.553000
     20 C20        -1.3980    1.8960    2.1190 c1        1 1NL     -0.071000
     21 C21        -1.4960    1.9910    3.5010 c1        1 1NL     -0.114500
     22 C22        -2.1100    3.0740    4.0690 c1        1 1NL     -0.114500
     23 C23        -2.6410    4.0890    3.2470 c1        1 1NL      0.115000
     24 N24        -2.5420    3.9900    1.8990 n1        1 1NL     -0.176000
     25 C25        -1.9190    2.8910    1.3220 c1        1 1NL     -0.007000
     26 C26        -1.8770    2.7490   -0.2420 c2        1 1NL      0.368000
     27 O27        -1.4080    1.7300   -0.7590 o         1 1NL     -0.365000
     28 N28        -2.4300    3.8030   -1.0820 n         1 1NL     -0.307000
     29 C29        -2.4290    3.6600   -2.4960 c2        1 1NL      0.079000
     30 C30        -2.9910    2.5470   -3.0740 c2        1 1NL     -0.149000
     31 C31        -2.9960    2.4100   -4.4470 c1        1 1NL     -0.132000
     32 C32        -2.4330    3.3980   -5.2460 c1        1 1NL     -0.119000
     33 C33        -1.8740    4.5040   -4.6720 c1        1 1NL     -0.104000
     34 C34        -1.8690    4.6410   -3.2900 c1        1 1NL     -0.137000
     35 C35        -1.2200    5.6040   -5.5680 c2        1 1NL      0.348000
     36 O36        -0.7280    6.5780   -5.0620 o         1 1NL     -0.411000
     37 N37        -1.1730    5.4360   -6.9940 n         1 1NL     -0.424000
     38 O38        -3.1930    5.2460    3.8240 os        1 1NL     -0.215000
     39 C39        -4.4130    5.0470    4.4080 c3        1 1NL     -0.062000
     40 H1          3.6060   -4.9070    3.1690 hc        1 1NL      0.075889
     41 H2          3.5080   -6.4390    2.6330 hc        1 1NL      0.075889
     42 H3          2.2300   -5.4690    2.4580 hc        1 1NL      0.075889
     43 H4          3.9940   -3.0920    1.7100 hc        1 1NL      0.075889
     44 H5          5.3970   -3.9100    1.7290 hc        1 1NL      0.075889
     45 H6          4.7600   -3.3950    0.3270 hc        1 1NL      0.075889
     46 H7          5.5140   -6.1860    1.0590 hc        1 1NL      0.075889
     47 H8          4.9000   -5.9690   -0.4170 hc        1 1NL      0.075889
     48 H9          4.2290   -7.0670    0.5930 hc        1 1NL      0.075889
     49 H10         2.9180   -4.5600   -0.7540 h1        1 1NL      0.122000
     50 H11         0.8910   -6.0920    0.1600 h1        1 1NL      0.088500
     51 H12         2.2810   -6.9070    0.4720 h1        1 1NL      0.088500
     52 H13         1.5060   -7.3260   -1.6000 ho        1 1NL      0.206000
     53 H14         1.3400   -4.0610    1.4700 hn        1 1NL      0.226000
     54 H15        -1.2210   -2.5660    1.0230 ha        1 1NL      0.121000
     55 H16        -2.2890   -0.6260    1.8630 ha        1 1NL      0.131000
     56 H17         2.1080   -0.3120    0.0900 ha        1 1NL      0.157000
     57 H19        -1.0870    1.2910    4.0780 ha        1 1NL      0.156000
     58 H20        -2.1020    3.1890    5.0630 ha        1 1NL      0.156000
     59 H21        -2.7400    4.5950   -0.6930 hn        1 1NL      0.298000
     60 H22        -3.3940    1.8410   -2.5040 ha        1 1NL      0.164000
     61 H23        -3.3900    1.6300   -4.8510 ha        1 1NL      0.123000
     62 H24        -2.4360    3.3000   -6.2220 ha        1 1NL      0.144000
     63 H25        -1.4700    5.4320   -2.8780 ha        1 1NL      0.189000
     64 H26        -1.8450    5.7370   -7.5030 hn        1 1NL      0.230500
     65 H27        -0.4760    4.9950   -7.3760 hn        1 1NL      0.230500
     66 H28        -4.3420    4.3500    5.0700 h1        1 1NL      0.084333
     67 H29        -5.0560    4.7850    3.7310 h1        1 1NL      0.084333
     68 H30        -4.7080    5.8750    4.8360 h1        1 1NL      0.084333
@<TRIPOS>BOND
     1    1    2 1   
     2    1   40 1   
     3    1   41 1   
     4    1   42 1   
     5    2    3 1   
     6    2    4 1   
     7    2    5 1   
     8    3   43 1   
     9    3   44 1   
    10    3   45 1   
    11    4   46 1   
    12    4   47 1   
    13    4   48 1   
    14    5    6 1   
    15    5    8 1   
    16    5   49 1   
    17    6    7 1   
    18    6   50 1   
    19    6   51 1   
    20    7   52 1   
    21    8    9 1   
    22    8   53 1   
    23    9   10 1   
    24    9   11 1   
    25   11   12 1   
    26   11   16 1   
    27   12   13 1   
    28   12   54 1   
    29   13   55 1   
    30   14   15 1   
    31   15   16 1   
    32   16   56 1   
    33   17   18 1   
    34   17   19 1   
    35   20   25 1   
    36   21   22 1   
    37   21   57 1   
    38   22   58 1   
    39   23   24 1   
    40   23   38 1   
    41   25   26 1   
    42   26   27 1   
    43   26   28 1   
    44   28   29 1   
    45   28   59 1   
    46   29   30 1   
    47   29   34 1   
    48   30   31 1   
    49   30   60 1   
    50   31   61 1   
    51   32   33 1   
    52   32   62 1   
    53   33   35 1   
    54   34   63 1   
    55   35   36 1   
    56   35   37 1   
    57   37   64 1   
    58   37   65 1   
    59   38   39 1   
    60   39   66 1   
    61   39   67 1   
    62   39   68 1   
@<TRIPOS>SUBSTRUCTURE
     1 1NL         1 TEMP              0 ****  ****    0 ROOT
