@<TRIPOS>MOLECULE
1NL
   68    70     1     0     0
SMALL
bcc


@<TRIPOS>ATOM
      1 C1          5.6320    0.6870   -1.6490 c3        1 1NL     -0.091100
      2 C2          6.1490   -0.1270   -0.4750 c3        1 1NL     -0.061000
      3 C3          6.0920   -1.6090   -0.8310 c3        1 1NL     -0.091100
      4 C4          7.6040    0.2440   -0.2140 c3        1 1NL     -0.091100
      5 C5          5.3140    0.1120    0.8180 c3        1 1NL      0.072700
      6 C6          5.5000    1.5300    1.4100 c3        1 1NL      0.120400
      7 O7          4.9240    2.5680    0.6440 oh        1 1NL     -0.606800
      8 N8          3.9180   -0.2080    0.6510 n         1 1NL     -0.579900
      9 C9          3.2570   -1.1190    1.4620 c         1 1NL      0.678700
     10 O10         3.8050   -1.5790    2.4840 o         1 1NL     -0.609100
     11 C11         1.8680   -1.4680    1.0540 ca        1 1NL     -0.147600
     12 C12         1.6030   -1.8890   -0.2560 ca        1 1NL     -0.139000
     13 C13         0.3040   -2.2170   -0.6230 ca        1 1NL     -0.123000
     14 C14        -0.7470   -2.1120    0.3040 cp        1 1NL     -0.038000
     15 C15        -0.4840   -1.6840    1.6110 ca        1 1NL     -0.098600
     16 C16         0.8320   -1.3770    1.9820 ca        1 1NL     -0.066000
     17 C17        -1.5880   -1.5110    2.6490 c         1 1NL      0.915200
     18 O18        -2.1550   -0.3770    2.6970 o         1 1NL     -0.814800
     19 O19        -1.8620   -2.4800    3.3990 o         1 1NL     -0.814800
     20 C20        -2.0950   -2.4930   -0.1230 cp        1 1NL     -0.133300
     21 C21        -2.5910   -3.7740    0.1850 ca        1 1NL     -0.039000
     22 C22        -3.8490   -4.1530   -0.2590 ca        1 1NL     -0.251300
     23 C23        -4.5960   -3.2070   -1.0090 ca        1 1NL      0.613600
     24 N24        -4.1650   -1.9560   -1.2990 nb        1 1NL     -0.704000
     25 C25        -2.9320   -1.6220   -0.8510 ca        1 1NL      0.409800
     26 C26        -2.4690   -0.2090   -1.1540 c         1 1NL      0.586600
     27 O27        -2.1790    0.1350   -2.3160 o         1 1NL     -0.615100
     28 N28        -2.4320    0.6120   -0.0470 n         1 1NL     -0.454100
     29 C29        -1.9680    1.9340   -0.0150 ca        1 1NL      0.071600
     30 C30        -1.6340    2.4940    1.2470 ca        1 1NL     -0.138000
     31 C31        -1.2080    3.8120    1.3310 ca        1 1NL     -0.130000
     32 C32        -1.0870    4.6010    0.1870 ca        1 1NL     -0.117000
     33 C33        -1.3990    4.0550   -1.0600 ca        1 1NL     -0.132600
     34 C34        -1.8500    2.7360   -1.1680 ca        1 1NL     -0.149000
     35 C35        -1.2460    4.9190   -2.2630 c         1 1NL      0.675700
     36 O36        -1.4190    6.1580   -2.2260 o         1 1NL     -0.637100
     37 N37        -0.8610    4.3320   -3.4450 n         1 1NL     -0.675000
     38 O38        -5.8320   -3.6600   -1.4380 os        1 1NL     -0.456100
     39 C39        -6.6720   -2.7270   -2.1140 c3        1 1NL      0.127700
     40 H1          4.6550    0.2900   -2.0150 hc        1 1NL      0.037033
     41 H2          5.5000    1.7570   -1.3540 hc        1 1NL      0.037033
     42 H3          6.3610    0.6360   -2.4940 hc        1 1NL      0.037033
     43 H4          6.7340   -1.8110   -1.7220 hc        1 1NL      0.037033
     44 H5          6.4600   -2.2280    0.0220 hc        1 1NL      0.037033
     45 H6          5.0500   -1.9230   -1.0760 hc        1 1NL      0.037033
     46 H7          7.7340    1.3530   -0.2130 hc        1 1NL      0.037033
     47 H8          7.9440   -0.1640    0.7670 hc        1 1NL      0.037033
     48 H9          8.2540   -0.1790   -1.0180 hc        1 1NL      0.037033
     49 H10         5.7350   -0.5950    1.6030 h1        1 1NL      0.083700
     50 H11         5.0740    1.5420    2.4510 h1        1 1NL      0.049700
     51 H12         6.5910    1.7860    1.4600 h1        1 1NL      0.049700
     52 H13         3.9660    2.4560    0.6750 ho        1 1NL      0.408000
     53 H14         3.4810    0.0910   -0.1880 hn        1 1NL      0.312500
     54 H15         2.4180   -1.9750   -0.9890 ha        1 1NL      0.119000
     55 H16         0.0940   -2.5530   -1.6490 ha        1 1NL      0.130000
     56 H17         1.0410   -1.0650    3.0180 ha        1 1NL      0.157000
     57 H19        -1.9840   -4.4550    0.8030 ha        1 1NL      0.163000
     58 H20        -4.2790   -5.1360   -0.0340 ha        1 1NL      0.153000
     59 H21        -2.5530    0.1750    0.8650 hn        1 1NL      0.390500
     60 H22        -1.7170    1.8680    2.1590 ha        1 1NL      0.193000
     61 H23        -0.9600    4.2380    2.3150 ha        1 1NL      0.131000
     62 H24        -0.7570    5.6480    0.2540 ha        1 1NL      0.143000
     63 H25        -2.1300    2.3180   -2.1490 ha        1 1NL      0.161000
     64 H26        -0.7650    3.3510   -3.5180 hn        1 1NL      0.310000
     65 H27        -0.7980    4.8830   -4.2630 hn        1 1NL      0.310000
     66 H28        -7.5980   -3.3220   -2.3180 h1        1 1NL      0.045033
     67 H29        -6.8990   -1.8520   -1.4590 h1        1 1NL      0.045033
     68 H30        -6.1990   -2.3900   -3.0670 h1        1 1NL      0.045033
@<TRIPOS>BOND
     1    1    2 1   
     2    1   40 1   
     3    1   41 1   
     4    1   42 1   
     5    2    3 1   
     6    2    4 1   
     7    2    5 1   
     8    3   43 1   
     9    3   44 1   
    10    3   45 1   
    11    4   46 1   
    12    4   47 1   
    13    4   48 1   
    14    5    6 1   
    15    5    8 1   
    16    5   49 1   
    17    6    7 1   
    18    6   50 1   
    19    6   51 1   
    20    7   52 1   
    21    8    9 1   
    22    8   53 1   
    23    9   10 2   
    24    9   11 1   
    25   11   12 ar  
    26   11   16 ar  
    27   12   13 ar  
    28   12   54 1   
    29   13   14 ar  
    30   13   55 1   
    31   14   15 ar  
    32   14   20 1   
    33   15   16 ar  
    34   15   17 1   
    35   16   56 1   
    36   17   18 1   
    37   17   19 1   
    38   20   21 ar  
    39   20   25 ar  
    40   21   22 ar  
    41   21   57 1   
    42   22   23 ar  
    43   22   58 1   
    44   23   24 ar  
    45   23   38 1   
    46   24   25 ar  
    47   25   26 1   
    48   26   27 2   
    49   26   28 1   
    50   28   29 1   
    51   28   59 1   
    52   29   30 ar  
    53   29   34 ar  
    54   30   31 ar  
    55   30   60 1   
    56   31   32 ar  
    57   31   61 1   
    58   32   33 ar  
    59   32   62 1   
    60   33   34 ar  
    61   33   35 1   
    62   34   63 1   
    63   35   36 2   
    64   35   37 1   
    65   37   64 1   
    66   37   65 1   
    67   38   39 1   
    68   39   66 1   
    69   39   67 1   
    70   39   68 1   
@<TRIPOS>SUBSTRUCTURE
     1 1NL         1 TEMP              0 ****  ****    0 ROOT
