@<TRIPOS>MOLECULE
1NL
   70    72     1     0     0
SMALL
bcc


@<TRIPOS>ATOM
      1 C1         -0.0710    0.6310   -0.0220 c3        1 1NL     -0.107767
      2 C2          1.3620    0.4870    0.4810 c3        1 1NL     -0.064000
      3 C3          1.3610    0.3670    1.9960 c3        1 1NL     -0.107767
      4 C4          2.1360    1.7360    0.0740 c3        1 1NL     -0.107767
      5 C5          2.0180   -0.7470   -0.1970 c3        1 1NL      0.129500
      6 C6          3.5490   -0.8410   -0.0270 c3        1 1NL      0.111400
      7 O7          3.8320   -1.2520    1.3000 oh        1 1NL     -0.627800
      8 N8          1.3730   -2.0240    0.2690 n4        1 1NL     -0.676800
      9 C9          1.5230   -3.1950   -0.6900 c         1 1NL      0.582700
     10 O10         1.8450   -2.9170   -1.8370 o         1 1NL     -0.442100
     11 C11         1.2890   -4.5090   -0.1010 ca        1 1NL     -0.228600
     12 C12         0.4560   -4.7180    1.0140 ca        1 1NL     -0.095000
     13 C13         0.2960   -5.9980    1.5110 ca        1 1NL     -0.127000
     14 C14         0.9640   -7.1050    0.9350 cp        1 1NL      0.094000
     15 C15         1.7930   -6.8970   -0.1730 ca        1 1NL     -0.102600
     16 C16         1.9390   -5.5990   -0.6910 ca        1 1NL      0.004000
     17 C17         2.6280   -7.9530   -0.8390 c         1 1NL      0.918200
     18 O18         2.4220   -9.1930   -0.6760 o         1 1NL     -0.836800
     19 O19         3.6040   -7.5620   -1.5630 o         1 1NL     -0.836800
     20 C20         0.6610   -8.4090    1.5370 cp        1 1NL     -0.138300
     21 C21        -0.5940   -8.9820    1.2190 ca        1 1NL     -0.058000
     22 C22        -1.0050  -10.1450    1.8370 ca        1 1NL     -0.224300
     23 C23        -0.1250  -10.7250    2.7980 ca        1 1NL      0.646600
     24 N24         1.0910  -10.2220    3.0980 nb        1 1NL     -0.739000
     25 C25         1.4840   -9.0880    2.4580 ca        1 1NL      0.405800
     26 C26         2.8960   -8.6050    2.7120 c         1 1NL      0.580600
     27 O27         3.2340   -7.4470    2.4350 o         1 1NL     -0.530100
     28 N28         3.8310   -9.5000    3.2840 n         1 1NL     -0.463100
     29 C29         4.9540   -9.9130    2.5380 ca        1 1NL      0.056600
     30 C30         6.0880  -10.4360    3.2020 ca        1 1NL     -0.092000
     31 C31         7.1770  -10.8910    2.4660 ca        1 1NL     -0.121000
     32 C32         7.1670  -10.8570    1.0730 ca        1 1NL     -0.072000
     33 C33         6.0460  -10.3420    0.4040 ca        1 1NL     -0.164600
     34 C34         4.9580   -9.8480    1.1290 ca        1 1NL     -0.128000
     35 C35         6.0600  -10.3830   -1.0640 c         1 1NL      0.570700
     36 O36         7.0040  -10.7300   -1.7740 o         1 1NL     -0.473100
     37 N37         4.8260   -9.9970   -1.7960 n4        1 1NL     -0.782400
     38 O38        -0.6150  -11.8580    3.4060 os        1 1NL     -0.435100
     39 C39         0.2050  -12.5060    4.3800 c3        1 1NL      0.121700
     40 H1         -0.1020    0.6280   -1.1390 hc        1 1NL      0.054922
     41 H2         -0.7360   -0.1790    0.3640 hc        1 1NL      0.054922
     42 H3         -0.4950    1.6030    0.3350 hc        1 1NL      0.054922
     43 H4          1.0810    1.3510    2.4470 hc        1 1NL      0.054922
     44 H5          2.3750    0.0830    2.3710 hc        1 1NL      0.054922
     45 H6          0.6180   -0.3890    2.3460 hc        1 1NL      0.054922
     46 H7          2.3380    1.7390   -1.0240 hc        1 1NL      0.054922
     47 H8          3.1030    1.8020    0.6300 hc        1 1NL      0.054922
     48 H9          1.5370    2.6460    0.3240 hc        1 1NL      0.054922
     49 H10         1.8240   -0.6620   -1.3120 hx        1 1NL      0.120700
     50 H11         3.9540   -1.6020   -0.7520 h1        1 1NL      0.069200
     51 H12         4.0110    0.1560   -0.2490 h1        1 1NL      0.069200
     52 H13         4.7910   -1.2210    1.4130 ho        1 1NL      0.444000
     53 H14         1.7980   -2.2860    1.1710 hn        1 1NL      0.466300
     54 H15        -0.0920   -3.8920    1.4890 ha        1 1NL      0.120000
     55 H16        -0.3610   -6.1660    2.3810 ha        1 1NL      0.157000
     56 H17         2.6010   -5.4560   -1.5680 ha        1 1NL      0.191000
     57 H19        -1.2380   -8.4940    0.4700 ha        1 1NL      0.154000
     58 H20        -1.9670  -10.6290    1.6170 ha        1 1NL      0.175000
     59 H21         3.4570  -10.2150    3.8750 hn        1 1NL      0.330500
     60 H22         6.1120  -10.4840    4.3030 ha        1 1NL      0.159000
     61 H23         8.0610  -11.2870    2.9930 ha        1 1NL      0.158000
     62 H24         8.0280  -11.2340    0.4960 ha        1 1NL      0.166000
     63 H25         4.0850   -9.3950    0.6220 ha        1 1NL      0.183000
     64 H26         3.9610  -10.3160   -1.3150 hn        1 1NL      0.488467
     65 H27         4.8490  -10.3580   -2.7500 hn        1 1NL      0.488467
     66 H28        -0.4290  -13.3710    4.7010 h1        1 1NL      0.056033
     67 H29         1.1570  -12.8600    3.9170 h1        1 1NL      0.056033
     68 H30         0.4120  -11.8230    5.2380 h1        1 1NL      0.056033
     69 H82         0.3720   -1.8560    0.4190 hn        1 1NL      0.466300
     70 H373        4.7340   -8.9420   -1.8340 hn        1 1NL      0.488467
@<TRIPOS>BOND
     1    1    2 1   
     2    1   40 1   
     3    1   41 1   
     4    1   42 1   
     5    2    3 1   
     6    2    4 1   
     7    2    5 1   
     8    3   43 1   
     9    3   44 1   
    10    3   45 1   
    11    4   46 1   
    12    4   47 1   
    13    4   48 1   
    14    5    6 1   
    15    5    8 1   
    16    5   49 1   
    17    6    7 1   
    18    6   50 1   
    19    6   51 1   
    20    7   52 1   
    21    8    9 1   
    22    8   53 1   
    23    8   69 1   
    24    9   10 2   
    25    9   11 1   
    26   11   12 ar  
    27   11   16 ar  
    28   12   13 ar  
    29   12   54 1   
    30   13   14 ar  
    31   13   55 1   
    32   14   15 ar  
    33   14   20 1   
    34   15   16 ar  
    35   15   17 1   
    36   16   56 1   
    37   17   18 1   
    38   17   19 1   
    39   20   21 ar  
    40   20   25 ar  
    41   21   22 ar  
    42   21   57 1   
    43   22   23 ar  
    44   22   58 1   
    45   23   24 ar  
    46   23   38 1   
    47   24   25 ar  
    48   25   26 1   
    49   26   27 2   
    50   26   28 1   
    51   28   29 1   
    52   28   59 1   
    53   29   30 ar  
    54   29   34 ar  
    55   30   31 ar  
    56   30   60 1   
    57   31   32 ar  
    58   31   61 1   
    59   32   33 ar  
    60   32   62 1   
    61   33   34 ar  
    62   33   35 1   
    63   34   63 1   
    64   35   36 2   
    65   35   37 1   
    66   37   64 1   
    67   37   65 1   
    68   37   70 1   
    69   38   39 1   
    70   39   66 1   
    71   39   67 1   
    72   39   68 1   
@<TRIPOS>SUBSTRUCTURE
     1 1NL         1 TEMP              0 ****  ****    0 ROOT
