@<TRIPOS>MOLECULE
1NM
   45    47     1     0     0
SMALL
bcc


@<TRIPOS>ATOM
      1 FAD        -0.2980    0.6920    0.2760 f         1 1NM     -0.240300
      2 CAJ         0.9630    0.1400    0.1770 c3        1 1NM      0.157900
      3 CAK         1.6950    0.1440    1.5270 c3        1 1NM      0.088400
      4 OAQ         1.5260   -1.1760    2.0540 os        1 1NM     -0.306900
      5 CAZ         1.9880   -1.3720    3.3400 ca        1 1NM      0.103100
      6 CAI         2.7410   -0.4560    4.0660 ca        1 1NM     -0.171000
      7 CAY         1.6570   -2.6330    3.9140 ca        1 1NM      0.120100
      8 OAP         0.9150   -3.4700    3.1100 os        1 1NM     -0.301900
      9 CAA         0.5450   -4.7190    3.6840 c3        1 1NM      0.109700
     10 CAF         2.0920   -2.9360    5.2030 ca        1 1NM     -0.189000
     11 CAE         2.8460   -2.0100    5.9270 ca        1 1NM     -0.076000
     12 CAW         3.1750   -0.7740    5.3670 ca        1 1NM     -0.137500
     13 CBA         3.9690    0.1960    6.1040 cc        1 1NM      0.462900
     14 NAO         4.1390    0.2080    7.4300 nd        1 1NM     -0.615000
     15 SAS         4.8050    1.4680    5.2760 ss        1 1NM     -0.086300
     16 CAG         5.4020    2.0500    6.7150 cc        1 1NM     -0.241400
     17 CAV         4.9650    1.2720    7.7870 cd        1 1NM      0.342600
     18 CAL         5.3180    1.5440    9.1970 c3        1 1NM     -0.054600
     19 SAR         6.8740    0.7260    9.4610 ss        1 1NM     -0.201400
     20 C2          7.3090    1.1150   11.0910 ca        1 1NM      0.793300
     21 N3          8.4990    0.5850   11.4910 nb        1 1NM     -0.798000
     22 N1          6.4570    1.8820   11.8250 nb        1 1NM     -0.798000
     23 C6          6.8490    2.1680   13.1140 ca        1 1NM      0.709200
     24 NAB         6.0650    3.0180   13.8880 nv        1 1NM     -0.941500
     25 C5          8.0670    1.6570   13.6430 ca        1 1NM     -0.505600
     26 C4          8.8870    0.8750   12.7800 ca        1 1NM      0.709200
     27 NAC        10.1310    0.4390   13.2240 nv        1 1NM     -0.941500
     28 H1          0.8700   -0.9170   -0.1980 h1        1 1NM      0.061200
     29 H2          1.5620    0.7460   -0.5580 h1        1 1NM      0.061200
     30 H3          1.2530    0.9020    2.2230 h1        1 1NM      0.053700
     31 H4          2.7880    0.3430    1.3750 h1        1 1NM      0.053700
     32 H5          3.0000    0.5230    3.6340 ha        1 1NM      0.141000
     33 H6         -0.0790   -4.5660    4.5970 h1        1 1NM      0.046700
     34 H7          1.4510   -5.3270    3.9240 h1        1 1NM      0.046700
     35 H8         -0.0540   -5.2060    2.8720 h1        1 1NM      0.046700
     36 H9          1.8450   -3.9040    5.6630 ha        1 1NM      0.145000
     37 H10         3.1790   -2.2640    6.9450 ha        1 1NM      0.159000
     38 H11         6.0510    2.9200    6.8040 h4        1 1NM      0.188000
     39 H12         5.4130    2.6460    9.3630 h1        1 1NM      0.094200
     40 H13         4.5400    1.1590    9.9030 h1        1 1NM      0.094200
     41 H14         5.1390    3.2020   13.5770 hn        1 1NM      0.418050
     42 H15         6.1860    2.9360   14.8690 hn        1 1NM      0.418050
     43 H16         8.3780    1.8830   14.6680 ha        1 1NM      0.146000
     44 H17        10.6020   -0.2460   12.6800 hn        1 1NM      0.418050
     45 H18        10.2350    0.3660   14.2070 hn        1 1NM      0.418050
@<TRIPOS>BOND
     1    1    2 1   
     2    2    3 1   
     3    2   28 1   
     4    2   29 1   
     5    3    4 1   
     6    3   30 1   
     7    3   31 1   
     8    4    5 1   
     9    5    6 ar  
    10    5    7 ar  
    11    6   12 ar  
    12    6   32 1   
    13    7    8 1   
    14    7   10 ar  
    15    8    9 1   
    16    9   33 1   
    17    9   34 1   
    18    9   35 1   
    19   10   11 ar  
    20   10   36 1   
    21   11   12 ar  
    22   11   37 1   
    23   12   13 1   
    24   13   14 2   
    25   13   15 1   
    26   14   17 1   
    27   15   16 1   
    28   16   17 2   
    29   16   38 1   
    30   17   18 1   
    31   18   19 1   
    32   18   39 1   
    33   18   40 1   
    34   19   20 1   
    35   20   21 ar  
    36   20   22 ar  
    37   21   26 ar  
    38   22   23 ar  
    39   23   24 1   
    40   23   25 ar  
    41   24   41 1   
    42   24   42 1   
    43   25   26 ar  
    44   25   43 1   
    45   26   27 1   
    46   27   44 1   
    47   27   45 1   
@<TRIPOS>SUBSTRUCTURE
     1 1NM         1 TEMP              0 ****  ****    0 ROOT
