@<TRIPOS>MOLECULE
1NM
   45    47     1     0     0
SMALL
bcc


@<TRIPOS>ATOM
      1 FAD        -7.8570    2.0510    1.0940 f         1 1NM     -0.240300
      2 CAJ        -7.3850    1.8560   -0.1870 c3        1 1NM      0.157900
      3 CAK        -5.8900    1.5040   -0.1970 c3        1 1NM      0.088400
      4 OAQ        -5.8360    0.0790   -0.3200 os        1 1NM     -0.306900
      5 CAZ        -4.5810   -0.4850   -0.2040 ca        1 1NM      0.103100
      6 CAI        -3.3870    0.2260   -0.1670 ca        1 1NM     -0.171000
      7 CAY        -4.5630   -1.9070   -0.1410 ca        1 1NM      0.120100
      8 OAP        -5.7990   -2.5150   -0.1930 os        1 1NM     -0.301900
      9 CAA        -5.7990   -3.9360   -0.0960 c3        1 1NM      0.108700
     10 CAF        -3.3440   -2.5760   -0.0420 ca        1 1NM     -0.189000
     11 CAE        -2.1480   -1.8540   -0.0030 ca        1 1NM     -0.075000
     12 CAW        -2.1620   -0.4600   -0.0660 ca        1 1NM     -0.137500
     13 CBA        -0.9240    0.3040   -0.0370 cc        1 1NM      0.462900
     14 NAO         0.2510   -0.1450    0.4160 nd        1 1NM     -0.615000
     15 SAS        -0.8750    1.9330   -0.6280 ss        1 1NM     -0.086300
     16 CAG         0.7450    2.0440   -0.2670 cc        1 1NM     -0.241400
     17 CAV         1.2150    0.8520    0.2830 cd        1 1NM      0.342600
     18 CAL         2.6130    0.6440    0.7180 c3        1 1NM     -0.054600
     19 SAR         3.4870    0.1120   -0.7350 ss        1 1NM     -0.201400
     20 C2          5.1340   -0.0540   -0.2280 ca        1 1NM      0.793300
     21 N3          5.9850   -0.4480   -1.2170 nb        1 1NM     -0.798000
     22 N1          5.4410    0.2000    1.0750 nb        1 1NM     -0.798000
     23 C6          6.7640    0.0580    1.4280 ca        1 1NM      0.709200
     24 NAB         7.1580    0.3860    2.7220 nh        1 1NM     -0.941500
     25 C5          7.7390   -0.3620    0.4810 ca        1 1NM     -0.505600
     26 C4          7.3060   -0.5880   -0.8570 ca        1 1NM      0.709200
     27 NAC         8.2420   -0.9020   -1.8380 nh        1 1NM     -0.941500
     28 H1         -7.9700    1.0230   -0.6690 h1        1 1NM      0.061200
     29 H2         -7.5350    2.8040   -0.7730 h1        1 1NM      0.061200
     30 H3         -5.3880    1.9700   -1.0840 h1        1 1NM      0.053700
     31 H4         -5.3920    1.8340    0.7510 h1        1 1NM      0.053700
     32 H5         -3.3890    1.3260   -0.2100 ha        1 1NM      0.141000
     33 H6         -5.2500   -4.3900   -0.9560 h1        1 1NM      0.046700
     34 H7         -5.3540   -4.2660    0.8740 h1        1 1NM      0.046700
     35 H8         -6.8870   -4.1950   -0.1410 h1        1 1NM      0.046700
     36 H9         -3.3100   -3.6740    0.0090 ha        1 1NM      0.145000
     37 H10        -1.1940   -2.3980    0.0800 ha        1 1NM      0.159000
     38 H11         1.3540    2.9280   -0.4440 h4        1 1NM      0.188000
     39 H12         3.0380    1.6010    1.1120 h1        1 1NM      0.094200
     40 H13         2.6870   -0.1220    1.5310 h1        1 1NM      0.094200
     41 H14         8.0050   -0.0300    3.0290 hn        1 1NM      0.418050
     42 H15         6.4470    0.4840    3.4100 hn        1 1NM      0.418050
     43 H16         8.7900   -0.4770    0.7630 ha        1 1NM      0.146000
     44 H17         9.0830   -1.3140   -1.5120 hn        1 1NM      0.418050
     45 H18         7.9030   -1.2280   -2.7130 hn        1 1NM      0.418050
@<TRIPOS>BOND
     1    1    2 1   
     2    2    3 1   
     3    2   28 1   
     4    2   29 1   
     5    3    4 1   
     6    3   30 1   
     7    3   31 1   
     8    4    5 1   
     9    5    6 ar  
    10    5    7 ar  
    11    6   12 ar  
    12    6   32 1   
    13    7    8 1   
    14    7   10 ar  
    15    8    9 1   
    16    9   33 1   
    17    9   34 1   
    18    9   35 1   
    19   10   11 ar  
    20   10   36 1   
    21   11   12 ar  
    22   11   37 1   
    23   12   13 1   
    24   13   14 2   
    25   13   15 1   
    26   14   17 1   
    27   15   16 1   
    28   16   17 2   
    29   16   38 1   
    30   17   18 1   
    31   18   19 1   
    32   18   39 1   
    33   18   40 1   
    34   19   20 1   
    35   20   21 ar  
    36   20   22 ar  
    37   21   26 ar  
    38   22   23 ar  
    39   23   24 1   
    40   23   25 ar  
    41   24   41 1   
    42   24   42 1   
    43   25   26 ar  
    44   25   43 1   
    45   26   27 1   
    46   27   44 1   
    47   27   45 1   
@<TRIPOS>SUBSTRUCTURE
     1 1NM         1 TEMP              0 ****  ****    0 ROOT
