@<TRIPOS>MOLECULE
1NM
   45    38     1     0     0
SMALL
bcc


@<TRIPOS>ATOM
      1 FAD        -5.9830   -0.5670   -4.1510 f         1 1NM     -0.173000
      2 CAJ        -5.2060   -0.6720   -5.1860 c3        1 1NM      0.006000
      3 CAK        -3.7840   -0.7690   -4.7380 c3        1 1NM     -0.058000
      4 OAQ        -3.6990   -1.6550   -3.5860 os        1 1NM     -0.214000
      5 CAZ        -2.3330   -2.0270   -3.2220 c2        1 1NM      0.028000
      6 CAI        -1.5270   -1.1210   -2.5130 c1        1 1NM     -0.103000
      7 CAY        -1.8630   -3.3100   -3.4900 c2        1 1NM      0.068000
      8 OAP        -2.6270   -4.1840   -4.2010 os        1 1NM     -0.208000
      9 CAA        -2.9090   -5.4020   -3.5070 c3        1 1NM     -0.078000
     10 CAF        -0.5930   -3.6930   -3.0530 c1        1 1NM     -0.199000
     11 CAE         0.2090   -2.7830   -2.3450 c1        1 1NM     -0.217500
     12 CAW        -0.2620   -1.5030   -2.0780 c1        1 1NM      0.071500
     13 CBA         0.6530   -0.4730   -1.3590 c1        1 1NM     -0.229000
     14 NAO         0.9810   -0.4670    0.0360 n2        1 1NM     -0.090000
     15 SAS         1.3110    0.7710   -2.0080 ss        1 1NM      0.519000
     16 CAG         2.0600    1.5280   -0.9020 c1        1 1NM     -0.452000
     17 CAV         1.8770    0.8050    0.3330 c1        1 1NM     -0.080000
     18 CAL         2.5080    1.1520    1.6640 c2        1 1NM     -0.221000
     19 SAR         1.9290    2.7430    2.2000 ss        1 1NM      0.308000
     20 C2          2.3930    3.0100    3.8800 c1        1 1NM     -0.059000
     21 N3          1.5660    2.5950    4.8970 n1        1 1NM     -0.293000
     22 N1          3.5480    3.6790    4.1660 n1        1 1NM     -0.253000
     23 C6          3.8830    3.9350    5.4470 c1        1 1NM      0.071500
     24 NAB         4.9960    4.7970    5.7350 n2        1 1NM     -0.341000
     25 C5          3.0570    3.5210    6.4700 c1        1 1NM     -0.217500
     26 C4          1.8980    2.8490    6.1850 c1        1 1NM      0.192000
     27 NAC         1.1160    2.3060    7.2340 n3        1 1NM     -0.342000
     28 H1         -5.4330   -1.4410   -5.6680 h1        1 1NM      0.096500
     29 H2         -5.3200    0.1440   -5.7770 h1        1 1NM      0.096500
     30 H3         -3.4500    0.1380   -4.4890 h1        1 1NM      0.098000
     31 H4         -3.2220   -1.1410   -5.4890 h1        1 1NM      0.098000
     32 H5         -1.8540   -0.2240   -2.3250 ha        1 1NM      0.154000
     33 H6         -3.6430   -5.8470   -3.9310 h1        1 1NM      0.087333
     34 H7         -2.0700   -6.0190   -3.5280 h1        1 1NM      0.087333
     35 H8         -3.1470   -5.1960   -2.5560 h1        1 1NM      0.087333
     36 H9         -0.2440   -4.6380   -3.2490 ha        1 1NM      0.144000
     37 H10         1.0990   -3.0510   -2.0400 ha        1 1NM      0.153000
     38 H11         2.5770    2.3630   -1.0160 DU        1 1NM      0.187000
     39 H12         2.2540    0.4490    2.3540 h4        1 1NM      0.133000
     40 H13         3.5120    1.1770    1.5610 h4        1 1NM      0.133000
     41 H14         5.4650    5.2150    5.0300 hn        1 1NM      0.215000
     42 H15         5.2340    4.9680    6.6160 hn        1 1NM      0.215000
     43 H16         3.3110    3.7150    7.4430 ha        1 1NM      0.153000
     44 H17         1.2740    2.5560    8.1010 hn        1 1NM      0.213500
     45 H18         0.4570    1.7720    7.0510 hn        1 1NM      0.213500
@<TRIPOS>BOND
     1    1    2 1   
     2    2    3 1   
     3    2   28 1   
     4    2   29 1   
     5    3    4 1   
     6    3   30 1   
     7    3   31 1   
     8    4    5 1   
     9    5    6 1   
    10    5    7 1   
    11    6   32 1   
    12    7    8 1   
    13    7   10 1   
    14    8    9 1   
    15    9   33 1   
    16    9   34 1   
    17    9   35 1   
    18   10   36 1   
    19   11   12 1   
    20   11   37 1   
    21   13   14 1   
    22   13   15 1   
    23   14   17 1   
    24   15   16 1   
    25   16   17 1   
    26   18   19 1   
    27   18   39 1   
    28   18   40 1   
    29   19   20 1   
    30   20   22 1   
    31   21   26 1   
    32   23   25 1   
    33   24   41 1   
    34   24   42 1   
    35   25   43 1   
    36   26   27 1   
    37   27   44 1   
    38   27   45 1   
@<TRIPOS>SUBSTRUCTURE
     1 1NM         1 TEMP              0 ****  ****    0 ROOT
