@<TRIPOS>MOLECULE
1NM
   45    47     1     0     0
SMALL
bcc


@<TRIPOS>ATOM
      1 FAD        -0.2790    0.7120    0.2630 f         1 1NM     -0.240300
      2 CAJ         0.9770    0.1470    0.1720 c3        1 1NM      0.157900
      3 CAK         1.7020    0.1470    1.5260 c3        1 1NM      0.088400
      4 OAQ         1.5210   -1.1700    2.0540 os        1 1NM     -0.306900
      5 CAZ         1.9820   -1.3690    3.3400 ca        1 1NM      0.103100
      6 CAI         2.7360   -0.4550    4.0680 ca        1 1NM     -0.171000
      7 CAY         1.6490   -2.6300    3.9120 ca        1 1NM      0.120100
      8 OAP         0.9070   -3.4640    3.1050 os        1 1NM     -0.301900
      9 CAA         0.5330   -4.7140    3.6770 c3        1 1NM      0.108700
     10 CAF         2.0820   -2.9360    5.2010 ca        1 1NM     -0.189000
     11 CAE         2.8370   -2.0120    5.9270 ca        1 1NM     -0.075000
     12 CAW         3.1680   -0.7750    5.3690 ca        1 1NM     -0.137500
     13 CBA         3.9620    0.1920    6.1090 cc        1 1NM      0.463900
     14 NAO         4.1310    0.2010    7.4350 nd        1 1NM     -0.615000
     15 SAS         4.8000    1.4660    5.2850 ss        1 1NM     -0.087300
     16 CAG         5.3970    2.0430    6.7250 cc        1 1NM     -0.241400
     17 CAV         4.9590    1.2630    7.7950 cd        1 1NM      0.343600
     18 CAL         5.3120    1.5300    9.2060 c3        1 1NM     -0.055600
     19 SAR         6.8570    0.6940    9.4750 ss        1 1NM     -0.200400
     20 C2          7.2960    1.0850   11.1030 ca        1 1NM      0.792300
     21 N3          8.4910    0.5630   11.4990 nb        1 1NM     -0.797000
     22 N1          6.4470    1.8550   11.8380 nb        1 1NM     -0.797000
     23 C6          6.8470    2.1500   13.1210 ca        1 1NM      0.705700
     24 NAB         6.0720    3.0160   13.8920 nh        1 1NM     -0.938000
     25 C5          8.0660    1.6420   13.6480 ca        1 1NM     -0.500600
     26 C4          8.8680    0.8310   12.7950 ca        1 1NM      0.705700
     27 NAC        10.0270    0.2440   13.2970 nh        1 1NM     -0.938000
     28 H1          1.5850    0.7430   -0.5620 h1        1 1NM      0.061200
     29 H2          0.8740   -0.9110   -0.1990 h1        1 1NM      0.061200
     30 H3          1.2620    0.9100    2.2190 h1        1 1NM      0.053700
     31 H4          2.7970    0.3390    1.3790 h1        1 1NM      0.053700
     32 H5          2.9970    0.5240    3.6380 ha        1 1NM      0.141000
     33 H6          1.4380   -5.3230    3.9180 h1        1 1NM      0.046700
     34 H7         -0.0650   -5.1990    2.8640 h1        1 1NM      0.046700
     35 H8         -0.0920   -4.5610    4.5900 h1        1 1NM      0.046700
     36 H9          1.8330   -3.9040    5.6590 ha        1 1NM      0.145000
     37 H10         3.1680   -2.2690    6.9460 ha        1 1NM      0.160000
     38 H11         6.0470    2.9120    6.8170 h4        1 1NM      0.187000
     39 H12         5.4190    2.6310    9.3720 h1        1 1NM      0.094200
     40 H13         4.5270    1.1530    9.9090 h1        1 1NM      0.094200
     41 H14         6.1820    2.9160   14.8740 hn        1 1NM      0.416050
     42 H15         5.1450    3.1960   13.5820 hn        1 1NM      0.416050
     43 H16         8.3770    1.8640   14.6740 ha        1 1NM      0.146000
     44 H17        10.4480    0.7190   14.0590 hn        1 1NM      0.416050
     45 H18        10.6530   -0.1670   12.6430 hn        1 1NM      0.416050
@<TRIPOS>BOND
     1    1    2 1   
     2    2    3 1   
     3    2   28 1   
     4    2   29 1   
     5    3    4 1   
     6    3   30 1   
     7    3   31 1   
     8    4    5 1   
     9    5    6 ar  
    10    5    7 ar  
    11    6   12 ar  
    12    6   32 1   
    13    7    8 1   
    14    7   10 ar  
    15    8    9 1   
    16    9   33 1   
    17    9   34 1   
    18    9   35 1   
    19   10   11 ar  
    20   10   36 1   
    21   11   12 ar  
    22   11   37 1   
    23   12   13 1   
    24   13   14 2   
    25   13   15 1   
    26   14   17 1   
    27   15   16 1   
    28   16   17 2   
    29   16   38 1   
    30   17   18 1   
    31   18   19 1   
    32   18   39 1   
    33   18   40 1   
    34   19   20 1   
    35   20   21 ar  
    36   20   22 ar  
    37   21   26 ar  
    38   22   23 ar  
    39   23   24 1   
    40   23   25 ar  
    41   24   41 1   
    42   24   42 1   
    43   25   26 ar  
    44   25   43 1   
    45   26   27 1   
    46   27   44 1   
    47   27   45 1   
@<TRIPOS>SUBSTRUCTURE
     1 1NM         1 TEMP              0 ****  ****    0 ROOT
