@<TRIPOS>MOLECULE
1NM
   47    49     1     0     0
SMALL
bcc


@<TRIPOS>ATOM
      1 FAD         0.6060   -0.0210   -0.1940 f         1 1NM     -0.232300
      2 CAJ         1.8950   -0.4800   -0.0240 c3        1 1NM      0.159900
      3 CAK         2.3950   -0.2390    1.4080 c3        1 1NM      0.084400
      4 OAQ         2.1500   -1.4660    2.1080 os        1 1NM     -0.295900
      5 CAZ         2.2440   -1.4120    3.4790 ca        1 1NM      0.118100
      6 CAI         2.8070   -0.3710    4.2030 ca        1 1NM     -0.172000
      7 CAY         1.7350   -2.5610    4.1620 ca        1 1NM      0.156100
      8 OAP         1.2100   -3.5330    3.3510 os        1 1NM     -0.286900
      9 CAA         0.6470   -4.6700    4.0040 c3        1 1NM      0.104700
     10 CAF         1.8080   -2.6220    5.5530 ca        1 1NM     -0.201000
     11 CAE         2.3710   -1.5660    6.2740 ca        1 1NM     -0.060000
     12 CAW         2.8670   -0.4420    5.6120 ca        1 1NM     -0.185500
     13 CBA         3.4330    0.6750    6.3430 cc        1 1NM      0.491900
     14 NAO         3.8970    0.6370    7.5990 nd        1 1NM     -0.642000
     15 SAS         3.5370    2.2400    5.6050 ss        1 1NM      0.059700
     16 CAG         4.2260    2.8800    6.9590 cc        1 1NM     -0.235400
     17 CAV         4.3490    1.9080    7.9580 cd        1 1NM      0.246600
     18 CAL         4.8590    2.1680    9.3160 c3        1 1NM     -0.082600
     19 SAR         6.3960    1.2890    9.2660 ss        1 1NM      0.186600
     20 C2          7.0490    1.2900   10.7830 ca        1 1NM      0.705300
     21 N3          8.2700    0.6240   10.9240 nb        1 1NM     -0.694000
     22 N1          6.4000    1.9070   11.8480 nb        1 1NM     -0.694000
     23 C6          6.9880    1.8280   13.0540 ca        1 1NM      0.591200
     24 NAB         6.2890    2.4750   14.1910 n4        1 1NM     -0.834800
     25 C5          8.2190    1.1710   13.3080 ca        1 1NM     -0.446600
     26 C4          8.8050    0.5830   12.1490 ca        1 1NM      0.591200
     27 NAC        10.0970   -0.1300   12.2980 n4        1 1NM     -0.834800
     28 H1          2.5720    0.0690   -0.7360 h1        1 1NM      0.068700
     29 H2          1.9260   -1.5820   -0.2540 h1        1 1NM      0.068700
     30 H3          1.8390    0.6070    1.8880 h1        1 1NM      0.052700
     31 H4          3.4980   -0.0370    1.4110 h1        1 1NM      0.052700
     32 H5          3.2120    0.5110    3.6820 ha        1 1NM      0.139000
     33 H6          0.2700   -5.2890    3.1490 h1        1 1NM      0.056700
     34 H7          1.4310   -5.2210    4.5770 h1        1 1NM      0.056700
     35 H8         -0.1940   -4.3640    4.6730 h1        1 1NM      0.056700
     36 H9          1.4170   -3.4970    6.0930 ha        1 1NM      0.154000
     37 H10         2.4090   -1.6300    7.3720 ha        1 1NM      0.146000
     38 H11         4.5240    3.9240    7.0660 h4        1 1NM      0.193000
     39 H12         5.0060    3.2630    9.4920 h1        1 1NM      0.111700
     40 H13         4.1670    1.7720   10.1020 h1        1 1NM      0.111700
     41 H14         6.9250    3.1480   14.6390 hn        1 1NM      0.490967
     42 H15         6.0150    1.7520   14.8700 hn        1 1NM      0.490967
     43 H16         8.6800    1.1190   14.3020 ha        1 1NM      0.190000
     44 H17         9.9750   -0.9110   12.9560 hn        1 1NM      0.490967
     45 H18        10.8020    0.5240   12.6630 hn        1 1NM      0.490967
     46 HAB3        5.4410    2.9740   13.8720 hn        1 1NM      0.490967
     47 HAC3       10.4230   -0.5030   11.3890 hn        1 1NM      0.490967
@<TRIPOS>BOND
     1    1    2 1   
     2    2    3 1   
     3    2   28 1   
     4    2   29 1   
     5    3    4 1   
     6    3   30 1   
     7    3   31 1   
     8    4    5 1   
     9    5    6 ar  
    10    5    7 ar  
    11    6   12 ar  
    12    6   32 1   
    13    7    8 1   
    14    7   10 ar  
    15    8    9 1   
    16    9   33 1   
    17    9   34 1   
    18    9   35 1   
    19   10   11 ar  
    20   10   36 1   
    21   11   12 ar  
    22   11   37 1   
    23   12   13 1   
    24   13   14 2   
    25   13   15 1   
    26   14   17 1   
    27   15   16 1   
    28   16   17 2   
    29   16   38 1   
    30   17   18 1   
    31   18   19 1   
    32   18   39 1   
    33   18   40 1   
    34   19   20 1   
    35   20   21 ar  
    36   20   22 ar  
    37   21   26 ar  
    38   22   23 ar  
    39   23   24 1   
    40   23   25 ar  
    41   24   41 1   
    42   24   42 1   
    43   24   46 1   
    44   25   26 ar  
    45   25   43 1   
    46   26   27 1   
    47   27   44 1   
    48   27   45 1   
    49   27   47 1   
@<TRIPOS>SUBSTRUCTURE
     1 1NM         1 TEMP              0 ****  ****    0 ROOT
