@<TRIPOS>MOLECULE
1NN
   51    53     1     0     0
SMALL
bcc


@<TRIPOS>ATOM
      1 FAE         4.8480   -4.8550    1.0330 f         1 1NN     -0.240300
      2 CAJ         4.5120   -4.4210   -0.2330 c3        1 1NN      0.157900
      3 CAL         3.7510   -3.0880   -0.2000 c3        1 1NN      0.087400
      4 OAR         4.7450   -2.0780   -0.4020 os        1 1NN     -0.308900
      5 CAZ         4.3090   -0.7750   -0.2630 ca        1 1NN      0.098100
      6 CAI         2.9740   -0.3920   -0.1490 ca        1 1NN     -0.135000
      7 CAY         5.3350    0.2090   -0.2660 ca        1 1NN      0.117100
      8 OAQ         6.6190   -0.2740   -0.3920 os        1 1NN     -0.300900
      9 CAB         7.6570    0.6990   -0.3700 c3        1 1NN      0.109700
     10 CAG         4.9950    1.5580   -0.1530 ca        1 1NN     -0.182000
     11 CAF         3.6570    1.9330   -0.0350 ca        1 1NN     -0.117000
     12 CAW         2.6440    0.9690   -0.0340 ca        1 1NN     -0.131500
     13 CBC         1.2540    1.3830    0.0780 cc        1 1NN      0.456900
     14 NAP         0.2390    0.5930    0.4430 nd        1 1NN     -0.617000
     15 SAT         0.7900    3.0070   -0.2790 ss        1 1NN     -0.088300
     16 CBB        -0.8150    2.6620    0.0670 cc        1 1NN     -0.165700
     17 CAK        -1.9020    3.6500   -0.0320 c3        1 1NN     -0.014100
     18 CAA        -2.2000    4.3170    1.2910 c3        1 1NN     -0.091100
     19 CBA        -0.9490    1.3180    0.4360 cd        1 1NN      0.335600
     20 CAM        -2.2310    0.6830    0.8160 c3        1 1NN     -0.053600
     21 SAS        -2.9180    0.0460   -0.6950 ss        1 1NN     -0.202400
     22 C2         -4.4550   -0.6090   -0.2410 ca        1 1NN      0.793300
     23 N3         -5.1610   -1.1420   -1.2780 nb        1 1NN     -0.798500
     24 N1         -4.8230   -0.5570    1.0690 nb        1 1NN     -0.798500
     25 C6         -6.0540   -1.0890    1.3780 ca        1 1NN      0.709200
     26 NAC        -6.5270   -0.9890    2.6840 nh        1 1NN     -0.941500
     27 C5         -6.8720   -1.6840    0.3780 ca        1 1NN     -0.505600
     28 C4         -6.3920   -1.6720   -0.9640 ca        1 1NN      0.709200
     29 NAD        -7.2010   -2.1510   -1.9880 nh        1 1NN     -0.941500
     30 H1          5.4540   -4.3020   -0.8390 h1        1 1NN      0.059700
     31 H2          3.8540   -5.1960   -0.7150 h1        1 1NN      0.059700
     32 H3          3.0070   -3.0470   -1.0380 h1        1 1NN      0.057700
     33 H4          3.2380   -2.9400    0.7850 h1        1 1NN      0.057700
     34 H5          2.1730   -1.1470   -0.1470 ha        1 1NN      0.163000
     35 H6          8.5880    0.0840   -0.4700 h1        1 1NN      0.045700
     36 H7          7.5560    1.4040   -1.2320 h1        1 1NN      0.045700
     37 H8          7.6560    1.2590    0.5960 h1        1 1NN      0.045700
     38 H9          5.7740    2.3330   -0.1510 ha        1 1NN      0.143000
     39 H10         3.4040    3.0010    0.0620 ha        1 1NN      0.136000
     40 H11        -1.6320    4.4350   -0.7900 hc        1 1NN      0.061200
     41 H12        -2.8320    3.1360   -0.4090 hc        1 1NN      0.061200
     42 H13        -3.0430    5.0400    1.1670 hc        1 1NN      0.039367
     43 H14        -2.4920    3.5600    2.0590 hc        1 1NN      0.039367
     44 H15        -1.3080    4.8720    1.6670 hc        1 1NN      0.039367
     45 H16        -2.0810   -0.1380    1.5610 h1        1 1NN      0.093700
     46 H17        -2.9120    1.4430    1.2770 h1        1 1NN      0.093700
     47 H18        -7.2240   -1.6490    2.9360 hn        1 1NN      0.417550
     48 H19        -5.8720   -0.7560    3.3940 hn        1 1NN      0.417550
     49 H20        -7.8510   -2.1090    0.6240 ha        1 1NN      0.146000
     50 H21        -7.8950   -2.8060   -1.7160 hn        1 1NN      0.417550
     51 H22        -6.7830   -2.2990   -2.8770 hn        1 1NN      0.417550
@<TRIPOS>BOND
     1    1    2 1   
     2    2    3 1   
     3    2   30 1   
     4    2   31 1   
     5    3    4 1   
     6    3   32 1   
     7    3   33 1   
     8    4    5 1   
     9    5    6 ar  
    10    5    7 ar  
    11    6   12 ar  
    12    6   34 1   
    13    7    8 1   
    14    7   10 ar  
    15    8    9 1   
    16    9   35 1   
    17    9   36 1   
    18    9   37 1   
    19   10   11 ar  
    20   10   38 1   
    21   11   12 ar  
    22   11   39 1   
    23   12   13 1   
    24   13   14 2   
    25   13   15 1   
    26   14   19 1   
    27   15   16 1   
    28   16   17 1   
    29   16   19 2   
    30   17   18 1   
    31   17   40 1   
    32   17   41 1   
    33   18   42 1   
    34   18   43 1   
    35   18   44 1   
    36   19   20 1   
    37   20   21 1   
    38   20   45 1   
    39   20   46 1   
    40   21   22 1   
    41   22   23 ar  
    42   22   24 ar  
    43   23   28 ar  
    44   24   25 ar  
    45   25   26 1   
    46   25   27 ar  
    47   26   47 1   
    48   26   48 1   
    49   27   28 ar  
    50   27   49 1   
    51   28   29 1   
    52   29   50 1   
    53   29   51 1   
@<TRIPOS>SUBSTRUCTURE
     1 1NN         1 TEMP              0 ****  ****    0 ROOT
