@<TRIPOS>MOLECULE
1NN
   51    53     1     0     0
SMALL
bcc


@<TRIPOS>ATOM
      1 FAE         0.0840   -0.2120   -0.3160 f         1 1NN     -0.240300
      2 CAJ         1.3690   -0.6980   -0.1880 c3        1 1NN      0.157900
      3 CAL         1.9610   -0.3990    1.1960 c3        1 1NN      0.087400
      4 OAR         1.7060   -1.5690    1.9810 os        1 1NN     -0.308900
      5 CAZ         2.0080   -1.4640    3.3240 ca        1 1NN      0.098100
      6 CAI         2.7340   -0.4200    3.8950 ca        1 1NN     -0.134000
      7 CAY         1.5450   -2.5370    4.1340 ca        1 1NN      0.117100
      8 OAQ         0.8440   -3.5200    3.4700 os        1 1NN     -0.299900
      9 CAB         0.3560   -4.5890    4.2740 c3        1 1NN      0.109700
     10 CAG         1.8210   -2.5340    5.5020 ca        1 1NN     -0.182000
     11 CAF         2.5440   -1.4840    6.0660 ca        1 1NN     -0.117000
     12 CAW         3.0050   -0.4280    5.2730 ca        1 1NN     -0.132500
     13 CBC         3.7680    0.6510    5.8810 cc        1 1NN      0.457900
     14 NAP         3.9780    1.8520    5.3340 nd        1 1NN     -0.616000
     15 SAT         4.5010    0.4440    7.4310 ss        1 1NN     -0.089300
     16 CBB         5.1190    2.0030    7.3860 cc        1 1NN     -0.167700
     17 CAK         5.9370    2.5890    8.4600 c3        1 1NN     -0.014100
     18 CAA         5.1140    3.3890    9.4440 c3        1 1NN     -0.091100
     19 CBA         4.7540    2.6310    6.1890 cd        1 1NN      0.336600
     20 CAM         5.1250    4.0180    5.8300 c3        1 1NN     -0.053600
     21 SAS         6.6890    3.8930    4.9940 ss        1 1NN     -0.202400
     22 C2          7.1220    5.5260    4.6160 ca        1 1NN      0.792300
     23 N3          8.2970    5.6480    3.9370 nb        1 1NN     -0.797000
     24 N1          6.2880    6.5290    5.0100 nb        1 1NN     -0.797000
     25 C6          6.6650    7.8070    4.6640 ca        1 1NN      0.705700
     26 NAC         5.8070    8.8670    4.9460 nh        1 1NN     -0.939000
     27 C5          7.8820    8.0540    3.9700 ca        1 1NN     -0.501600
     28 C4          8.6880    6.9310    3.6280 ca        1 1NN      0.705700
     29 NAD         9.9280    7.1340    3.0260 nh        1 1NN     -0.939000
     30 H1          1.3550   -1.8110   -0.3590 h1        1 1NN      0.059700
     31 H2          2.0160   -0.2090   -0.9670 h1        1 1NN      0.059700
     32 H3          3.0680   -0.2430    1.1160 h1        1 1NN      0.058200
     33 H4          1.4730    0.4970    1.6590 h1        1 1NN      0.058200
     34 H5          3.0980    0.4120    3.2740 ha        1 1NN      0.164000
     35 H6         -0.1770   -5.2420    3.5370 h1        1 1NN      0.045700
     36 H7          1.2010   -5.1420    4.7520 h1        1 1NN      0.045700
     37 H8         -0.3530   -4.2100    5.0500 h1        1 1NN      0.045700
     38 H9          1.4700   -3.3540    6.1450 ha        1 1NN      0.143000
     39 H10         2.7480   -1.4920    7.1490 ha        1 1NN      0.136000
     40 H11         6.7220    3.2540    8.0020 hc        1 1NN      0.060700
     41 H12         6.4810    1.7720    9.0100 hc        1 1NN      0.060700
     42 H13         4.5790    4.2210    8.9270 hc        1 1NN      0.039367
     43 H14         4.3560    2.7420    9.9470 hc        1 1NN      0.039367
     44 H15         5.7820    3.8270   10.2250 hc        1 1NN      0.039367
     45 H16         5.2130    4.6410    6.7540 h1        1 1NN      0.094200
     46 H17         4.3580    4.4940    5.1680 h1        1 1NN      0.094200
     47 H18         6.2390    9.7580    5.0090 hn        1 1NN      0.416550
     48 H19         5.0640    8.6990    5.5850 hn        1 1NN      0.416550
     49 H20         8.1880    9.0720    3.7070 ha        1 1NN      0.146000
     50 H21        10.3820    6.3390    2.6390 hn        1 1NN      0.416550
     51 H22        10.0110    7.9740    2.5040 hn        1 1NN      0.416550
@<TRIPOS>BOND
     1    1    2 1   
     2    2    3 1   
     3    2   30 1   
     4    2   31 1   
     5    3    4 1   
     6    3   32 1   
     7    3   33 1   
     8    4    5 1   
     9    5    6 ar  
    10    5    7 ar  
    11    6   12 ar  
    12    6   34 1   
    13    7    8 1   
    14    7   10 ar  
    15    8    9 1   
    16    9   35 1   
    17    9   36 1   
    18    9   37 1   
    19   10   11 ar  
    20   10   38 1   
    21   11   12 ar  
    22   11   39 1   
    23   12   13 1   
    24   13   14 2   
    25   13   15 1   
    26   14   19 1   
    27   15   16 1   
    28   16   17 1   
    29   16   19 2   
    30   17   18 1   
    31   17   40 1   
    32   17   41 1   
    33   18   42 1   
    34   18   43 1   
    35   18   44 1   
    36   19   20 1   
    37   20   21 1   
    38   20   45 1   
    39   20   46 1   
    40   21   22 1   
    41   22   23 ar  
    42   22   24 ar  
    43   23   28 ar  
    44   24   25 ar  
    45   25   26 1   
    46   25   27 ar  
    47   26   47 1   
    48   26   48 1   
    49   27   28 ar  
    50   27   49 1   
    51   28   29 1   
    52   29   50 1   
    53   29   51 1   
@<TRIPOS>SUBSTRUCTURE
     1 1NN         1 TEMP              0 ****  ****    0 ROOT
