@<TRIPOS>MOLECULE
1NN
   51    42     1     0     0
SMALL
bcc


@<TRIPOS>ATOM
      1 FAE        -3.4000    2.6180   -5.9010 f         1 1NN     -0.171000
      2 CAJ        -2.1050    2.2650   -5.9130 c3        1 1NN      0.008000
      3 CAL        -1.4750    2.6160   -4.5840 c3        1 1NN     -0.058000
      4 OAR        -2.4710    3.0670   -3.6960 os        1 1NN     -0.213000
      5 CAZ        -2.0260    3.2240   -2.3740 c1        1 1NN      0.020000
      6 CAI        -1.7210    2.1080   -1.6090 c1        1 1NN     -0.067000
      7 CAY        -1.8750    4.4940   -1.8390 c1        1 1NN      0.071333
      8 OAQ        -2.1410    5.6270   -2.6320 o         1 1NN     -0.201000
      9 CAB        -3.2140    6.4160   -2.1610 c3        1 1NN     -0.078000
     10 CAG        -1.4200    4.6490   -0.5400 c1        1 1NN     -0.221333
     11 CAF        -1.1150    3.5330    0.2260 c1        1 1NN     -0.221333
     12 CAW        -1.2650    2.2630   -0.3080 c1        1 1NN      0.071333
     13 CBC        -1.0480    1.0440    0.5660 c1        1 1NN     -0.235000
     14 NAP         0.1470    0.2640    0.6400 n2        1 1NN     -0.085000
     15 SAT        -2.0710    0.4420    1.5550 ss        1 1NN      0.503000
     16 CBB        -1.4070   -0.7560    2.2270 c1        1 1NN     -0.362000
     17 CAK        -2.0460   -1.6690    3.2500 c2        1 1NN     -0.101000
     18 CAA        -3.5420   -1.4370    3.2690 c3        1 1NN     -0.219000
     19 CBA        -0.0720   -0.8810    1.6920 c1        1 1NN     -0.095000
     20 CAM         0.9460   -1.9370    2.0810 c2        1 1NN     -0.219000
     21 SAS         2.3690   -1.8040    1.0280 ss        1 1NN      0.309000
     22 C2          3.4820   -3.1490    1.3620 c1        1 1NN     -0.061000
     23 N3          4.6650   -2.9110    1.9940 n1        1 1NN     -0.252000
     24 N1          3.1840   -4.4030    0.9220 n1        1 1NN     -0.292000
     25 C6          4.0560   -5.4050    1.1100 c1        1 1NN      0.071333
     26 NAC         3.7250   -6.7200    0.6950 n2        1 1NN     -0.338000
     27 C5          5.2410   -5.1680    1.7420 c1        1 1NN     -0.221333
     28 C4          5.5380   -3.9120    2.1830 c1        1 1NN      0.186000
     29 NAD         6.7880   -3.6550    2.8030 n3        1 1NN     -0.339000
     30 H1         -1.6420    2.7450   -6.6310 h1        1 1NN      0.095000
     31 H2         -2.0310    1.3000   -6.0650 h1        1 1NN      0.095000
     32 H3         -1.0390    1.8220   -4.2090 h1        1 1NN      0.098000
     33 H4         -0.8090    3.3220   -4.7140 h1        1 1NN      0.098000
     34 H5         -1.8280    1.2140   -1.9850 ha        1 1NN      0.170000
     35 H6         -4.0210    5.8610   -2.0890 h1        1 1NN      0.087000
     36 H7         -2.9880    6.7810   -1.2780 h1        1 1NN      0.087000
     37 H8         -3.3780    7.1540   -2.7880 h1        1 1NN      0.087000
     38 H9         -1.3130    5.5430   -0.1640 ha        1 1NN      0.142000
     39 H10        -0.7940    3.6430    1.1410 ha        1 1NN      0.142000
     40 H11        -1.8630   -2.6000    3.0150 ha        1 1NN      0.105500
     41 H12        -1.6750   -1.4770    4.1350 ha        1 1NN      0.105500
     42 H13        -3.7310   -0.5480    3.6360 hc        1 1NN      0.081000
     43 H14        -3.9710   -2.1190    3.8280 hc        1 1NN      0.081000
     44 H15        -3.8930   -1.4950    2.3560 hc        1 1NN      0.081000
     45 H16         0.5490   -2.8260    1.9810 h4        1 1NN      0.132500
     46 H17         1.2160   -1.8030    3.0120 h4        1 1NN      0.132500
     47 H18         2.8610   -6.9280    0.4830 hn        1 1NN      0.211500
     48 H19         4.3720   -7.3640    0.6590 hn        1 1NN      0.211500
     49 H20         5.8760   -5.8970    1.8790 ha        1 1NN      0.142000
     50 H21         7.4200   -4.3150    2.8490 hn        1 1NN      0.214000
     51 H22         6.9580   -2.8340    3.1640 hn        1 1NN      0.214000
@<TRIPOS>BOND
     1    1    2 1   
     2    2    3 1   
     3    2   30 1   
     4    2   31 1   
     5    3    4 1   
     6    3   32 1   
     7    3   33 1   
     8    4    5 1   
     9    5    6 1   
    10    6   34 1   
    11    7   10 1   
    12    8    9 1   
    13    9   35 1   
    14    9   36 1   
    15    9   37 1   
    16   10   38 1   
    17   11   12 1   
    18   11   39 1   
    19   13   14 1   
    20   13   15 1   
    21   14   19 1   
    22   15   16 1   
    23   16   19 1   
    24   17   18 1   
    25   17   40 1   
    26   17   41 1   
    27   18   42 1   
    28   18   43 1   
    29   18   44 1   
    30   20   21 1   
    31   20   45 1   
    32   20   46 1   
    33   21   22 1   
    34   22   24 1   
    35   23   28 1   
    36   25   27 1   
    37   26   47 1   
    38   26   48 1   
    39   27   49 1   
    40   28   29 1   
    41   29   50 1   
    42   29   51 1   
@<TRIPOS>SUBSTRUCTURE
     1 1NN         1 TEMP              0 ****  ****    0 ROOT
