@<TRIPOS>MOLECULE
1NN
   51    53     1     0     0
SMALL
bcc


@<TRIPOS>ATOM
      1 FAE         0.0830   -0.2260   -0.3090 f         1 1NN     -0.240300
      2 CAJ         1.3680   -0.7110   -0.1820 c3        1 1NN      0.157900
      3 CAL         1.9620   -0.4080    1.2010 c3        1 1NN      0.087400
      4 OAR         1.7080   -1.5770    1.9890 os        1 1NN     -0.308900
      5 CAZ         2.0110   -1.4690    3.3310 ca        1 1NN      0.098100
      6 CAI         2.7370   -0.4240    3.8990 ca        1 1NN     -0.134000
      7 CAY         1.5500   -2.5410    4.1440 ca        1 1NN      0.117100
      8 OAQ         0.8500   -3.5260    3.4820 os        1 1NN     -0.299900
      9 CAB         0.3630   -4.5940    4.2890 c3        1 1NN      0.109700
     10 CAG         1.8280   -2.5360    5.5120 ca        1 1NN     -0.182000
     11 CAF         2.5500   -1.4840    6.0730 ca        1 1NN     -0.117000
     12 CAW         3.0100   -0.4300    5.2770 ca        1 1NN     -0.132500
     13 CBC         3.7720    0.6510    5.8830 cc        1 1NN      0.457900
     14 NAP         3.9790    1.8530    5.3340 nd        1 1NN     -0.616000
     15 SAT         4.5100    0.4470    7.4310 ss        1 1NN     -0.089300
     16 CBB         5.1240    2.0070    7.3830 cc        1 1NN     -0.167700
     17 CAK         5.9440    2.5950    8.4550 c3        1 1NN     -0.014100
     18 CAA         5.1230    3.3940    9.4410 c3        1 1NN     -0.091100
     19 CBA         4.7550    2.6330    6.1870 cd        1 1NN      0.336600
     20 CAM         5.1230    4.0200    5.8260 c3        1 1NN     -0.053600
     21 SAS         6.6850    3.8980    4.9850 ss        1 1NN     -0.202400
     22 C2          7.1150    5.5320    4.6070 ca        1 1NN      0.792300
     23 N3          8.2880    5.6550    3.9240 nb        1 1NN     -0.797000
     24 N1          6.2820    6.5330    5.0040 nb        1 1NN     -0.797000
     25 C6          6.6560    7.8120    4.6580 ca        1 1NN      0.705700
     26 NAC         5.7980    8.8710    4.9430 nv        1 1NN     -0.939000
     27 C5          7.8710    8.0600    3.9600 ca        1 1NN     -0.501600
     28 C4          8.6770    6.9380    3.6150 ca        1 1NN      0.705700
     29 NAD         9.9140    7.1430    3.0090 nv        1 1NN     -0.939000
     30 H1          2.0140   -0.2220   -0.9620 h1        1 1NN      0.059700
     31 H2          1.3550   -1.8240   -0.3500 h1        1 1NN      0.059700
     32 H3          3.0690   -0.2520    1.1200 h1        1 1NN      0.058200
     33 H4          1.4740    0.4880    1.6630 h1        1 1NN      0.058200
     34 H5          3.1000    0.4080    3.2770 ha        1 1NN      0.164000
     35 H6         -0.3450   -4.2140    5.0650 h1        1 1NN      0.045700
     36 H7         -0.1710   -5.2480    3.5530 h1        1 1NN      0.045700
     37 H8          1.2090   -5.1460    4.7660 h1        1 1NN      0.045700
     38 H9          1.4780   -3.3550    6.1560 ha        1 1NN      0.143000
     39 H10         2.7550   -1.4900    7.1550 ha        1 1NN      0.136000
     40 H11         6.4910    1.7790    9.0040 hc        1 1NN      0.060700
     41 H12         6.7270    3.2610    7.9950 hc        1 1NN      0.060700
     42 H13         4.3670    2.7470    9.9460 hc        1 1NN      0.039367
     43 H14         5.7910    3.8340   10.2200 hc        1 1NN      0.039367
     44 H15         4.5850    4.2250    8.9240 hc        1 1NN      0.039367
     45 H16         5.2140    4.6440    6.7500 h1        1 1NN      0.094200
     46 H17         4.3530    4.4960    5.1670 h1        1 1NN      0.094200
     47 H18         6.2300    9.7620    5.0060 hn        1 1NN      0.416550
     48 H19         5.0570    8.7020    5.5840 hn        1 1NN      0.416550
     49 H20         8.1750    9.0790    3.6970 ha        1 1NN      0.146000
     50 H21        10.3680    6.3490    2.6200 hn        1 1NN      0.416550
     51 H22         9.9950    7.9840    2.4870 hn        1 1NN      0.416550
@<TRIPOS>BOND
     1    1    2 1   
     2    2    3 1   
     3    2   30 1   
     4    2   31 1   
     5    3    4 1   
     6    3   32 1   
     7    3   33 1   
     8    4    5 1   
     9    5    6 ar  
    10    5    7 ar  
    11    6   12 ar  
    12    6   34 1   
    13    7    8 1   
    14    7   10 ar  
    15    8    9 1   
    16    9   35 1   
    17    9   36 1   
    18    9   37 1   
    19   10   11 ar  
    20   10   38 1   
    21   11   12 ar  
    22   11   39 1   
    23   12   13 1   
    24   13   14 2   
    25   13   15 1   
    26   14   19 1   
    27   15   16 1   
    28   16   17 1   
    29   16   19 2   
    30   17   18 1   
    31   17   40 1   
    32   17   41 1   
    33   18   42 1   
    34   18   43 1   
    35   18   44 1   
    36   19   20 1   
    37   20   21 1   
    38   20   45 1   
    39   20   46 1   
    40   21   22 1   
    41   22   23 ar  
    42   22   24 ar  
    43   23   28 ar  
    44   24   25 ar  
    45   25   26 1   
    46   25   27 ar  
    47   26   47 1   
    48   26   48 1   
    49   27   28 ar  
    50   27   49 1   
    51   28   29 1   
    52   29   50 1   
    53   29   51 1   
@<TRIPOS>SUBSTRUCTURE
     1 1NN         1 TEMP              0 ****  ****    0 ROOT
