@<TRIPOS>MOLECULE
1NN
   53    55     1     0     0
SMALL
bcc


@<TRIPOS>ATOM
      1 FAE         1.3210    1.3770   -0.5820 f         1 1NN     -0.244300
      2 CAJ         1.1000    0.2160    0.1320 c3        1 1NN      0.153900
      3 CAL         1.7120    0.3410    1.5370 c3        1 1NN      0.088400
      4 OAR         1.6810   -0.9810    2.0780 os        1 1NN     -0.293900
      5 CAZ         2.1910   -1.1130    3.3530 ca        1 1NN      0.096100
      6 CAI         2.7610   -0.0830    4.0950 ca        1 1NN     -0.133000
      7 CAY         2.1070   -2.4280    3.8990 ca        1 1NN      0.153100
      8 OAQ         1.5290   -3.3650    3.0840 os        1 1NN     -0.291900
      9 CAB         1.3990   -4.6820    3.6220 c3        1 1NN      0.103700
     10 CAG         2.6080   -2.6700    5.1810 ca        1 1NN     -0.184000
     11 CAF         3.1820   -1.6350    5.9150 ca        1 1NN     -0.095000
     12 CAW         3.2630   -0.3430    5.3840 ca        1 1NN     -0.178500
     13 CBC         3.8600    0.7210    6.1720 cc        1 1NN      0.486900
     14 NAP         4.2380    1.9170    5.7070 nd        1 1NN     -0.648000
     15 SAT         4.1360    0.5100    7.8650 ss        1 1NN      0.040700
     16 CBB         4.7910    2.0340    8.0000 cc        1 1NN     -0.148700
     17 CAK         5.2970    2.5950    9.2660 c3        1 1NN     -0.023100
     18 CAA         4.3060    3.5280    9.9230 c3        1 1NN     -0.094100
     19 CBA         4.7690    2.6750    6.7520 cd        1 1NN      0.240600
     20 CAM         5.2070    4.0610    6.4990 c3        1 1NN     -0.082600
     21 SAS         6.6280    3.7770    5.4800 ss        1 1NN      0.187600
     22 C2          7.0230    5.1810    4.7060 ca        1 1NN      0.705300
     23 N3          8.1150    5.1090    3.8350 nb        1 1NN     -0.695000
     24 N1          6.2890    6.3480    4.8970 nb        1 1NN     -0.695000
     25 C6          6.6520    7.4250    4.1820 ca        1 1NN      0.591700
     26 NAC         5.8550    8.6620    4.3710 n4        1 1NN     -0.834800
     27 C5          7.7330    7.4570    3.2640 ca        1 1NN     -0.448600
     28 C4          8.4280    6.2180    3.1550 ca        1 1NN      0.591700
     29 NAD         9.5790    6.1360    2.2240 n4        1 1NN     -0.834800
     30 H1          1.5720   -0.6490   -0.4100 h1        1 1NN      0.071700
     31 H2         -0.0060    0.0350    0.2130 h1        1 1NN      0.071700
     32 H3          2.7690    0.7070    1.4710 h1        1 1NN      0.044700
     33 H4          1.1060    1.0340    2.1760 h1        1 1NN      0.044700
     34 H5          2.8180    0.9340    3.6830 ha        1 1NN      0.151000
     35 H6          0.8920   -5.2420    2.7950 h1        1 1NN      0.057700
     36 H7          2.4050   -5.1170    3.8380 h1        1 1NN      0.057700
     37 H8          0.7640   -4.6710    4.5410 h1        1 1NN      0.057700
     38 H9          2.5520   -3.6790    5.6190 ha        1 1NN      0.160000
     39 H10         3.5750   -1.8480    6.9230 ha        1 1NN      0.137000
     40 H11         6.2600    3.1440    9.0750 hc        1 1NN      0.062200
     41 H12         5.5400    1.7580    9.9790 hc        1 1NN      0.062200
     42 H13         3.3580    2.9910   10.1730 hc        1 1NN      0.048367
     43 H14         4.0560    4.3830    9.2490 hc        1 1NN      0.048367
     44 H15         4.7410    3.9330   10.8690 hc        1 1NN      0.048367
     45 H16         5.4790    4.5810    7.4520 h1        1 1NN      0.113700
     46 H17         4.4110    4.6550    5.9850 h1        1 1NN      0.113700
     47 H18         5.2000    8.5650    5.1650 hn        1 1NN      0.490800
     48 H19         6.4910    9.4490    4.5530 hn        1 1NN      0.490800
     49 H20         8.0100    8.3490    2.6900 ha        1 1NN      0.189000
     50 H21         9.2500    6.3230    1.2670 hn        1 1NN      0.490800
     51 H22        10.2810    6.8380    2.4930 hn        1 1NN      0.490800
     52 HAC3        5.3130    8.8440    3.5150 hn        1 1NN      0.490800
     53 HAD3       10.0140    5.1970    2.2510 hn        1 1NN      0.490800
@<TRIPOS>BOND
     1    1    2 1   
     2    2    3 1   
     3    2   30 1   
     4    2   31 1   
     5    3    4 1   
     6    3   32 1   
     7    3   33 1   
     8    4    5 1   
     9    5    6 ar  
    10    5    7 ar  
    11    6   12 ar  
    12    6   34 1   
    13    7    8 1   
    14    7   10 ar  
    15    8    9 1   
    16    9   35 1   
    17    9   36 1   
    18    9   37 1   
    19   10   11 ar  
    20   10   38 1   
    21   11   12 ar  
    22   11   39 1   
    23   12   13 1   
    24   13   14 2   
    25   13   15 1   
    26   14   19 1   
    27   15   16 1   
    28   16   17 1   
    29   16   19 2   
    30   17   18 1   
    31   17   40 1   
    32   17   41 1   
    33   18   42 1   
    34   18   43 1   
    35   18   44 1   
    36   19   20 1   
    37   20   21 1   
    38   20   45 1   
    39   20   46 1   
    40   21   22 1   
    41   22   23 ar  
    42   22   24 ar  
    43   23   28 ar  
    44   24   25 ar  
    45   25   26 1   
    46   25   27 ar  
    47   26   47 1   
    48   26   48 1   
    49   26   52 1   
    50   27   28 ar  
    51   27   49 1   
    52   28   29 1   
    53   29   50 1   
    54   29   51 1   
    55   29   53 1   
@<TRIPOS>SUBSTRUCTURE
     1 1NN         1 TEMP              0 ****  ****    0 ROOT
