@<TRIPOS>MOLECULE
1NO
   48    50     1     0     0
SMALL
bcc


@<TRIPOS>ATOM
      1 FAN         1.1210    0.4680   -0.6290 f         1 1NO     -0.240300
      2 CAM         2.0480   -0.4420   -0.1630 c3        1 1NO      0.156900
      3 CAL         2.3770   -0.2110    1.3200 c3        1 1NO      0.088400
      4 OAK         1.6130   -1.1870    2.0350 os        1 1NO     -0.306900
      5 CAV         1.8880   -1.2850    3.3850 ca        1 1NO      0.100100
      6 CAU         2.5940   -0.3400    4.1230 ca        1 1NO     -0.169000
      7 CAW         1.3640   -2.4410    4.0290 ca        1 1NO      0.119100
      8 OAX         0.6920   -3.3200    3.2070 os        1 1NO     -0.302900
      9 CAY         0.0920   -4.4400    3.8510 c3        1 1NO      0.109700
     10 CBB         1.5590   -2.6130    5.3990 ca        1 1NO     -0.188000
     11 CBA         2.2700   -1.6610    6.1320 ca        1 1NO     -0.075000
     12 CAT         2.7870   -0.5260    5.5040 ca        1 1NO     -0.136500
     13 CAS         3.5190    0.4790    6.2590 cc        1 1NO      0.457900
     14 NAR         4.1480    0.2640    7.4180 nd        1 1NO     -0.611000
     15 SAZ         3.6220    2.1070    5.6900 ss        1 1NO     -0.094300
     16 CAP         4.5380    2.5500    7.0230 cc        1 1NO     -0.166700
     17 CAO         5.0500    3.9030    7.2520 c3        1 1NO     -0.028800
     18 CAQ         4.7310    1.4480    7.8630 cd        1 1NO      0.331600
     19 CAJ         5.5100    1.4950    9.1200 c3        1 1NO     -0.053600
     20 SAI         4.3240    1.7810   10.4130 ss        1 1NO     -0.196400
     21 C2          5.2710    1.9730   11.8480 ca        1 1NO      0.791300
     22 N1          4.5410    2.2520   12.9650 nb        1 1NO     -0.797000
     23 N3          6.6230    1.8350   11.7590 nb        1 1NO     -0.797000
     24 C4          7.3320    2.0080   12.9260 ca        1 1NO      0.705200
     25 NAF         8.7260    1.9790   12.8850 nv        1 1NO     -0.937500
     26 C5          6.6720    2.2810   14.1560 ca        1 1NO     -0.500600
     27 C6          5.2520    2.3880   14.1350 ca        1 1NO      0.705200
     28 NAA         4.5600    2.5700   15.3290 nv        1 1NO     -0.937500
     29 H1          1.6380   -1.4820   -0.2990 h1        1 1NO      0.061700
     30 H2          2.9910   -0.3320   -0.7640 h1        1 1NO      0.061700
     31 H3          3.4700   -0.3690    1.5070 h1        1 1NO      0.053200
     32 H4          2.0720    0.8190    1.6420 h1        1 1NO      0.053200
     33 H5          3.0060    0.5570    3.6340 ha        1 1NO      0.142000
     34 H6         -0.4180   -4.9760    3.0110 h1        1 1NO      0.046700
     35 H7         -0.6500   -4.1070    4.6170 h1        1 1NO      0.046700
     36 H8          0.8730   -5.0900    4.3170 h1        1 1NO      0.046700
     37 H9          1.1600   -3.4990    5.9130 ha        1 1NO      0.145000
     38 H10         2.4200   -1.8150    7.2130 ha        1 1NO      0.160000
     39 H11         4.7170    4.6060    6.4490 hc        1 1NO      0.055367
     40 H12         6.1710    3.8980    7.2730 hc        1 1NO      0.055367
     41 H13         4.6880    4.2950    8.2380 hc        1 1NO      0.055367
     42 H14         6.2600    2.3240    9.0720 h1        1 1NO      0.092700
     43 H15         6.0640    0.5390    9.2980 h1        1 1NO      0.092700
     44 H16         9.1660    1.7450   13.7440 hn        1 1NO      0.415800
     45 H17         9.1480    1.5950   12.0710 hn        1 1NO      0.415800
     46 H18         7.2350    2.4050   15.0870 ha        1 1NO      0.146000
     47 H19         5.0740    3.0110   16.0550 hn        1 1NO      0.415800
     48 H20         3.5980    2.8140   15.2690 hn        1 1NO      0.415800
@<TRIPOS>BOND
     1    1    2 1   
     2    2    3 1   
     3    2   29 1   
     4    2   30 1   
     5    3    4 1   
     6    3   31 1   
     7    3   32 1   
     8    4    5 1   
     9    5    6 ar  
    10    5    7 ar  
    11    6   12 ar  
    12    6   33 1   
    13    7    8 1   
    14    7   10 ar  
    15    8    9 1   
    16    9   34 1   
    17    9   35 1   
    18    9   36 1   
    19   10   11 ar  
    20   10   37 1   
    21   11   12 ar  
    22   11   38 1   
    23   12   13 1   
    24   13   14 2   
    25   13   15 1   
    26   14   18 1   
    27   15   16 1   
    28   16   17 1   
    29   16   18 2   
    30   17   39 1   
    31   17   40 1   
    32   17   41 1   
    33   18   19 1   
    34   19   20 1   
    35   19   42 1   
    36   19   43 1   
    37   20   21 1   
    38   21   22 ar  
    39   21   23 ar  
    40   22   27 ar  
    41   23   24 ar  
    42   24   25 1   
    43   24   26 ar  
    44   25   44 1   
    45   25   45 1   
    46   26   27 ar  
    47   26   46 1   
    48   27   28 1   
    49   28   47 1   
    50   28   48 1   
@<TRIPOS>SUBSTRUCTURE
     1 1NO         1 TEMP              0 ****  ****    0 ROOT
