@<TRIPOS>MOLECULE
1NO
   48    39     1     0     0
SMALL
bcc


@<TRIPOS>ATOM
      1 FAN        -6.5040   -1.0950   -3.4130 f         1 1NO     -0.173000
      2 CAM        -5.8750   -1.1720   -4.5580 c3        1 1NO      0.006000
      3 CAL        -4.3650   -1.1880   -4.3080 c3        1 1NO     -0.058000
      4 OAK        -4.0840   -1.9850   -3.1740 os        1 1NO     -0.214000
      5 CAV        -2.7050   -2.1930   -2.9520 c1        1 1NO      0.027000
      6 CAU        -1.9420   -1.2030   -2.3450 c1        1 1NO     -0.102000
      7 CAW        -2.1360   -3.3940   -3.2800 c1        1 1NO      0.070333
      8 OAX        -2.9290   -4.4150   -3.8970 o         1 1NO     -0.208000
      9 CAY        -3.0930   -5.5880   -3.0920 c3        1 1NO     -0.078000
     10 CBB        -0.7870   -3.6290   -3.0060 c1        1 1NO     -0.211000
     11 CBA        -0.0190   -2.6470   -2.4010 c1        1 1NO     -0.211000
     12 CAT        -0.5920   -1.4320   -2.0690 c1        1 1NO      0.070333
     13 CAS         0.2690   -0.3120   -1.4450 c1        1 1NO     -0.235000
     14 NAR         0.7960   -0.2990   -0.1300 n2        1 1NO     -0.088000
     15 SAZ         0.7350    0.9780   -2.1570 ss        1 1NO      0.510000
     16 CAP         1.5900    1.7740   -1.1600 c1        1 1NO     -0.367000
     17 CAO         2.2780    3.1270   -1.4290 c2        1 1NO     -0.154000
     18 CAQ         1.6430    1.0340    0.0590 c1        1 1NO     -0.093000
     19 CAJ         2.4290    1.4150    1.2930 c2        1 1NO     -0.219000
     20 SAI         1.3180    1.9460    2.5470 ss        1 1NO      0.311000
     21 C2          2.2430    2.3250    4.0660 c1        1 1NO     -0.061000
     22 N1          2.5670    3.6360    4.3700 n1        1 1NO     -0.252000
     23 N3          2.5540    1.3250    4.9370 n1        1 1NO     -0.293000
     24 C4          3.1760    1.6080    6.0930 c1        1 1NO      0.070333
     25 NAF         3.4660    0.5870    6.9890 n2        1 1NO     -0.338000
     26 C5          3.5040    2.9240    6.4030 c1        1 1NO     -0.211000
     27 C6          3.1930    3.9250    5.5330 c1        1 1NO      0.187000
     28 NAA         3.3820    5.3020    5.9240 n3        1 1NO     -0.339000
     29 H1         -6.1440   -2.0150   -5.0330 h1        1 1NO      0.096000
     30 H2         -6.1050   -0.4070   -5.1030 h1        1 1NO      0.096000
     31 H3         -3.9250   -1.5480   -5.0620 h1        1 1NO      0.098500
     32 H4         -4.0440   -0.2580   -4.1480 h1        1 1NO      0.098500
     33 H5         -2.3700   -0.3060   -2.1020 ha        1 1NO      0.154000
     34 H6         -3.7750   -6.1950   -3.5180 h1        1 1NO      0.086667
     35 H7         -3.4070   -5.3240   -2.1720 h1        1 1NO      0.086667
     36 H8         -2.2200   -6.0670   -3.0210 h1        1 1NO      0.086667
     37 H9         -0.3980   -4.4610   -3.2350 ha        1 1NO      0.150000
     38 H10         0.9510   -2.8180   -2.2040 ha        1 1NO      0.150000
     39 H11         1.9480    3.8000   -0.7800 ha        1 1NO      0.095000
     40 H12         2.0860    3.4030   -2.2830 ha        1 1NO      0.095000
     41 H13         3.1870    3.0330   -1.3350 ha        1 1NO      0.095000
     42 H14         3.0510    2.1470    1.0730 h4        1 1NO      0.132000
     43 H15         2.9620    0.6000    1.6260 h4        1 1NO      0.132000
     44 H16         3.8920    0.7650    7.7310 hn        1 1NO      0.211500
     45 H17         3.2630   -0.3090    6.7650 hn        1 1NO      0.211500
     46 H18         3.9710    3.1370    7.2720 ha        1 1NO      0.150000
     47 H19         3.7070    5.5100    6.8020 hn        1 1NO      0.214000
     48 H20         3.2590    5.9570    5.3260 hn        1 1NO      0.214000
@<TRIPOS>BOND
     1    1    2 1   
     2    2    3 1   
     3    2   29 1   
     4    2   30 1   
     5    3    4 1   
     6    3   31 1   
     7    3   32 1   
     8    4    5 1   
     9    5    6 1   
    10    6   33 1   
    11    7   10 1   
    12    8    9 1   
    13    9   34 1   
    14    9   35 1   
    15    9   36 1   
    16   10   37 1   
    17   11   12 1   
    18   11   38 1   
    19   13   14 1   
    20   13   15 1   
    21   14   18 1   
    22   15   16 1   
    23   16   18 1   
    24   17   39 1   
    25   17   40 1   
    26   17   41 1   
    27   19   20 1   
    28   19   42 1   
    29   19   43 1   
    30   20   21 1   
    31   21   23 1   
    32   22   27 1   
    33   24   26 1   
    34   25   44 1   
    35   25   45 1   
    36   26   46 1   
    37   27   28 1   
    38   28   47 1   
    39   28   48 1   
@<TRIPOS>SUBSTRUCTURE
     1 1NO         1 TEMP              0 ****  ****    0 ROOT
