@<TRIPOS>MOLECULE
1NO
   50    52     1     0     0
SMALL
bcc


@<TRIPOS>ATOM
      1 FAN        -1.1020    0.9630    1.4900 f         1 1NO     -0.234300
      2 CAM         0.0660    0.4260    0.9910 c3        1 1NO      0.158900
      3 CAL         1.1630    0.3690    2.0660 c3        1 1NO      0.084400
      4 OAK         1.1030   -0.9610    2.5950 os        1 1NO     -0.294900
      5 CAV         1.8940   -1.2180    3.6900 ca        1 1NO      0.118100
      6 CAU         2.7630   -0.3150    4.2870 ca        1 1NO     -0.174000
      7 CAW         1.7720   -2.5430    4.2160 ca        1 1NO      0.153100
      8 OAX         0.8960   -3.3550    3.5450 os        1 1NO     -0.287900
      9 CAY         0.7710   -4.6920    4.0270 c3        1 1NO      0.104700
     10 CBB         2.5200   -2.9110    5.3330 ca        1 1NO     -0.199000
     11 CBA         3.3820   -1.9910    5.9350 ca        1 1NO     -0.064000
     12 CAT         3.5100   -0.7010    5.4200 ca        1 1NO     -0.182500
     13 CAS         4.4130    0.2620    6.0230 cc        1 1NO      0.489900
     14 NAR         4.7800    0.2890    7.3090 nd        1 1NO     -0.639000
     15 SAZ         5.1280    1.5080    5.0620 ss        1 1NO      0.039700
     16 CAP         5.9360    2.1270    6.3770 cc        1 1NO     -0.151700
     17 CAO         6.8250    3.2910    6.3220 c3        1 1NO     -0.042800
     18 CAQ         5.6550    1.3560    7.5160 cd        1 1NO      0.233600
     19 CAJ         6.2450    1.5800    8.8490 c3        1 1NO     -0.079600
     20 SAI         4.8140    2.1180    9.7430 ss        1 1NO      0.187600
     21 C2          5.1810    2.1800   11.3510 ca        1 1NO      0.704300
     22 N1          4.1430    2.5750   12.2010 nb        1 1NO     -0.694500
     23 N3          6.4460    1.8360   11.8190 nb        1 1NO     -0.694500
     24 C4          6.6400    1.8740   13.1480 ca        1 1NO      0.591200
     25 NAF         7.9840    1.4920   13.6470 n4        1 1NO     -0.834800
     26 C5          5.6540    2.2500   14.0960 ca        1 1NO     -0.449600
     27 C6          4.4010    2.5950   13.5130 ca        1 1NO      0.591200
     28 NAA         3.2950    3.0060   14.4120 n4        1 1NO     -0.834800
     29 H1         -0.1410   -0.6120    0.6080 h1        1 1NO      0.070200
     30 H2          0.4280    1.0730    0.1450 h1        1 1NO      0.070200
     31 H3          2.1720    0.5370    1.6090 h1        1 1NO      0.051700
     32 H4          0.9660    1.1200    2.8740 h1        1 1NO      0.051700
     33 H5          2.8700    0.7050    3.8870 ha        1 1NO      0.140000
     34 H6          0.0270   -5.1450    3.3220 h1        1 1NO      0.056033
     35 H7          0.3800   -4.6970    5.0730 h1        1 1NO      0.056033
     36 H8          1.7500   -5.2260    3.9660 h1        1 1NO      0.056033
     37 H9          2.4390   -3.9260    5.7480 ha        1 1NO      0.154000
     38 H10         3.9640   -2.3000    6.8170 ha        1 1NO      0.145000
     39 H11         6.4910    4.0820    7.0420 hc        1 1NO      0.064367
     40 H12         6.8420    3.7420    5.2970 hc        1 1NO      0.064367
     41 H13         7.8740    2.9960    6.5860 hc        1 1NO      0.064367
     42 H14         7.0400    2.3660    8.8130 h1        1 1NO      0.111700
     43 H15         6.6870    0.6420    9.2710 h1        1 1NO      0.111700
     44 H16         8.3570    2.2530   14.2280 hn        1 1NO      0.490633
     45 H17         7.9000    0.6350   14.2100 hn        1 1NO      0.490633
     46 H18         5.8360    2.2720   15.1770 ha        1 1NO      0.189000
     47 H19         3.0780    2.2310   15.0520 hn        1 1NO      0.490633
     48 H20         3.5890    3.8310   14.9510 hn        1 1NO      0.490633
     49 HAF3        8.6360    1.3150   12.8640 hn        1 1NO      0.490633
     50 HAA3        2.4450    3.2430   13.8710 hn        1 1NO      0.490633
@<TRIPOS>BOND
     1    1    2 1   
     2    2    3 1   
     3    2   29 1   
     4    2   30 1   
     5    3    4 1   
     6    3   31 1   
     7    3   32 1   
     8    4    5 1   
     9    5    6 ar  
    10    5    7 ar  
    11    6   12 ar  
    12    6   33 1   
    13    7    8 1   
    14    7   10 ar  
    15    8    9 1   
    16    9   34 1   
    17    9   35 1   
    18    9   36 1   
    19   10   11 ar  
    20   10   37 1   
    21   11   12 ar  
    22   11   38 1   
    23   12   13 1   
    24   13   14 2   
    25   13   15 1   
    26   14   18 1   
    27   15   16 1   
    28   16   17 1   
    29   16   18 2   
    30   17   39 1   
    31   17   40 1   
    32   17   41 1   
    33   18   19 1   
    34   19   20 1   
    35   19   42 1   
    36   19   43 1   
    37   20   21 1   
    38   21   22 ar  
    39   21   23 ar  
    40   22   27 ar  
    41   23   24 ar  
    42   24   25 1   
    43   24   26 ar  
    44   25   44 1   
    45   25   45 1   
    46   25   49 1   
    47   26   27 ar  
    48   26   46 1   
    49   27   28 1   
    50   28   47 1   
    51   28   48 1   
    52   28   50 1   
@<TRIPOS>SUBSTRUCTURE
     1 1NO         1 TEMP              0 ****  ****    0 ROOT
