@<TRIPOS>MOLECULE
1NO
   48    50     1     0     0
SMALL
bcc


@<TRIPOS>ATOM
      1 FAN         1.1260    0.4120   -0.6300 f         1 1NO     -0.240300
      2 CAM         2.0470   -0.4990   -0.1570 c3        1 1NO      0.156900
      3 CAL         2.3830   -0.2540    1.3220 c3        1 1NO      0.088400
      4 OAK         1.6120   -1.2160    2.0510 os        1 1NO     -0.306900
      5 CAV         1.8820   -1.2950    3.4030 ca        1 1NO      0.100100
      6 CAU         2.6020   -0.3500    4.1260 ca        1 1NO     -0.169000
      7 CAW         1.3380   -2.4320    4.0640 ca        1 1NO      0.119100
      8 OAX         0.6520   -3.3120    3.2550 os        1 1NO     -0.302900
      9 CAY         0.0360   -4.4140    3.9160 c3        1 1NO      0.109700
     10 CBB         1.5280   -2.5850    5.4360 ca        1 1NO     -0.188000
     11 CBA         2.2530   -1.6330    6.1560 ca        1 1NO     -0.075000
     12 CAT         2.7900   -0.5170    5.5110 ca        1 1NO     -0.136500
     13 CAS         3.5380    0.4880    6.2500 cc        1 1NO      0.457900
     14 NAR         4.1530    0.2850    7.4190 nd        1 1NO     -0.611000
     15 SAZ         3.6790    2.1020    5.6480 ss        1 1NO     -0.094300
     16 CAP         4.5940    2.5530    6.9790 cc        1 1NO     -0.167700
     17 CAO         5.1340    3.8990    7.1840 c3        1 1NO     -0.028800
     18 CAQ         4.7570    1.4650    7.8440 cd        1 1NO      0.332600
     19 CAJ         5.5270    1.5220    9.1060 c3        1 1NO     -0.053600
     20 SAI         4.3400    1.8910   10.3770 ss        1 1NO     -0.197400
     21 C2          5.2730    2.0320   11.8270 ca        1 1NO      0.791300
     22 N1          4.5330    2.2940   12.9420 nb        1 1NO     -0.797500
     23 N3          6.6240    1.8760   11.7510 nb        1 1NO     -0.797500
     24 C4          7.3170    1.9720   12.9360 ca        1 1NO      0.705700
     25 NAF         8.6870    1.7200   12.9440 nh        1 1NO     -0.938500
     26 C5          6.6500    2.2600   14.1590 ca        1 1NO     -0.501600
     27 C6          5.2360    2.4270   14.1170 ca        1 1NO      0.705700
     28 NAA         4.5540    2.7950   15.2750 nh        1 1NO     -0.938500
     29 H1          1.6300   -1.5380   -0.2810 h1        1 1NO      0.061700
     30 H2          2.9900   -0.4020   -0.7620 h1        1 1NO      0.061700
     31 H3          3.4750   -0.4200    1.5090 h1        1 1NO      0.053200
     32 H4          2.0870    0.7810    1.6330 h1        1 1NO      0.053200
     33 H5          3.0300    0.5310    3.6240 ha        1 1NO      0.141000
     34 H6          0.8070   -5.0670    4.3920 h1        1 1NO      0.046700
     35 H7         -0.4810   -4.9550    3.0830 h1        1 1NO      0.046700
     36 H8         -0.7020   -4.0590    4.6750 h1        1 1NO      0.046700
     37 H9          1.1140   -3.4560    5.9650 ha        1 1NO      0.145000
     38 H10         2.3990   -1.7710    7.2390 ha        1 1NO      0.160000
     39 H11         4.8170    4.5930    6.3670 hc        1 1NO      0.055367
     40 H12         4.7780    4.3170    8.1610 hc        1 1NO      0.055367
     41 H13         6.2540    3.8710    7.2070 hc        1 1NO      0.055367
     42 H14         6.3050    2.3230    9.0400 h1        1 1NO      0.092700
     43 H15         6.0460    0.5540    9.3180 h1        1 1NO      0.092700
     44 H16         9.1560    1.7070   12.0680 hn        1 1NO      0.416050
     45 H17         9.1890    2.1290   13.6960 hn        1 1NO      0.416050
     46 H18         7.2030    2.3490   15.1000 ha        1 1NO      0.146000
     47 H19         3.5620    2.7290   15.2610 hn        1 1NO      0.416050
     48 H20         4.9910    2.5280   16.1250 hn        1 1NO      0.416050
@<TRIPOS>BOND
     1    1    2 1   
     2    2    3 1   
     3    2   29 1   
     4    2   30 1   
     5    3    4 1   
     6    3   31 1   
     7    3   32 1   
     8    4    5 1   
     9    5    6 ar  
    10    5    7 ar  
    11    6   12 ar  
    12    6   33 1   
    13    7    8 1   
    14    7   10 ar  
    15    8    9 1   
    16    9   34 1   
    17    9   35 1   
    18    9   36 1   
    19   10   11 ar  
    20   10   37 1   
    21   11   12 ar  
    22   11   38 1   
    23   12   13 1   
    24   13   14 2   
    25   13   15 1   
    26   14   18 1   
    27   15   16 1   
    28   16   17 1   
    29   16   18 2   
    30   17   39 1   
    31   17   40 1   
    32   17   41 1   
    33   18   19 1   
    34   19   20 1   
    35   19   42 1   
    36   19   43 1   
    37   20   21 1   
    38   21   22 ar  
    39   21   23 ar  
    40   22   27 ar  
    41   23   24 ar  
    42   24   25 1   
    43   24   26 ar  
    44   25   44 1   
    45   25   45 1   
    46   26   27 ar  
    47   26   46 1   
    48   27   28 1   
    49   28   47 1   
    50   28   48 1   
@<TRIPOS>SUBSTRUCTURE
     1 1NO         1 TEMP              0 ****  ****    0 ROOT
