@<TRIPOS>MOLECULE
1NO
   48    50     1     0     0
SMALL
bcc


@<TRIPOS>ATOM
      1 FAN         7.8990   -2.4390    0.5540 f         1 1NO     -0.240300
      2 CAM         7.4320   -1.7810   -0.5650 c3        1 1NO      0.156900
      3 CAL         5.9390   -1.4400   -0.4440 c3        1 1NO      0.088400
      4 OAK         5.8950   -0.0600   -0.0650 os        1 1NO     -0.306900
      5 CAV         4.6390    0.5140   -0.0500 ca        1 1NO      0.101100
      6 CAU         3.4420   -0.1910   -0.1060 ca        1 1NO     -0.170000
      7 CAW         4.6240    1.9330    0.0580 ca        1 1NO      0.119100
      8 OAX         5.8630    2.5350    0.0950 os        1 1NO     -0.302900
      9 CAY         5.8640    3.9470    0.2820 c3        1 1NO      0.109700
     10 CBB         3.4040    2.6060    0.1110 ca        1 1NO     -0.188000
     11 CBA         2.2050    1.8910    0.0530 ca        1 1NO     -0.076000
     12 CAT         2.2160    0.4990   -0.0540 ca        1 1NO     -0.135500
     13 CAS         0.9750   -0.2580   -0.1050 cc        1 1NO      0.456900
     14 NAR        -0.2080    0.2280   -0.4920 nd        1 1NO     -0.612000
     15 SAZ         0.9350   -1.9190    0.3700 ss        1 1NO     -0.094300
     16 CAP        -0.7080   -2.0070    0.0470 cc        1 1NO     -0.165700
     17 CAO        -1.5140   -3.2170    0.2200 c3        1 1NO     -0.028800
     18 CAQ        -1.1770   -0.7680   -0.4050 cd        1 1NO      0.331600
     19 CAJ        -2.5810   -0.5100   -0.7910 c3        1 1NO     -0.053600
     20 SAI        -3.3720    0.1340    0.6650 ss        1 1NO     -0.198400
     21 C2         -5.0380    0.2990    0.2270 ca        1 1NO      0.792300
     22 N1         -5.8350    0.7630    1.2310 nb        1 1NO     -0.798500
     23 N3         -5.4120   -0.0200   -1.0430 nb        1 1NO     -0.798500
     24 C4         -6.7480    0.1290   -1.3410 ca        1 1NO      0.708700
     25 NAF        -7.2100   -0.2640   -2.5950 nh        1 1NO     -0.941000
     26 C5         -7.6690    0.6190   -0.3740 ca        1 1NO     -0.505600
     27 C6         -7.1690    0.9090    0.9270 ca        1 1NO      0.708700
     28 NAA        -8.0510    1.2940    1.9310 nh        1 1NO     -0.941000
     29 H1          8.0250   -0.8340   -0.7040 h1        1 1NO      0.061700
     30 H2          7.5790   -2.4470   -1.4590 h1        1 1NO      0.061700
     31 H3          5.4250   -1.5800   -1.4290 h1        1 1NO      0.053700
     32 H4          5.4480   -2.0660    0.3450 h1        1 1NO      0.053700
     33 H5          3.4420   -1.2880   -0.1930 ha        1 1NO      0.142000
     34 H6          6.9540    4.2000    0.3180 h1        1 1NO      0.046700
     35 H7          5.3690    4.4580   -0.5800 h1        1 1NO      0.046700
     36 H8          5.3620    4.2210    1.2410 h1        1 1NO      0.046700
     37 H9          3.3720    3.7010    0.1960 ha        1 1NO      0.145000
     38 H10         1.2490    2.4370    0.0910 ha        1 1NO      0.159000
     39 H11        -0.9030   -4.0560    0.6370 hc        1 1NO      0.056033
     40 H12        -2.3680   -3.0200    0.9190 hc        1 1NO      0.056033
     41 H13        -1.9410   -3.5460   -0.7620 hc        1 1NO      0.056033
     42 H14        -2.6500    0.2230   -1.6350 h1        1 1NO      0.092700
     43 H15        -3.0650   -1.4620   -1.1230 h1        1 1NO      0.092700
     44 H16        -8.0620    0.1550   -2.8850 hn        1 1NO      0.417550
     45 H17        -6.5340   -0.4100   -3.3090 hn        1 1NO      0.417550
     46 H18        -8.7310    0.7380   -0.6130 ha        1 1NO      0.146000
     47 H19        -8.9000    1.7050    1.6230 hn        1 1NO      0.417550
     48 H20        -7.6650    1.6620    2.7700 hn        1 1NO      0.417550
@<TRIPOS>BOND
     1    1    2 1   
     2    2    3 1   
     3    2   29 1   
     4    2   30 1   
     5    3    4 1   
     6    3   31 1   
     7    3   32 1   
     8    4    5 1   
     9    5    6 ar  
    10    5    7 ar  
    11    6   12 ar  
    12    6   33 1   
    13    7    8 1   
    14    7   10 ar  
    15    8    9 1   
    16    9   34 1   
    17    9   35 1   
    18    9   36 1   
    19   10   11 ar  
    20   10   37 1   
    21   11   12 ar  
    22   11   38 1   
    23   12   13 1   
    24   13   14 2   
    25   13   15 1   
    26   14   18 1   
    27   15   16 1   
    28   16   17 1   
    29   16   18 2   
    30   17   39 1   
    31   17   40 1   
    32   17   41 1   
    33   18   19 1   
    34   19   20 1   
    35   19   42 1   
    36   19   43 1   
    37   20   21 1   
    38   21   22 ar  
    39   21   23 ar  
    40   22   27 ar  
    41   23   24 ar  
    42   24   25 1   
    43   24   26 ar  
    44   25   44 1   
    45   25   45 1   
    46   26   27 ar  
    47   26   46 1   
    48   27   28 1   
    49   28   47 1   
    50   28   48 1   
@<TRIPOS>SUBSTRUCTURE
     1 1NO         1 TEMP              0 ****  ****    0 ROOT
