@<TRIPOS>MOLECULE
1NP
   19    16     1     0     0
SMALL
bcc


@<TRIPOS>ATOM
      1 O1         -2.6570   -0.0400   -1.0830 oh        1 1NP     -0.252000
      2 C1         -1.2490   -0.0400   -1.0830 c2        1 1NP      0.098000
      3 C8A        -0.4990   -0.0400    0.1080 c2        1 1NP     -0.055000
      4 C8         -1.1540   -0.0400    1.3540 c1        1 1NP     -0.091000
      5 C7         -0.4120   -0.0400    2.5290 c1        1 1NP     -0.124750
      6 C2         -0.6020   -0.0400   -2.3120 c1        1 1NP     -0.230000
      7 C3          0.7880   -0.0400   -2.3660 c1        1 1NP     -0.124750
      8 C4          1.5300   -0.0400   -1.1920 c1        1 1NP     -0.124750
      9 C4A         0.8750   -0.0400    0.0540 c1        1 1NP     -0.009000
     10 C5          1.6250   -0.0400    1.2450 c1        1 1NP     -0.130000
     11 C6          0.9780   -0.0400    2.4740 c1        1 1NP     -0.124750
     12 HO1        -2.9520    0.7250   -1.4220 ho        1 1NP      0.220000
     13 H8         -2.1290   -0.0400    1.3930 ha        1 1NP      0.149000
     14 H7         -0.8670   -0.0400    3.3920 ha        1 1NP      0.133250
     15 H2         -1.1230   -0.0400   -3.1370 ha        1 1NP      0.134000
     16 H3          1.2430   -0.0400   -3.2300 ha        1 1NP      0.133250
     17 H4          2.5050   -0.0400   -1.2310 ha        1 1NP      0.133250
     18 H5          2.6010   -0.0400    1.2070 ha        1 1NP      0.133000
     19 H6          1.4990   -0.0400    3.3000 ha        1 1NP      0.133250
@<TRIPOS>BOND
     1    1    2 1   
     2    1   12 1   
     3    2    3 1   
     4    2    6 1   
     5    3    4 1   
     6    3    9 1   
     7    4   13 1   
     8    5   11 1   
     9    5   14 1   
    10    6   15 1   
    11    7    8 1   
    12    7   16 1   
    13    8   17 1   
    14    9   10 1   
    15   10   18 1   
    16   11   19 1   
@<TRIPOS>SUBSTRUCTURE
     1 1NP         1 TEMP              0 ****  ****    0 ROOT
