@<TRIPOS>MOLECULE
1NP
   19    20     1     0     0
SMALL
bcc


@<TRIPOS>ATOM
      1 O1         -1.9660    1.9530   -0.1380 oh        1 1NP     -0.498100
      2 C1         -1.4310    0.6850   -0.0830 ca        1 1NP      0.133100
      3 C8A        -0.0240    0.4280   -0.0630 ca        1 1NP     -0.088000
      4 C8          0.9620    1.4520   -0.0990 ca        1 1NP     -0.122000
      5 C7          2.3000    1.1440   -0.0770 ca        1 1NP     -0.126000
      6 C2         -2.3530   -0.3490   -0.0470 ca        1 1NP     -0.169000
      7 C3         -1.9040   -1.6830    0.0100 ca        1 1NP     -0.092000
      8 C4         -0.5600   -1.9700    0.0300 ca        1 1NP     -0.155000
      9 C4A         0.4010   -0.9260   -0.0060 ca        1 1NP     -0.007000
     10 C5          1.7950   -1.2160    0.0150 ca        1 1NP     -0.119000
     11 C6          2.7220   -0.2060   -0.0200 ca        1 1NP     -0.122000
     12 HO1        -1.2460    2.5970   -0.1590 ho        1 1NP      0.420000
     13 H8          0.6560    2.5080   -0.1430 ha        1 1NP      0.122000
     14 H7          3.0580    1.9400   -0.1050 ha        1 1NP      0.134000
     15 H2         -3.4290   -0.1240   -0.0630 ha        1 1NP      0.151000
     16 H3         -2.6500   -2.4920    0.0380 ha        1 1NP      0.135000
     17 H4         -0.2070   -3.0110    0.0750 ha        1 1NP      0.135000
     18 H5          2.1090   -2.2700    0.0600 ha        1 1NP      0.135000
     19 H6          3.7990   -0.4290   -0.0040 ha        1 1NP      0.134000
@<TRIPOS>BOND
     1    1    2 1   
     2    1   12 1   
     3    2    3 ar  
     4    2    6 ar  
     5    3    4 ar  
     6    3    9 ar  
     7    4    5 ar  
     8    4   13 1   
     9    5   11 ar  
    10    5   14 1   
    11    6    7 ar  
    12    6   15 1   
    13    7    8 ar  
    14    7   16 1   
    15    8    9 ar  
    16    8   17 1   
    17    9   10 ar  
    18   10   11 ar  
    19   10   18 1   
    20   11   19 1   
@<TRIPOS>SUBSTRUCTURE
     1 1NP         1 TEMP              0 ****  ****    0 ROOT
