@<TRIPOS>MOLECULE
1NP
   19    20     1     0     0
SMALL
bcc


@<TRIPOS>ATOM
      1 O1         -0.0150    0.1710    0.1050 oh        1 1NP     -0.498100
      2 C1          1.3570    0.1130    0.0100 ca        1 1NP      0.143100
      3 C8A         2.0680    0.0610    1.2520 ca        1 1NP     -0.055000
      4 C8          1.4050    0.0690    2.5070 ca        1 1NP     -0.091000
      5 C7          2.1280    0.0180    3.6740 ca        1 1NP     -0.142000
      6 C2          2.0230    0.1040   -1.2010 ca        1 1NP     -0.230000
      7 C3          3.4340    0.0430   -1.2200 ca        1 1NP     -0.089000
      8 C4          4.1500   -0.0080   -0.0500 ca        1 1NP     -0.153000
      9 C4A         3.4840    0.0000    1.2070 ca        1 1NP     -0.009000
     10 C5          4.2050   -0.0520    2.4310 ca        1 1NP     -0.130000
     11 C6          3.5420   -0.0430    3.6340 ca        1 1NP     -0.115000
     12 HO1        -0.3750    0.2020   -0.7930 ho        1 1NP      0.421000
     13 H8          0.3040    0.1170    2.5170 ha        1 1NP      0.149000
     14 H7          1.6200    0.0240    4.6490 ha        1 1NP      0.134000
     15 H2          1.4690    0.1440   -2.1490 ha        1 1NP      0.134000
     16 H3          3.9490    0.0360   -2.1930 ha        1 1NP      0.133000
     17 H4          5.2490   -0.0560   -0.0620 ha        1 1NP      0.134000
     18 H5          5.3030   -0.0990    2.3920 ha        1 1NP      0.133000
     19 H6          4.1010   -0.0830    4.5810 ha        1 1NP      0.132000
@<TRIPOS>BOND
     1    1    2 1   
     2    1   12 1   
     3    2    3 ar  
     4    2    6 ar  
     5    3    4 ar  
     6    3    9 ar  
     7    4    5 ar  
     8    4   13 1   
     9    5   11 ar  
    10    5   14 1   
    11    6    7 ar  
    12    6   15 1   
    13    7    8 ar  
    14    7   16 1   
    15    8    9 ar  
    16    8   17 1   
    17    9   10 ar  
    18   10   11 ar  
    19   10   18 1   
    20   11   19 1   
@<TRIPOS>SUBSTRUCTURE
     1 1NP         1 TEMP              0 ****  ****    0 ROOT
