@<TRIPOS>MOLECULE
1NQ
   62    65     1     0     0
SMALL
bcc


@<TRIPOS>ATOM
      1 CAA         3.1210    1.4150   -2.0870 c3        1 1NQ     -0.145100
      2 CAJ         2.2220    1.8540   -0.9540 c3        1 1NQ      0.116800
      3 NAS         2.6290    1.2350    0.3590 ny        1 1NQ     -0.665800
      4 CAX         1.7600    1.6710    1.5070 c         1 1NQ      0.584700
      5 OAD         1.0230    2.6290    1.3200 o         1 1NQ     -0.378100
      6 CAZ         1.8800    0.9030    2.7410 cc        1 1NQ     -0.286700
      7 SAU         0.7730    1.0130    3.9580 ss        1 1NQ      0.524200
      8 CAG         2.9290    0.0250    3.0740 cd        1 1NQ     -0.105000
      9 CAH         2.7510   -0.5170    4.3590 cd        1 1NQ     -0.103000
     10 CBA         1.5690   -0.0360    4.9570 cc        1 1NQ     -0.298700
     11 CAY         1.0470   -0.4150    6.2590 c         1 1NQ      0.594700
     12 OAE        -0.0960   -0.2580    6.6670 o         1 1NQ     -0.388100
     13 NAT         2.0170   -1.0790    7.2100 ny        1 1NQ     -0.665800
     14 CAK         1.6460   -0.8660    8.6510 c3        1 1NQ      0.104800
     15 CAL         2.5490   -1.6360    9.6090 c3        1 1NQ     -0.104400
     16 CBF         2.1850   -1.2880   11.0480 c3        1 1NQ     -0.067700
     17 CAN         0.9490   -2.0350   11.5270 c3        1 1NQ     -0.078900
     18 CAP         0.6170   -1.6400   12.9660 c3        1 1NQ      0.156300
     19 CAM         3.3400   -1.6260   11.9820 c3        1 1NQ     -0.078900
     20 CAO         2.9890   -1.2350   13.4170 c3        1 1NQ      0.156300
     21 NBG         1.7370   -1.8350   13.8930 nh        1 1NQ     -0.720300
     22 C6          1.4080   -1.3540   15.2210 ca        1 1NQ      0.655200
     23 N1          1.0670   -0.0740   15.4610 nb        1 1NQ     -0.688000
     24 C2          0.7660    0.2840   16.7550 ca        1 1NQ      0.665900
     25 N3          0.7720   -0.5040   17.8430 nb        1 1NQ     -0.605000
     26 C4          1.1180   -1.8020   17.6080 ca        1 1NQ      0.412100
     27 CAI         1.2020   -2.8490   18.5970 cc        1 1NQ     -0.065800
     28 C5          1.4530   -2.3020   16.3030 ca        1 1NQ     -0.271700
     29 SAV         1.8310   -3.9240   16.3410 ss        1 1NQ      0.145500
     30 CBB         1.5840   -4.0520   18.0180 cd        1 1NQ     -0.273600
     31 CAW         1.7220   -5.2240   18.8450 c         1 1NQ      0.602300
     32 OAC         1.5220   -5.3610   20.0410 o         1 1NQ     -0.384100
     33 NAB         2.1910   -6.4960   18.1510 nz        1 1NQ     -0.763400
     34 H1          4.1820    1.7280   -1.9290 hc        1 1NQ      0.091700
     35 H2          2.7530    1.9160   -3.0230 hc        1 1NQ      0.091700
     36 H3          3.0830    0.3110   -2.2530 hc        1 1NQ      0.091700
     37 H4          1.1520    1.5540   -1.1500 hx        1 1NQ      0.123700
     38 H5          2.2590    2.9760   -0.8270 hx        1 1NQ      0.123700
     39 H6          2.5900    0.2120    0.2740 hn        1 1NQ      0.465800
     40 H7          3.7930   -0.2170    2.4460 ha        1 1NQ      0.184000
     41 H8          3.4520   -1.2340    4.7980 ha        1 1NQ      0.180000
     42 H9          2.0220   -2.0880    7.0130 hn        1 1NQ      0.464800
     43 H10         1.7100    0.2420    8.8510 hx        1 1NQ      0.121700
     44 H11         0.5720   -1.1920    8.7830 hx        1 1NQ      0.121700
     45 H12         3.6240   -1.3650    9.4310 hc        1 1NQ      0.070700
     46 H13         2.4390   -2.7410    9.4510 hc        1 1NQ      0.070700
     47 H14         1.9890   -0.1800   11.1170 hc        1 1NQ      0.066700
     48 H15         1.1210   -3.1400   11.4590 hc        1 1NQ      0.058700
     49 H16         0.0630   -1.7830   10.8890 hc        1 1NQ      0.058700
     50 H17        -0.2290   -2.2870   13.3320 h1        1 1NQ      0.064950
     51 H18         0.2560   -0.5700   12.9550 h1        1 1NQ      0.064950
     52 H19         3.5700   -2.7210   11.9210 hc        1 1NQ      0.058700
     53 H20         4.2620   -1.0620   11.6870 hc        1 1NQ      0.058700
     54 H21         3.8090   -1.5970   14.0990 h1        1 1NQ      0.064950
     55 H22         2.9630   -0.1070   13.4740 h1        1 1NQ      0.064950
     56 H23         0.4890    1.3540   16.9060 h5        1 1NQ      0.094100
     57 H24         0.9850   -2.6870   19.6640 ha        1 1NQ      0.220000
     58 H25         2.2520   -7.2570   18.8430 hn        1 1NQ      0.471467
     59 H26         1.5290   -6.7650   17.4190 hn        1 1NQ      0.471467
     60 HAS2        3.6010    1.5020    0.5620 hn        1 1NQ      0.465800
     61 HAT2        2.9620   -0.7140    7.0450 hn        1 1NQ      0.464800
     62 HAB3        3.1160   -6.3510   17.7350 hn        1 1NQ      0.471467
@<TRIPOS>BOND
     1    1    2 1   
     2    1   34 1   
     3    1   35 1   
     4    1   36 1   
     5    2    3 1   
     6    2   37 1   
     7    2   38 1   
     8    3    4 1   
     9    3   39 1   
    10    3   60 1   
    11    4    5 2   
    12    4    6 1   
    13    6    7 1   
    14    6    8 2   
    15    7   10 1   
    16    8    9 1   
    17    8   40 1   
    18    9   10 2   
    19    9   41 1   
    20   10   11 1   
    21   11   12 2   
    22   11   13 1   
    23   13   14 1   
    24   13   42 1   
    25   13   61 1   
    26   14   15 1   
    27   14   43 1   
    28   14   44 1   
    29   15   16 1   
    30   15   45 1   
    31   15   46 1   
    32   16   17 1   
    33   16   19 1   
    34   16   47 1   
    35   17   18 1   
    36   17   48 1   
    37   17   49 1   
    38   18   21 1   
    39   18   50 1   
    40   18   51 1   
    41   19   20 1   
    42   19   52 1   
    43   19   53 1   
    44   20   21 1   
    45   20   54 1   
    46   20   55 1   
    47   21   22 1   
    48   22   23 ar  
    49   22   28 ar  
    50   23   24 ar  
    51   24   25 ar  
    52   24   56 1   
    53   25   26 ar  
    54   26   27 1   
    55   26   28 ar  
    56   27   30 2   
    57   27   57 1   
    58   28   29 1   
    59   29   30 1   
    60   30   31 1   
    61   31   32 2   
    62   31   33 1   
    63   33   58 1   
    64   33   59 1   
    65   33   62 1   
@<TRIPOS>SUBSTRUCTURE
     1 1NQ         1 TEMP              0 ****  ****    0 ROOT
