@<TRIPOS>MOLECULE
1NQ
   59    53     1     0     0
SMALL
bcc


@<TRIPOS>ATOM
      1 CAA        -2.5120    5.5910   -9.8370 c3        1 1NQ     -0.240000
      2 CAJ        -1.0400    5.2150   -9.4610 c3        1 1NQ     -0.033000
      3 NAS        -1.0060    4.7090   -8.0790 n         1 1NQ     -0.365000
      4 CAX         0.2610    4.5480   -7.3930 c2        1 1NQ      0.373000
      5 OAD         1.2430    5.1610   -7.7760 o         1 1NQ     -0.366000
      6 CAZ         0.3870    3.5350   -6.2420 c2        1 1NQ     -0.472000
      7 SAU         1.0480    3.8020   -4.8550 ss        1 1NQ      0.828000
      8 CAG         0.0150    2.1460   -6.2940 c1        1 1NQ     -0.137000
      9 CAH         0.4310    1.4670   -4.9230 c1        1 1NQ     -0.143000
     10 CBA         1.0460    2.4770   -4.0800 c1        1 1NQ     -0.472000
     11 CAY         1.5050    2.2800   -2.6670 c1        1 1NQ      0.374000
     12 OAE         1.9920    3.1950   -2.0630 o         1 1NQ     -0.365000
     13 NAT         1.4440    0.9690   -2.0630 n3        1 1NQ     -0.366000
     14 CAK         1.7600    0.8080   -0.6710 c3        1 1NQ     -0.030000
     15 CAL         1.2070   -0.5350   -0.1660 c3        1 1NQ     -0.182000
     16 CBF         1.0250   -0.4750    1.4450 c3        1 1NQ     -0.104000
     17 CAN        -0.3890   -0.7590    1.7790 c3        1 1NQ     -0.158000
     18 CAP        -0.6120   -0.9040    3.2800 c3        1 1NQ     -0.053000
     19 CAM         1.9410   -1.4280    2.0610 c3        1 1NQ     -0.158000
     20 CAO         1.7060   -1.5710    3.5650 c3        1 1NQ     -0.053000
     21 NBG         0.3040   -1.8480    3.8900 n3        1 1NQ     -0.228000
     22 C6          0.1310   -1.8220    5.3050 c2        1 1NQ      0.176000
     23 N1          0.3580   -0.6330    5.9460 n2        1 1NQ     -0.215000
     24 C2          0.1290   -0.5240    7.3240 c1        1 1NQ     -0.010000
     25 N3         -0.3310   -1.6220    8.0440 n1        1 1NQ     -0.140000
     26 C4         -0.5570   -2.7960    7.4170 c1        1 1NQ      0.004000
     27 CAI        -1.1180   -4.2080    7.9600 c1        1 1NQ     -0.063000
     28 C5         -0.3250   -2.9110    6.0180 c1        1 1NQ     -0.435000
     29 SAV        -0.7120   -4.3690    5.5830 s         1 1NQ      0.577000
     30 CBB        -1.1990   -5.1190    6.8480 c1        1 1NQ     -0.394000
     31 CAW        -1.7650   -6.5000    7.1740 c1        1 1NQ      0.370000
     32 OAC        -2.1110   -6.7630    8.3110 o         1 1NQ     -0.349000
     33 NAB        -1.8510   -7.4990    6.1510 n3        1 1NQ     -0.432000
     34 H1         -2.7750    6.3940   -9.3540 hc        1 1NQ      0.081667
     35 H2         -2.5730    5.7600  -10.8230 hc        1 1NQ      0.081667
     36 H3         -3.1150    4.8480   -9.5910 hc        1 1NQ      0.081667
     37 H4         -0.7160    4.5290  -10.0660 h1        1 1NQ      0.103000
     38 H5         -0.4770    6.0010   -9.5320 h1        1 1NQ      0.103000
     39 H6         -1.7800    4.5260   -7.6460 hn        1 1NQ      0.222000
     40 H7         -0.4110    1.7090   -7.0280 DU        1 1NQ      0.168667
     41 H8          0.2990    0.5460   -4.6890 DU        1 1NQ      0.168667
     42 H9          1.2390    0.2350   -2.5770 hn        1 1NQ      0.223000
     43 H10         2.7500    0.8250   -0.5520 h1        1 1NQ      0.104500
     44 H11         1.3610    1.5310   -0.1650 h1        1 1NQ      0.104500
     45 H12         1.8370   -1.2610   -0.4000 hc        1 1NQ      0.086500
     46 H13         0.3290   -0.7110   -0.5910 hc        1 1NQ      0.086500
     47 H14         1.2520    0.4400    1.7620 hc        1 1NQ      0.097000
     48 H15        -0.6630   -1.6010    1.3310 hc        1 1NQ      0.092500
     49 H16        -0.9550   -0.0150    1.4410 hc        1 1NQ      0.092500
     50 H17        -0.4920   -0.0360    3.6980 h1        1 1NQ      0.089750
     51 H18        -1.5370   -1.2100    3.4380 h1        1 1NQ      0.089750
     52 H19         2.8430   -1.1320    1.9140 hc        1 1NQ      0.092500
     53 H20         1.8240   -2.2880    1.6430 hc        1 1NQ      0.092500
     54 H21         2.2500   -2.2910    3.8990 h1        1 1NQ      0.089750
     55 H22         1.9790   -0.7250    4.0150 h1        1 1NQ      0.089750
     56 H23         0.2960    0.3470    7.7930 ha        1 1NQ      0.194000
     57 H24        -1.3710   -4.4170    8.9180 DU        1 1NQ      0.168667
     58 H25        -1.5360   -7.3180    5.3040 hn        1 1NQ      0.227000
     59 H26        -2.2640   -8.3030    6.3260 hn        1 1NQ      0.227000
@<TRIPOS>BOND
     1    1    2 1   
     2    1   34 1   
     3    1   35 1   
     4    1   36 1   
     5    2    3 1   
     6    2   37 1   
     7    2   38 1   
     8    3    4 1   
     9    3   39 1   
    10    4    5 1   
    11    4    6 1   
    12    6    7 1   
    13    6    8 1   
    14    7   10 1   
    15    8    9 1   
    16    9   10 1   
    17   11   12 1   
    18   11   13 1   
    19   13   14 1   
    20   13   42 1   
    21   14   15 1   
    22   14   43 1   
    23   14   44 1   
    24   15   16 1   
    25   15   45 1   
    26   15   46 1   
    27   16   17 1   
    28   16   19 1   
    29   16   47 1   
    30   17   18 1   
    31   17   48 1   
    32   17   49 1   
    33   18   21 1   
    34   18   50 1   
    35   18   51 1   
    36   19   20 1   
    37   19   52 1   
    38   19   53 1   
    39   20   21 1   
    40   20   54 1   
    41   20   55 1   
    42   21   22 1   
    43   22   23 1   
    44   22   28 1   
    45   23   24 1   
    46   24   56 1   
    47   25   26 1   
    48   27   30 1   
    49   29   30 1   
    50   31   32 1   
    51   31   33 1   
    52   33   58 1   
    53   33   59 1   
@<TRIPOS>SUBSTRUCTURE
     1 1NQ         1 TEMP              0 ****  ****    0 ROOT
