@<TRIPOS>MOLECULE
1NQ
   59    62     1     0     0
SMALL
bcc


@<TRIPOS>ATOM
      1 CAA       -11.3350    0.8460   -0.1430 c3        1 1NQ     -0.124100
      2 CAJ       -10.4150    1.0960    1.0430 c3        1 1NQ      0.078000
      3 NAS        -9.0290    0.7770    0.8170 n         1 1NQ     -0.558900
      4 CAX        -8.4600   -0.3840    1.3240 c         1 1NQ      0.693700
      5 OAD        -9.0660   -1.1120    2.1350 o         1 1NQ     -0.582100
      6 CAZ        -7.0770   -0.6840    0.9050 cc        1 1NQ     -0.177700
      7 SAU        -5.9560    0.4350    0.3650 ss        1 1NQ      0.077200
      8 CAG        -6.5460   -1.9650    0.9370 cd        1 1NQ     -0.101000
      9 CAH        -5.1940   -1.9820    0.4900 cd        1 1NQ     -0.099000
     10 CBA        -4.7530   -0.7110    0.1530 cc        1 1NQ     -0.183700
     11 CAY        -3.3910   -0.4470   -0.3440 c         1 1NQ      0.695700
     12 OAE        -2.7120   -1.3370   -0.8930 o         1 1NQ     -0.585100
     13 NAT        -2.9200    0.8560   -0.2220 n         1 1NQ     -0.558900
     14 CAK        -1.5610    1.1930   -0.5500 c3        1 1NQ      0.080000
     15 CAL        -0.6080    1.2610    0.6460 c3        1 1NQ     -0.106400
     16 CBF         0.7940    1.6450    0.2030 c3        1 1NQ     -0.062700
     17 CAN         1.6100    2.1150    1.3980 c3        1 1NQ     -0.080400
     18 CAP         3.0420    2.4600    0.9920 c3        1 1NQ      0.184800
     19 CAM         1.5070    0.4790   -0.4630 c3        1 1NQ     -0.080400
     20 CAO         2.9400    0.8540   -0.8380 c3        1 1NQ      0.184800
     21 NBG         3.7040    1.3610    0.2970 nh        1 1NQ     -0.738300
     22 C6          5.0960    1.5150    0.0560 ca        1 1NQ      0.697200
     23 N1          5.7210    2.7100    0.2150 nb        1 1NQ     -0.742000
     24 C2          7.0810    2.7360    0.0550 ca        1 1NQ      0.651900
     25 N3          7.9070    1.7230   -0.2590 nb        1 1NQ     -0.666000
     26 C4          7.2870    0.5190   -0.4230 ca        1 1NQ      0.442100
     27 CAI         7.9220   -0.7410   -0.7480 cc        1 1NQ     -0.172800
     28 C5          5.8700    0.3490   -0.2770 ca        1 1NQ     -0.338700
     29 SAV         5.4200   -1.2440   -0.5120 ss        1 1NQ      0.112500
     30 CBB         7.0020   -1.7590   -0.8130 cd        1 1NQ     -0.173600
     31 CAW         7.3770   -3.1520   -1.1310 c         1 1NQ      0.696300
     32 OAC         8.4370   -3.4320   -1.7260 o         1 1NQ     -0.590100
     33 NAB         6.5030   -4.1500   -0.7650 n         1 1NQ     -0.673000
     34 H1        -12.3690    1.1640    0.1320 hc        1 1NQ      0.043033
     35 H2        -11.0110    1.4280   -1.0390 hc        1 1NQ      0.043033
     36 H3        -11.3580   -0.2370   -0.4130 hc        1 1NQ      0.043033
     37 H4        -10.4630    2.1910    1.3140 h1        1 1NQ      0.065200
     38 H5        -10.7820    0.5000    1.9280 h1        1 1NQ      0.065200
     39 H6         -8.6170    1.1780    0.0060 hn        1 1NQ      0.299500
     40 H7         -7.0960   -2.8510    1.2700 ha        1 1NQ      0.180000
     41 H8         -4.5810   -2.8850    0.4160 ha        1 1NQ      0.180000
     42 H9         -3.3740    1.4530    0.4310 hn        1 1NQ      0.300500
     43 H10        -1.1730    0.4350   -1.2900 h1        1 1NQ      0.065700
     44 H11        -1.5800    2.2020   -1.0570 h1        1 1NQ      0.065700
     45 H12        -0.9810    2.0200    1.3830 hc        1 1NQ      0.048700
     46 H13        -0.5790    0.2700    1.1700 hc        1 1NQ      0.048700
     47 H14         0.7240    2.4930   -0.5360 hc        1 1NQ      0.050700
     48 H15         1.1470    3.0340    1.8430 hc        1 1NQ      0.055450
     49 H16         1.6150    1.3170    2.1850 hc        1 1NQ      0.055450
     50 H17         3.0200    3.3910    0.3530 h1        1 1NQ      0.049950
     51 H18         3.6330    2.6900    1.9220 h1        1 1NQ      0.049950
     52 H19         1.5100   -0.4050    0.2260 hc        1 1NQ      0.055450
     53 H20         0.9720    0.1800   -1.4010 hc        1 1NQ      0.055450
     54 H21         3.4570   -0.0660   -1.2400 h1        1 1NQ      0.049950
     55 H22         2.9070    1.6190   -1.6690 h1        1 1NQ      0.049950
     56 H23         7.5490    3.7340    0.1990 h5        1 1NQ      0.057100
     57 H24         8.9980   -0.8460   -0.9220 ha        1 1NQ      0.193000
     58 H25         5.7260   -3.9640   -0.1860 hn        1 1NQ      0.314500
     59 H26         6.7600   -5.0920   -0.9290 hn        1 1NQ      0.314500
@<TRIPOS>BOND
     1    1    2 1   
     2    1   34 1   
     3    1   35 1   
     4    1   36 1   
     5    2    3 1   
     6    2   37 1   
     7    2   38 1   
     8    3    4 1   
     9    3   39 1   
    10    4    5 2   
    11    4    6 1   
    12    6    7 1   
    13    6    8 2   
    14    7   10 1   
    15    8    9 1   
    16    8   40 1   
    17    9   10 2   
    18    9   41 1   
    19   10   11 1   
    20   11   12 2   
    21   11   13 1   
    22   13   14 1   
    23   13   42 1   
    24   14   15 1   
    25   14   43 1   
    26   14   44 1   
    27   15   16 1   
    28   15   45 1   
    29   15   46 1   
    30   16   17 1   
    31   16   19 1   
    32   16   47 1   
    33   17   18 1   
    34   17   48 1   
    35   17   49 1   
    36   18   21 1   
    37   18   50 1   
    38   18   51 1   
    39   19   20 1   
    40   19   52 1   
    41   19   53 1   
    42   20   21 1   
    43   20   54 1   
    44   20   55 1   
    45   21   22 1   
    46   22   23 ar  
    47   22   28 ar  
    48   23   24 ar  
    49   24   25 ar  
    50   24   56 1   
    51   25   26 ar  
    52   26   27 1   
    53   26   28 ar  
    54   27   30 2   
    55   27   57 1   
    56   28   29 1   
    57   29   30 1   
    58   30   31 1   
    59   31   32 2   
    60   31   33 1   
    61   33   58 1   
    62   33   59 1   
@<TRIPOS>SUBSTRUCTURE
     1 1NQ         1 TEMP              0 ****  ****    0 ROOT
