@<TRIPOS>MOLECULE
1NQ
   62    65     1     0     0
SMALL
bcc


@<TRIPOS>ATOM
      1 CAA         1.9320    1.4850   -2.1270 c3        1 1NQ     -0.145100
      2 CAJ         2.8130    1.7960   -0.9390 c3        1 1NQ      0.116800
      3 NAS         2.2420    1.2470    0.3440 n4        1 1NQ     -0.665800
      4 CAX         3.0920    1.5590    1.5450 c         1 1NQ      0.584700
      5 OAD         3.9690    2.4010    1.4070 o         1 1NQ     -0.378100
      6 CAZ         2.7890    0.8220    2.7660 cc        1 1NQ     -0.286700
      7 SAU         3.8230    0.7770    4.0490 ss        1 1NQ      0.524200
      8 CAG         1.6050    0.1060    3.0310 cd        1 1NQ     -0.105000
      9 CAH         1.6250   -0.4500    4.3220 cd        1 1NQ     -0.103000
     10 CBA         2.8250   -0.1410    4.9920 cc        1 1NQ     -0.298700
     11 CAY         3.2070   -0.5870    6.3220 c         1 1NQ      0.594700
     12 OAE         4.3330   -0.5960    6.7990 o         1 1NQ     -0.388100
     13 NAT         2.0950   -1.0970    7.2110 n4        1 1NQ     -0.665800
     14 CAK         2.4020   -0.9280    8.6710 c3        1 1NQ      0.104800
     15 CAL         1.3420   -1.5540    9.5710 c3        1 1NQ     -0.104400
     16 CBF         1.6630   -1.2520   11.0300 c3        1 1NQ     -0.067700
     17 CAN         0.4160   -1.4150   11.8910 c3        1 1NQ     -0.078900
     18 CAP         0.7310   -1.0660   13.3450 c3        1 1NQ      0.156300
     19 CAM         2.7480   -2.1630   11.5840 c3        1 1NQ     -0.078900
     20 CAO         3.0440   -1.8080   13.0410 c3        1 1NQ      0.156300
     21 NBG         1.8530   -1.8340   13.8970 nh        1 1NQ     -0.720300
     22 C6          2.1650   -1.3950   15.2440 ca        1 1NQ      0.655200
     23 N1          2.6700   -0.1750   15.5060 nb        1 1NQ     -0.688000
     24 C2          2.9370    0.1470   16.8160 ca        1 1NQ      0.665900
     25 N3          2.7530   -0.6240   17.9000 nb        1 1NQ     -0.605000
     26 C4          2.2400   -1.8620   17.6430 ca        1 1NQ      0.412100
     27 CAI         1.9480   -2.8790   18.6240 cc        1 1NQ     -0.065800
     28 C5          1.9180   -2.3180   16.3200 ca        1 1NQ     -0.271700
     29 SAV         1.3120   -3.8700   16.3320 ss        1 1NQ      0.145500
     30 CBB         1.4350   -4.0190   18.0210 cd        1 1NQ     -0.273600
     31 CAW         1.0800   -5.1530   18.8370 c         1 1NQ      0.602300
     32 OAC         1.1850   -5.3080   20.0430 o         1 1NQ     -0.384100
     33 NAB         0.4800   -6.3510   18.1130 n4        1 1NQ     -0.763400
     34 H1          2.4250    1.9230   -3.0370 hc        1 1NQ      0.091700
     35 H2          1.8220    0.3860   -2.2950 hc        1 1NQ      0.091700
     36 H3          0.9190    1.9470   -2.0330 hc        1 1NQ      0.091700
     37 H4          3.8390    1.3440   -1.0710 hx        1 1NQ      0.123700
     38 H5          2.9300    2.9120   -0.8090 hx        1 1NQ      0.123700
     39 H6          2.1390    0.2290    0.2570 hn        1 1NQ      0.465800
     40 H7          0.7550   -0.0110    2.3510 ha        1 1NQ      0.184000
     41 H8          0.8020   -1.0560    4.7140 ha        1 1NQ      0.180000
     42 H9          1.2240   -0.6020    6.9880 hn        1 1NQ      0.464800
     43 H10         2.4860    0.1790    8.8700 hx        1 1NQ      0.121700
     44 H11         3.4090   -1.4030    8.8700 hx        1 1NQ      0.121700
     45 H12         1.3020   -2.6650    9.4180 hc        1 1NQ      0.070700
     46 H13         0.3290   -1.1340    9.3270 hc        1 1NQ      0.070700
     47 H14         2.0100   -0.1820   11.1130 hc        1 1NQ      0.066700
     48 H15         0.0370   -2.4660   11.8140 hc        1 1NQ      0.058700
     49 H16        -0.3960   -0.7270   11.5400 hc        1 1NQ      0.058700
     50 H17         0.9130    0.0470   13.4050 h1        1 1NQ      0.064950
     51 H18        -0.1730   -1.3020   13.9750 h1        1 1NQ      0.064950
     52 H19         3.6980   -2.0440   11.0020 hc        1 1NQ      0.058700
     53 H20         2.4250   -3.2330   11.5040 hc        1 1NQ      0.058700
     54 H21         3.5530   -0.8000   13.0540 h1        1 1NQ      0.064950
     55 H22         3.7650   -2.5660   13.4580 h1        1 1NQ      0.064950
     56 H23         3.3540    1.1670   16.9850 h5        1 1NQ      0.094100
     57 H24         2.1200   -2.7410   19.7030 ha        1 1NQ      0.220000
     58 H25         0.2690   -7.0900   18.7990 hn        1 1NQ      0.471467
     59 H26         1.1420   -6.7170   17.4230 hn        1 1NQ      0.471467
     60 HAS2        1.3080    1.6510    0.4880 hn        1 1NQ      0.465800
     61 HAT2        1.9560   -2.0970    7.0130 hn        1 1NQ      0.464800
     62 HAB3       -0.3870   -6.0810   17.6400 hn        1 1NQ      0.471467
@<TRIPOS>BOND
     1    1    2 1   
     2    1   34 1   
     3    1   35 1   
     4    1   36 1   
     5    2    3 1   
     6    2   37 1   
     7    2   38 1   
     8    3    4 1   
     9    3   39 1   
    10    3   60 1   
    11    4    5 2   
    12    4    6 1   
    13    6    7 1   
    14    6    8 2   
    15    7   10 1   
    16    8    9 1   
    17    8   40 1   
    18    9   10 2   
    19    9   41 1   
    20   10   11 1   
    21   11   12 2   
    22   11   13 1   
    23   13   14 1   
    24   13   42 1   
    25   13   61 1   
    26   14   15 1   
    27   14   43 1   
    28   14   44 1   
    29   15   16 1   
    30   15   45 1   
    31   15   46 1   
    32   16   17 1   
    33   16   19 1   
    34   16   47 1   
    35   17   18 1   
    36   17   48 1   
    37   17   49 1   
    38   18   21 1   
    39   18   50 1   
    40   18   51 1   
    41   19   20 1   
    42   19   52 1   
    43   19   53 1   
    44   20   21 1   
    45   20   54 1   
    46   20   55 1   
    47   21   22 1   
    48   22   23 ar  
    49   22   28 ar  
    50   23   24 ar  
    51   24   25 ar  
    52   24   56 1   
    53   25   26 ar  
    54   26   27 1   
    55   26   28 ar  
    56   27   30 2   
    57   27   57 1   
    58   28   29 1   
    59   29   30 1   
    60   30   31 1   
    61   31   32 2   
    62   31   33 1   
    63   33   58 1   
    64   33   59 1   
    65   33   62 1   
@<TRIPOS>SUBSTRUCTURE
     1 1NQ         1 TEMP              0 ****  ****    0 ROOT
