@<TRIPOS>MOLECULE
1NQ
   62    65     1     0     0
SMALL
bcc


@<TRIPOS>ATOM
      1 CAA         2.4330    1.9320   -2.0850 c3        1 1NQ     -0.145100
      2 CAJ         1.9710    0.9490   -1.0340 c3        1 1NQ      0.117800
      3 NAS         2.4440    1.3370    0.3440 n4        1 1NQ     -0.665800
      4 CAX         1.9930    0.3800    1.4140 c         1 1NQ      0.583700
      5 OAD         1.2130   -0.5040    1.0860 o         1 1NQ     -0.384100
      6 CAZ         2.5360    0.6010    2.7490 cc        1 1NQ     -0.222700
      7 SAU         2.3010   -0.4900    3.9880 ss        1 1NQ      0.320200
      8 CAG         3.2830    1.7040    3.1760 cd        1 1NQ     -0.109000
      9 CAH         3.6390    1.5920    4.5390 cd        1 1NQ     -0.030000
     10 CBA         3.1420    0.4020    5.1050 cc        1 1NQ     -0.273700
     11 CAY         3.4580    0.1150    6.4950 c         1 1NQ      0.595700
     12 OAE         4.3100    0.6700    7.1730 o         1 1NQ     -0.371100
     13 NAT         2.6620   -0.9760    7.1860 n4        1 1NQ     -0.676800
     14 CAK         2.4330   -0.6740    8.6420 c3        1 1NQ      0.104800
     15 CAL         1.7760   -1.8340    9.3800 c3        1 1NQ     -0.106400
     16 CBF         1.5340   -1.4510   10.8370 c3        1 1NQ     -0.065700
     17 CAN         0.4830   -2.3720   11.4460 c3        1 1NQ     -0.079900
     18 CAP         0.2300   -2.0020   12.9070 c3        1 1NQ      0.158800
     19 CAM         2.8040   -1.5380   11.6690 c3        1 1NQ     -0.079900
     20 CAO         2.5150   -1.1780   13.1270 c3        1 1NQ      0.158800
     21 NBG         1.4550   -2.0040   13.7130 nh        1 1NQ     -0.726300
     22 C6          1.1830   -1.6340   15.0860 ca        1 1NQ      0.665200
     23 N1          0.7980   -0.4030   15.4500 nb        1 1NQ     -0.690000
     24 C2          0.5710   -0.1660   16.7940 ca        1 1NQ      0.670900
     25 N3          0.6850   -1.0320   17.8060 nb        1 1NQ     -0.623000
     26 C4          1.0770   -2.2950   17.4450 ca        1 1NQ      0.423100
     27 CAI         1.2780   -3.4100   18.3220 cc        1 1NQ     -0.168800
     28 C5          1.3480   -2.6710   16.0820 ca        1 1NQ     -0.338700
     29 SAV         1.8020   -4.2440   15.9490 ss        1 1NQ      0.370500
     30 CBB         1.6770   -4.5370   17.6090 cd        1 1NQ     -0.289600
     31 CAW         1.9680   -5.8340   18.1640 c         1 1NQ      0.606300
     32 OAC         2.3310   -6.8620   17.6110 o         1 1NQ     -0.406100
     33 NAB         1.8030   -5.9700   19.6680 n4        1 1NQ     -0.755400
     34 H1          3.5480    1.9820   -2.1550 hc        1 1NQ      0.092700
     35 H2          2.0280    2.9590   -1.9090 hc        1 1NQ      0.092700
     36 H3          2.0430    1.5740   -3.0760 hc        1 1NQ      0.092700
     37 H4          0.8430    0.8970   -1.0020 hx        1 1NQ      0.122200
     38 H5          2.3680   -0.0850   -1.2480 hx        1 1NQ      0.122200
     39 H6          3.4710    1.3810    0.3450 hn        1 1NQ      0.467800
     40 H7          3.5760    2.5690    2.5700 ha        1 1NQ      0.191000
     41 H8          4.2350    2.3390    5.0850 ha        1 1NQ      0.221000
     42 H9          3.1900   -1.8570    7.1170 hn        1 1NQ      0.460300
     43 H10         1.7850    0.2470    8.6960 hx        1 1NQ      0.122200
     44 H11         3.4360   -0.4370    9.1060 hx        1 1NQ      0.122200
     45 H12         0.7920   -2.0890    8.9030 hc        1 1NQ      0.070700
     46 H13         2.4280   -2.7480    9.3400 hc        1 1NQ      0.070700
     47 H14         1.1440   -0.3940   10.8770 hc        1 1NQ      0.065700
     48 H15         0.8230   -3.4370   11.3690 hc        1 1NQ      0.059700
     49 H16        -0.4870   -2.2760   10.8940 hc        1 1NQ      0.059700
     50 H17        -0.2860   -0.9980   12.9350 h1        1 1NQ      0.064200
     51 H18        -0.4690   -2.7640   13.3550 h1        1 1NQ      0.064200
     52 H19         3.5760   -0.8210   11.2870 hc        1 1NQ      0.059700
     53 H20         3.2310   -2.5730   11.6070 hc        1 1NQ      0.059700
     54 H21         3.4480   -1.3510   13.7340 h1        1 1NQ      0.064200
     55 H22         2.2670   -0.0770   13.1750 h1        1 1NQ      0.064200
     56 H23         0.2540    0.8730   17.0440 h5        1 1NQ      0.092100
     57 H24         1.1210   -3.3210   19.4010 ha        1 1NQ      0.178000
     58 H25         2.0310   -6.9320   19.9560 hn        1 1NQ      0.475800
     59 H26         2.4300   -5.3170   20.1490 hn        1 1NQ      0.475800
     60 HAS2        2.0850    2.2750    0.5670 hn        1 1NQ      0.467800
     61 HAT2        1.7570   -1.1040    6.7250 hn        1 1NQ      0.460300
     62 HAB3        0.8360   -5.7580   19.9350 hn        1 1NQ      0.475800
@<TRIPOS>BOND
     1    1    2 1   
     2    1   34 1   
     3    1   35 1   
     4    1   36 1   
     5    2    3 1   
     6    2   37 1   
     7    2   38 1   
     8    3    4 1   
     9    3   39 1   
    10    3   60 1   
    11    4    5 2   
    12    4    6 1   
    13    6    7 1   
    14    6    8 2   
    15    7   10 1   
    16    8    9 1   
    17    8   40 1   
    18    9   10 2   
    19    9   41 1   
    20   10   11 1   
    21   11   12 2   
    22   11   13 1   
    23   13   14 1   
    24   13   42 1   
    25   13   61 1   
    26   14   15 1   
    27   14   43 1   
    28   14   44 1   
    29   15   16 1   
    30   15   45 1   
    31   15   46 1   
    32   16   17 1   
    33   16   19 1   
    34   16   47 1   
    35   17   18 1   
    36   17   48 1   
    37   17   49 1   
    38   18   21 1   
    39   18   50 1   
    40   18   51 1   
    41   19   20 1   
    42   19   52 1   
    43   19   53 1   
    44   20   21 1   
    45   20   54 1   
    46   20   55 1   
    47   21   22 1   
    48   22   23 ar  
    49   22   28 ar  
    50   23   24 ar  
    51   24   25 ar  
    52   24   56 1   
    53   25   26 ar  
    54   26   27 1   
    55   26   28 ar  
    56   27   30 2   
    57   27   57 1   
    58   28   29 1   
    59   29   30 1   
    60   30   31 1   
    61   31   32 2   
    62   31   33 1   
    63   33   58 1   
    64   33   59 1   
    65   33   62 1   
@<TRIPOS>SUBSTRUCTURE
     1 1NQ         1 TEMP              0 ****  ****    0 ROOT
