@<TRIPOS>MOLECULE
1NR
   54    50     1     0     0
SMALL
bcc


@<TRIPOS>ATOM
      1 CAY         2.2610    5.0090   -3.8180 c3        1 1NR     -0.205000
      2 CAX         1.0750    4.7090   -2.8740 c3        1 1NR     -0.068000
      3 CAZ         0.1290    5.8880   -2.8640 c3        1 1NR     -0.205000
      4 CBA         1.5990    4.4620   -1.4570 c3        1 1NR     -0.205000
      5 CAA         0.3280    3.4570   -3.3710 c2        1 1NR      0.302000
      6 OAC         0.5090    3.0520   -4.5030 o         1 1NR     -0.374000
      7 NAB        -0.6740    2.8480   -2.5450 n         1 1NR     -0.376000
      8 CAD        -0.9830    1.4440   -2.7010 c3        1 1NR     -0.030000
      9 CAE        -1.3430    0.8350   -1.3150 c3        1 1NR     -0.178000
     10 CAF        -0.7900   -0.6380   -1.2250 c3        1 1NR     -0.101000
     11 CAK         0.5540   -0.6090   -0.5980 c3        1 1NR     -0.188500
     12 CAJ         1.0870   -2.0090   -0.3010 c3        1 1NR     -0.059000
     13 CAG        -1.7540   -1.4670   -0.4530 c3        1 1NR     -0.188500
     14 CAH        -1.2130   -2.8630   -0.1570 c3        1 1NR     -0.059000
     15 NAI         0.1250   -2.8310    0.4600 n3        1 1NR     -0.215000
     16 C6          0.0230   -2.3330    1.8130 c2        1 1NR      0.171000
     17 N1          0.3220   -1.0170    1.8890 n2        1 1NR     -0.215000
     18 C2          0.4780   -0.4050    3.1330 c1        1 1NR     -0.013000
     19 N3          0.3260   -1.1420    4.2930 n1        1 1NR     -0.141000
     20 C4          0.0290   -2.4500    4.2250 c1        1 1NR      0.003000
     21 CAR        -0.3020   -3.5370    5.3780 c1        1 1NR     -0.064000
     22 C5         -0.1300   -3.0720    2.9670 c1        1 1NR     -0.436000
     23 SAT        -0.5640   -4.5690    3.2170 s         1 1NR      0.581000
     24 CAS        -0.6480   -4.7790    4.7420 c1        1 1NR     -0.396000
     25 CAU        -0.5390   -6.1230    5.4530 c1        1 1NR      0.370000
     26 OAV        -0.1480   -6.1720    6.6000 o         1 1NR     -0.350000
     27 NAW        -0.8930   -7.3090    4.7770 n3        1 1NR     -0.432000
     28 H1          2.8070    5.7420   -3.4380 hc        1 1NR      0.083222
     29 H2          1.9160    5.2810   -4.7050 hc        1 1NR      0.083222
     30 H3          2.8170    4.2010   -3.9150 hc        1 1NR      0.083222
     31 H4         -0.5350    5.7730   -2.1410 hc        1 1NR      0.083222
     32 H5         -0.3330    5.9430   -3.7240 hc        1 1NR      0.083222
     33 H6          0.6350    6.7100   -2.7130 hc        1 1NR      0.083222
     34 H7          2.2840    5.1400   -1.2360 hc        1 1NR      0.083222
     35 H8          0.8530    4.5270   -0.8150 hc        1 1NR      0.083222
     36 H9          1.9970    3.5650   -1.4070 hc        1 1NR      0.083222
     37 H10        -1.1450    3.3520   -1.9640 hn        1 1NR      0.219000
     38 H11        -0.2050    0.9770   -3.0720 h1        1 1NR      0.101500
     39 H12        -1.7480    1.3430   -3.3130 h1        1 1NR      0.101500
     40 H13        -2.3130    0.8250   -1.2060 hc        1 1NR      0.085000
     41 H14        -0.9420    1.3750   -0.6080 hc        1 1NR      0.085000
     42 H15        -0.7110   -1.0040   -2.1300 hc        1 1NR      0.093000
     43 H16         1.1790   -0.1510   -1.2060 hc        1 1NR      0.097500
     44 H17         0.5010   -0.1080    0.2370 hc        1 1NR      0.097500
     45 H18         1.9160   -1.9290    0.2180 h1        1 1NR      0.102250
     46 H19         1.2870   -2.4600   -1.1520 h1        1 1NR      0.102250
     47 H20        -1.9510   -1.0190    0.3910 hc        1 1NR      0.097500
     48 H21        -2.5850   -1.5520   -0.9690 hc        1 1NR      0.097500
     49 H22        -1.8330   -3.3210    0.4520 h1        1 1NR      0.102250
     50 H23        -1.1620   -3.3700   -1.0010 h1        1 1NR      0.102250
     51 H24         0.6940    0.5410    3.1840 ha        1 1NR      0.192000
     52 H25        -0.2720   -3.3760    6.3490 DU        1 1NR      0.192000
     53 H27        -0.3670   -8.0490    4.8490 hn        1 1NR      0.227500
     54 H28        -1.6470   -7.3340    4.2660 hn        1 1NR      0.227500
@<TRIPOS>BOND
     1    1    2 1   
     2    1   28 1   
     3    1   29 1   
     4    1   30 1   
     5    2    3 1   
     6    2    4 1   
     7    2    5 1   
     8    3   31 1   
     9    3   32 1   
    10    3   33 1   
    11    4   34 1   
    12    4   35 1   
    13    4   36 1   
    14    5    6 1   
    15    5    7 1   
    16    7    8 1   
    17    7   37 1   
    18    8    9 1   
    19    8   38 1   
    20    8   39 1   
    21    9   10 1   
    22    9   40 1   
    23    9   41 1   
    24   10   11 1   
    25   10   13 1   
    26   10   42 1   
    27   11   12 1   
    28   11   43 1   
    29   11   44 1   
    30   12   15 1   
    31   12   45 1   
    32   12   46 1   
    33   13   14 1   
    34   13   47 1   
    35   13   48 1   
    36   14   15 1   
    37   14   49 1   
    38   14   50 1   
    39   15   16 1   
    40   16   17 1   
    41   16   22 1   
    42   17   18 1   
    43   18   51 1   
    44   19   20 1   
    45   21   24 1   
    46   23   24 1   
    47   25   26 1   
    48   25   27 1   
    49   27   53 1   
    50   27   54 1   
@<TRIPOS>SUBSTRUCTURE
     1 1NR         1 TEMP              0 ****  ****    0 ROOT
