@<TRIPOS>MOLECULE
1NR
   54    56     1     0     0
SMALL
bcc


@<TRIPOS>ATOM
      1 CAY         7.5130    2.4860    0.0060 c3        1 1NR     -0.086433
      2 CAX         7.1970    1.0080    0.1940 c3        1 1NR     -0.118000
      3 CAZ         8.1900    0.1750   -0.6020 c3        1 1NR     -0.086433
      4 CBA         7.2810    0.6590    1.6710 c3        1 1NR     -0.086433
      5 CAA         5.7720    0.7470   -0.3190 c         1 1NR      0.658100
      6 OAC         5.0730    1.6600   -0.8000 o         1 1NR     -0.608100
      7 NAB         5.3040   -0.5530   -0.2670 n         1 1NR     -0.567900
      8 CAD         3.9570   -0.9040   -0.6200 c3        1 1NR      0.086000
      9 CAE         3.0450   -1.2050    0.5720 c3        1 1NR     -0.103400
     10 CAF         1.6500   -1.5870    0.1070 c3        1 1NR     -0.063700
     11 CAK         0.8900   -2.2710    1.2340 c3        1 1NR     -0.079900
     12 CAJ        -0.5360   -2.6200    0.8110 c3        1 1NR      0.184800
     13 CAG         0.8650   -0.3700   -0.3590 c3        1 1NR     -0.079900
     14 CAH        -0.5590   -0.7530   -0.7560 c3        1 1NR      0.184800
     15 NAI        -1.2660   -1.4620    0.3060 nh        1 1NR     -0.738300
     16 C6         -2.6570   -1.6440    0.0770 ca        1 1NR      0.698200
     17 N1         -3.2250   -2.8780    0.0730 nb        1 1NR     -0.743000
     18 C2         -4.5870   -2.9450   -0.0560 ca        1 1NR      0.651900
     19 N3         -5.4650   -1.9360   -0.1970 nb        1 1NR     -0.667000
     20 C4         -4.9030   -0.6930   -0.1970 ca        1 1NR      0.441100
     21 CAR        -5.6020    0.5690   -0.3170 cc        1 1NR     -0.171800
     22 C5         -3.4900   -0.4800   -0.0620 ca        1 1NR     -0.338700
     23 SAT        -3.1180    1.1500   -0.0710 ss        1 1NR      0.111500
     24 CAS        -4.7290    1.6280   -0.2540 cd        1 1NR     -0.173600
     25 CAU        -5.1750    3.0330   -0.3540 c         1 1NR      0.696300
     26 OAV        -6.2750    3.3440   -0.8510 o         1 1NR     -0.590100
     27 NAW        -4.3230    4.0100    0.1090 n         1 1NR     -0.673000
     28 H1          7.4360    2.7590   -1.0740 hc        1 1NR      0.043478
     29 H2          6.7850    3.1090    0.5780 hc        1 1NR      0.043478
     30 H3          8.5460    2.7030    0.3670 hc        1 1NR      0.043478
     31 H4          9.2320    0.4620   -0.3190 hc        1 1NR      0.043478
     32 H5          8.0600   -0.9150   -0.3970 hc        1 1NR      0.043478
     33 H6          8.0560    0.3530   -1.6960 hc        1 1NR      0.043478
     34 H7          6.4740    1.1800    2.2400 hc        1 1NR      0.043478
     35 H8          7.1840   -0.4410    1.8350 hc        1 1NR      0.043478
     36 H9          8.2690    0.9840    2.0780 hc        1 1NR      0.043478
     37 H10         5.8290   -1.2270    0.2360 hn        1 1NR      0.304500
     38 H11         3.5120   -0.0590   -1.2210 h1        1 1NR      0.061700
     39 H12         4.0010   -1.8190   -1.2800 h1        1 1NR      0.061700
     40 H13         3.4750   -2.0510    1.1720 hc        1 1NR      0.047200
     41 H14         2.9860   -0.3120    1.2470 hc        1 1NR      0.047200
     42 H15         1.7360   -2.3090   -0.7540 hc        1 1NR      0.050700
     43 H16         1.4060   -3.2230    1.5230 hc        1 1NR      0.055200
     44 H17         0.8730   -1.6020    2.1330 hc        1 1NR      0.055200
     45 H18        -0.4920   -3.4420    0.0380 h1        1 1NR      0.049450
     46 H19        -1.0890   -3.0150    1.7090 h1        1 1NR      0.049450
     47 H20         0.8430    0.3990    0.4560 hc        1 1NR      0.055200
     48 H21         1.3590    0.0920   -1.2530 hc        1 1NR      0.055200
     49 H22        -1.1280    0.1900   -1.0030 h1        1 1NR      0.049450
     50 H23        -0.5160   -1.3830   -1.6930 h1        1 1NR      0.049450
     51 H24        -5.0070   -3.9730   -0.0500 h5        1 1NR      0.056100
     52 H25        -6.6870    0.6470   -0.4460 ha        1 1NR      0.193000
     53 H27        -3.5050    3.7820    0.6110 hn        1 1NR      0.314500
     54 H28        -4.6240    4.9530    0.0900 hn        1 1NR      0.314500
@<TRIPOS>BOND
     1    1    2 1   
     2    1   28 1   
     3    1   29 1   
     4    1   30 1   
     5    2    3 1   
     6    2    4 1   
     7    2    5 1   
     8    3   31 1   
     9    3   32 1   
    10    3   33 1   
    11    4   34 1   
    12    4   35 1   
    13    4   36 1   
    14    5    6 2   
    15    5    7 1   
    16    7    8 1   
    17    7   37 1   
    18    8    9 1   
    19    8   38 1   
    20    8   39 1   
    21    9   10 1   
    22    9   40 1   
    23    9   41 1   
    24   10   11 1   
    25   10   13 1   
    26   10   42 1   
    27   11   12 1   
    28   11   43 1   
    29   11   44 1   
    30   12   15 1   
    31   12   45 1   
    32   12   46 1   
    33   13   14 1   
    34   13   47 1   
    35   13   48 1   
    36   14   15 1   
    37   14   49 1   
    38   14   50 1   
    39   15   16 1   
    40   16   17 ar  
    41   16   22 ar  
    42   17   18 ar  
    43   18   19 ar  
    44   18   51 1   
    45   19   20 ar  
    46   20   21 1   
    47   20   22 ar  
    48   21   24 2   
    49   21   52 1   
    50   22   23 1   
    51   23   24 1   
    52   24   25 1   
    53   25   26 2   
    54   25   27 1   
    55   27   53 1   
    56   27   54 1   
@<TRIPOS>SUBSTRUCTURE
     1 1NR         1 TEMP              0 ****  ****    0 ROOT
