@<TRIPOS>MOLECULE
1NR
   56    58     1     0     0
SMALL
bcc


@<TRIPOS>ATOM
      1 CAY         0.2680    0.3600    1.5140 c3        1 1NR     -0.113767
      2 CAX         1.6400    0.0590    0.9170 c3        1 1NR     -0.098000
      3 CAZ         2.6660   -0.0980    2.0300 c3        1 1NR     -0.113767
      4 CBA         1.5670   -1.2000    0.0680 c3        1 1NR     -0.113767
      5 CAA         2.0350    1.2580    0.0630 c         1 1NR      0.545100
      6 OAC         1.5260    2.3620    0.0110 o         1 1NR     -0.395100
      7 NAB         3.2450    1.0380   -0.8420 n4        1 1NR     -0.685800
      8 CAD         3.7590    2.2900   -1.4680 c3        1 1NR      0.099800
      9 CAE         4.9360    2.0480   -2.4050 c3        1 1NR     -0.102400
     10 CAF         5.4750    3.3770   -2.9190 c3        1 1NR     -0.067700
     11 CAK         6.8910    3.2000   -3.4510 c3        1 1NR     -0.078400
     12 CAJ         7.4430    4.5350   -3.9490 c3        1 1NR      0.157300
     13 CAG         4.6080    3.9570   -4.0260 c3        1 1NR     -0.078400
     14 CAH         5.1860    5.2840   -4.5150 c3        1 1NR      0.157300
     15 NAI         6.5820    5.1720   -4.9530 nh        1 1NR     -0.725300
     16 C6          7.1160    6.4550   -5.3570 ca        1 1NR      0.660200
     17 N1          7.1720    7.5180   -4.5320 nb        1 1NR     -0.682000
     18 C2          7.6950    8.6920   -5.0260 ca        1 1NR      0.666900
     19 N3          8.1730    8.9200   -6.2600 nb        1 1NR     -0.611000
     20 C4          8.1210    7.8460   -7.1020 ca        1 1NR      0.411100
     21 CAR         8.5650    7.8190   -8.4740 cc        1 1NR     -0.065800
     22 C5          7.5980    6.5690   -6.7090 ca        1 1NR     -0.273700
     23 SAT         7.6630    5.4610   -7.9490 ss        1 1NR      0.151500
     24 CAS         8.3640    6.5640   -9.0360 cd        1 1NR     -0.280600
     25 CAU         8.7420    6.3240  -10.4040 c         1 1NR      0.605300
     26 OAV         9.2340    7.0800  -11.2270 o         1 1NR     -0.391100
     27 NAW         8.5010    4.9140  -10.9320 n4        1 1NR     -0.764400
     28 H1         -0.4970    0.4630    0.7070 hc        1 1NR      0.070922
     29 H2         -0.0320   -0.4790    2.1890 hc        1 1NR      0.070922
     30 H3          0.2960    1.3060    2.1070 hc        1 1NR      0.070922
     31 H4          2.3170   -0.8990    2.7320 hc        1 1NR      0.070922
     32 H5          3.6630   -0.4030    1.6320 hc        1 1NR      0.070922
     33 H6          2.7710    0.8490    2.6130 hc        1 1NR      0.070922
     34 H7          1.0810   -2.0130    0.6680 hc        1 1NR      0.070922
     35 H8          2.5820   -1.5610   -0.2240 hc        1 1NR      0.070922
     36 H9          0.9480   -1.0350   -0.8460 hc        1 1NR      0.070922
     37 H10         2.9730    0.3720   -1.5750 hn        1 1NR      0.457300
     38 H11         2.9050    2.7700   -2.0300 hx        1 1NR      0.114700
     39 H12         4.0580    2.9870   -0.6320 hx        1 1NR      0.114700
     40 H13         4.6230    1.4090   -3.2720 hc        1 1NR      0.066200
     41 H14         5.7580    1.5100   -1.8600 hc        1 1NR      0.066200
     42 H15         5.5090    4.1110   -2.0640 hc        1 1NR      0.067700
     43 H16         7.5700    2.8280   -2.6410 hc        1 1NR      0.058450
     44 H17         6.8930    2.4440   -4.2780 hc        1 1NR      0.058450
     45 H18         8.4430    4.3540   -4.4340 h1        1 1NR      0.062450
     46 H19         7.6070    5.2040   -3.0540 h1        1 1NR      0.062450
     47 H20         3.5700    4.1530   -3.6510 hc        1 1NR      0.058450
     48 H21         4.5360    3.2290   -4.8750 hc        1 1NR      0.058450
     49 H22         4.5880    5.6350   -5.4030 h1        1 1NR      0.062450
     50 H23         5.0620    6.0440   -3.6900 h1        1 1NR      0.062450
     51 H24         7.7210    9.5440   -4.3070 h5        1 1NR      0.093100
     52 H25         9.0010    8.6900   -8.9840 ha        1 1NR      0.216000
     53 H27         7.5050    4.6840  -10.8820 hn        1 1NR      0.471133
     54 H28         9.0330    4.2360  -10.3810 hn        1 1NR      0.471133
     55 HAB2        3.9870    0.6020   -0.2830 hn        1 1NR      0.457300
     56 HAW3        8.8070    4.8630  -11.9140 hn        1 1NR      0.471133
@<TRIPOS>BOND
     1    1    2 1   
     2    1   28 1   
     3    1   29 1   
     4    1   30 1   
     5    2    3 1   
     6    2    4 1   
     7    2    5 1   
     8    3   31 1   
     9    3   32 1   
    10    3   33 1   
    11    4   34 1   
    12    4   35 1   
    13    4   36 1   
    14    5    6 2   
    15    5    7 1   
    16    7    8 1   
    17    7   37 1   
    18    7   55 1   
    19    8    9 1   
    20    8   38 1   
    21    8   39 1   
    22    9   10 1   
    23    9   40 1   
    24    9   41 1   
    25   10   11 1   
    26   10   13 1   
    27   10   42 1   
    28   11   12 1   
    29   11   43 1   
    30   11   44 1   
    31   12   15 1   
    32   12   45 1   
    33   12   46 1   
    34   13   14 1   
    35   13   47 1   
    36   13   48 1   
    37   14   15 1   
    38   14   49 1   
    39   14   50 1   
    40   15   16 1   
    41   16   17 ar  
    42   16   22 ar  
    43   17   18 ar  
    44   18   19 ar  
    45   18   51 1   
    46   19   20 ar  
    47   20   21 1   
    48   20   22 ar  
    49   21   24 2   
    50   21   52 1   
    51   22   23 1   
    52   23   24 1   
    53   24   25 1   
    54   25   26 2   
    55   25   27 1   
    56   27   53 1   
    57   27   54 1   
    58   27   56 1   
@<TRIPOS>SUBSTRUCTURE
     1 1NR         1 TEMP              0 ****  ****    0 ROOT
