@<TRIPOS>MOLECULE
1NR
   56    58     1     0     0
SMALL
bcc


@<TRIPOS>ATOM
      1 CAY         0.2740    0.3670    1.5230 c3        1 1NR     -0.113433
      2 CAX         1.6400    0.0590    0.9170 c3        1 1NR     -0.098000
      3 CAZ         2.6710   -0.1120    2.0240 c3        1 1NR     -0.113433
      4 CBA         1.5540   -1.1940    0.0620 c3        1 1NR     -0.113433
      5 CAA         2.0390    1.2600    0.0670 c         1 1NR      0.545100
      6 OAC         1.5390    2.3690    0.0250 o         1 1NR     -0.395100
      7 NAB         3.2410    1.0350   -0.8480 ny        1 1NR     -0.685800
      8 CAD         3.7620    2.2880   -1.4680 c3        1 1NR      0.099800
      9 CAE         4.9310    2.0410   -2.4150 c3        1 1NR     -0.102400
     10 CAF         5.4790    3.3680   -2.9220 c3        1 1NR     -0.067700
     11 CAK         6.8890    3.1820   -3.4670 c3        1 1NR     -0.078400
     12 CAJ         7.4500    4.5150   -3.9580 c3        1 1NR      0.157300
     13 CAG         4.6090    3.9660   -4.0170 c3        1 1NR     -0.078400
     14 CAH         5.1970    5.2910   -4.5010 c3        1 1NR      0.157300
     15 NAI         6.5890    5.1690   -4.9500 nh        1 1NR     -0.725300
     16 C6          7.1320    6.4500   -5.3480 ca        1 1NR      0.660200
     17 N1          7.2060    7.5050   -4.5160 nb        1 1NR     -0.682000
     18 C2          7.7370    8.6780   -5.0040 ca        1 1NR      0.666900
     19 N3          8.2070    8.9110   -6.2400 nb        1 1NR     -0.611000
     20 C4          8.1370    7.8450   -7.0900 ca        1 1NR      0.411100
     21 CAR         8.5690    7.8250   -8.4660 cc        1 1NR     -0.065800
     22 C5          7.6040    6.5700   -6.7040 ca        1 1NR     -0.273700
     23 SAT         7.6480    5.4720   -7.9530 ss        1 1NR      0.151500
     24 CAS         8.3510    6.5770   -9.0370 cd        1 1NR     -0.280600
     25 CAU         8.7150    6.3440  -10.4090 c         1 1NR      0.605300
     26 OAV         9.2080    7.1020  -11.2300 o         1 1NR     -0.391100
     27 NAW         8.4550    4.9420  -10.9470 nz        1 1NR     -0.764400
     28 H1         -0.4950    0.4800    0.7220 hc        1 1NR      0.070922
     29 H2         -0.0280   -0.4730    2.1960 hc        1 1NR      0.070922
     30 H3          0.3130    1.3100    2.1220 hc        1 1NR      0.070922
     31 H4          2.3210   -0.9140    2.7230 hc        1 1NR      0.070922
     32 H5          2.7870    0.8320    2.6110 hc        1 1NR      0.070922
     33 H6          3.6640   -0.4210    1.6170 hc        1 1NR      0.070922
     34 H7          1.0650   -2.0070    0.6600 hc        1 1NR      0.070922
     35 H8          2.5640   -1.5620   -0.2380 hc        1 1NR      0.070922
     36 H9          0.9300   -1.0200   -0.8480 hc        1 1NR      0.070922
     37 H10         3.9830    0.5890   -0.2960 hn        1 1NR      0.457300
     38 H11         2.9090    2.7790   -2.0200 hx        1 1NR      0.114700
     39 H12         4.0740    2.9760   -0.6290 hx        1 1NR      0.114700
     40 H13         5.7510    1.4900   -1.8800 hc        1 1NR      0.066200
     41 H14         4.6050    1.4110   -3.2840 hc        1 1NR      0.066200
     42 H15         5.5270    4.0960   -2.0620 hc        1 1NR      0.067700
     43 H16         7.5700    2.7960   -2.6650 hc        1 1NR      0.058450
     44 H17         6.8770    2.4320   -4.3000 hc        1 1NR      0.058450
     45 H18         7.6280    5.1750   -3.0590 h1        1 1NR      0.062450
     46 H19         8.4450    4.3280   -4.4530 h1        1 1NR      0.062450
     47 H20         4.5230    3.2460   -4.8720 hc        1 1NR      0.058450
     48 H21         3.5760    4.1700   -3.6330 hc        1 1NR      0.058450
     49 H22         4.5960    5.6560   -5.3810 h1        1 1NR      0.062450
     50 H23         5.0870    6.0460   -3.6680 h1        1 1NR      0.062450
     51 H24         7.7770    9.5230   -4.2780 h5        1 1NR      0.093100
     52 H25         9.0110    8.6960   -8.9720 ha        1 1NR      0.216000
     53 H27         8.7530    4.8950  -11.9320 hn        1 1NR      0.471133
     54 H28         7.4570    4.7210  -10.8900 hn        1 1NR      0.471133
     55 HAB2        2.9590    0.3770   -1.5830 hn        1 1NR      0.457300
     56 HAW3        8.9850    4.2530  -10.4060 hn        1 1NR      0.471133
@<TRIPOS>BOND
     1    1    2 1   
     2    1   28 1   
     3    1   29 1   
     4    1   30 1   
     5    2    3 1   
     6    2    4 1   
     7    2    5 1   
     8    3   31 1   
     9    3   32 1   
    10    3   33 1   
    11    4   34 1   
    12    4   35 1   
    13    4   36 1   
    14    5    6 2   
    15    5    7 1   
    16    7    8 1   
    17    7   37 1   
    18    7   55 1   
    19    8    9 1   
    20    8   38 1   
    21    8   39 1   
    22    9   10 1   
    23    9   40 1   
    24    9   41 1   
    25   10   11 1   
    26   10   13 1   
    27   10   42 1   
    28   11   12 1   
    29   11   43 1   
    30   11   44 1   
    31   12   15 1   
    32   12   45 1   
    33   12   46 1   
    34   13   14 1   
    35   13   47 1   
    36   13   48 1   
    37   14   15 1   
    38   14   49 1   
    39   14   50 1   
    40   15   16 1   
    41   16   17 ar  
    42   16   22 ar  
    43   17   18 ar  
    44   18   19 ar  
    45   18   51 1   
    46   19   20 ar  
    47   20   21 1   
    48   20   22 ar  
    49   21   24 2   
    50   21   52 1   
    51   22   23 1   
    52   23   24 1   
    53   24   25 1   
    54   25   26 2   
    55   25   27 1   
    56   27   53 1   
    57   27   54 1   
    58   27   56 1   
@<TRIPOS>SUBSTRUCTURE
     1 1NR         1 TEMP              0 ****  ****    0 ROOT
