@<TRIPOS>MOLECULE
1NR
   56    58     1     0     0
SMALL
bcc


@<TRIPOS>ATOM
      1 CAY         0.2390    0.4140    1.5180 c3        1 1NR     -0.113433
      2 CAX         1.6060    0.0960    0.9180 c3        1 1NR     -0.098000
      3 CAZ         2.6320   -0.0760    2.0290 c3        1 1NR     -0.113433
      4 CBA         1.5150   -1.1610    0.0680 c3        1 1NR     -0.113433
      5 CAA         2.0150    1.2910    0.0640 c         1 1NR      0.545100
      6 OAC         1.5220    2.4030    0.0170 o         1 1NR     -0.395100
      7 NAB         3.2180    1.0550   -0.8470 n4        1 1NR     -0.685800
      8 CAD         3.7500    2.3020   -1.4680 c3        1 1NR      0.099800
      9 CAE         4.9180    2.0450   -2.4120 c3        1 1NR     -0.102400
     10 CAF         5.4790    3.3660   -2.9210 c3        1 1NR     -0.067700
     11 CAK         6.8870    3.1670   -3.4640 c3        1 1NR     -0.078400
     12 CAJ         7.4610    4.4950   -3.9570 c3        1 1NR      0.157300
     13 CAG         4.6150    3.9700   -4.0190 c3        1 1NR     -0.078400
     14 CAH         5.2150    5.2890   -4.5040 c3        1 1NR      0.157300
     15 NAI         6.6060    5.1540   -4.9500 nh        1 1NR     -0.725300
     16 C6          7.1600    6.4300   -5.3500 ca        1 1NR      0.660200
     17 N1          7.2430    7.4850   -4.5190 nb        1 1NR     -0.682000
     18 C2          7.7850    8.6530   -5.0090 ca        1 1NR      0.666900
     19 N3          8.2570    8.8800   -6.2450 nb        1 1NR     -0.611000
     20 C4          8.1780    7.8140   -7.0940 ca        1 1NR      0.411100
     21 CAR         8.6120    7.7870   -8.4690 cc        1 1NR     -0.065800
     22 C5          7.6340    6.5440   -6.7050 ca        1 1NR     -0.273700
     23 SAT         7.6700    5.4440   -7.9530 ss        1 1NR      0.151500
     24 CAS         8.3830    6.5410   -9.0380 cd        1 1NR     -0.280600
     25 CAU         8.7450    6.3030  -10.4100 c         1 1NR      0.605300
     26 OAV         9.2460    7.0550  -11.2320 o         1 1NR     -0.391100
     27 NAW         8.4740    4.9020  -10.9460 n4        1 1NR     -0.764400
     28 H1         -0.0690   -0.4210    2.1930 hc        1 1NR      0.070922
     29 H2          0.2810    1.3590    2.1120 hc        1 1NR      0.070922
     30 H3         -0.5260    0.5280    0.7130 hc        1 1NR      0.070922
     31 H4          2.7510    0.8690    2.6130 hc        1 1NR      0.070922
     32 H5          3.6250   -0.3920    1.6270 hc        1 1NR      0.070922
     33 H6          2.2760   -0.8740    2.7300 hc        1 1NR      0.070922
     34 H7          1.0200   -1.9680    0.6670 hc        1 1NR      0.070922
     35 H8          2.5250   -1.5350   -0.2280 hc        1 1NR      0.070922
     36 H9          0.8960   -0.9870   -0.8450 hc        1 1NR      0.070922
     37 H10         2.9320    0.3980   -1.5810 hn        1 1NR      0.457300
     38 H11         4.0650    2.9900   -0.6300 hx        1 1NR      0.114700
     39 H12         2.9010    2.7990   -2.0230 hx        1 1NR      0.114700
     40 H13         5.7330    1.4880   -1.8750 hc        1 1NR      0.066200
     41 H14         4.5890    1.4160   -3.2810 hc        1 1NR      0.066200
     42 H15         5.5310    4.0950   -2.0620 hc        1 1NR      0.067700
     43 H16         6.8700    2.4170   -4.2950 hc        1 1NR      0.058450
     44 H17         7.5640    2.7770   -2.6600 hc        1 1NR      0.058450
     45 H18         8.4540    4.2990   -4.4490 h1        1 1NR      0.062450
     46 H19         7.6430    5.1550   -3.0580 h1        1 1NR      0.062450
     47 H20         4.5240    3.2480   -4.8720 hc        1 1NR      0.058450
     48 H21         3.5830    4.1830   -3.6360 hc        1 1NR      0.058450
     49 H22         4.6170    5.6570   -5.3850 h1        1 1NR      0.062450
     50 H23         5.1100    6.0460   -3.6720 h1        1 1NR      0.062450
     51 H24         7.8310    9.4990   -4.2840 h5        1 1NR      0.093100
     52 H25         9.0610    8.6540   -8.9760 ha        1 1NR      0.216000
     53 H27         8.9970    4.2090  -10.4040 hn        1 1NR      0.471133
     54 H28         7.4740    4.6900  -10.8890 hn        1 1NR      0.471133
     55 HAB2        3.9540    0.6040   -0.2920 hn        1 1NR      0.457300
     56 HAW3        8.7710    4.8510  -11.9310 hn        1 1NR      0.471133
@<TRIPOS>BOND
     1    1    2 1   
     2    1   28 1   
     3    1   29 1   
     4    1   30 1   
     5    2    3 1   
     6    2    4 1   
     7    2    5 1   
     8    3   31 1   
     9    3   32 1   
    10    3   33 1   
    11    4   34 1   
    12    4   35 1   
    13    4   36 1   
    14    5    6 2   
    15    5    7 1   
    16    7    8 1   
    17    7   37 1   
    18    7   55 1   
    19    8    9 1   
    20    8   38 1   
    21    8   39 1   
    22    9   10 1   
    23    9   40 1   
    24    9   41 1   
    25   10   11 1   
    26   10   13 1   
    27   10   42 1   
    28   11   12 1   
    29   11   43 1   
    30   11   44 1   
    31   12   15 1   
    32   12   45 1   
    33   12   46 1   
    34   13   14 1   
    35   13   47 1   
    36   13   48 1   
    37   14   15 1   
    38   14   49 1   
    39   14   50 1   
    40   15   16 1   
    41   16   17 ar  
    42   16   22 ar  
    43   17   18 ar  
    44   18   19 ar  
    45   18   51 1   
    46   19   20 ar  
    47   20   21 1   
    48   20   22 ar  
    49   21   24 2   
    50   21   52 1   
    51   22   23 1   
    52   23   24 1   
    53   24   25 1   
    54   25   26 2   
    55   25   27 1   
    56   27   53 1   
    57   27   54 1   
    58   27   56 1   
@<TRIPOS>SUBSTRUCTURE
     1 1NR         1 TEMP              0 ****  ****    0 ROOT
