@<TRIPOS>MOLECULE
1NS
   46    48     1     0     0
SMALL
bcc


@<TRIPOS>ATOM
      1 C01         6.7980    2.1090    0.3220 c3        1 1NS     -0.362300
      2 S02         6.4210    0.4470    0.3070 s6        1 1NS      1.467900
      3 N03         4.8230    0.4280    0.5330 n3        1 1NS     -0.927100
      4 C04         3.8510    0.3900   -0.5210 c3        1 1NS      0.223800
      5 C05         2.8160   -0.7280   -0.3770 c3        1 1NS     -0.096400
      6 C06         1.8340   -0.7130   -1.5390 c3        1 1NS     -0.063700
      7 C07         1.1550   -2.0650   -1.7010 c3        1 1NS     -0.078900
      8 C08         0.1430   -2.3400   -0.5900 c3        1 1NS      0.183800
      9 N09        -0.8510   -1.2780   -0.4750 nh        1 1NS     -0.736300
     10 C10        -1.9490   -1.5360    0.3930 ca        1 1NS      0.694200
     11 C11        -3.1300   -0.7260    0.2630 ca        1 1NS     -0.338700
     12 C12        -4.2540   -1.0630    1.0890 ca        1 1NS      0.442100
     13 C13        -5.3600   -0.1630    0.8380 cc        1 1NS     -0.173800
     14 C14        -5.0440    0.7540   -0.1330 cd        1 1NS     -0.172600
     15 C15        -5.9860    1.7980   -0.5860 c         1 1NS      0.694300
     16 N16        -5.8220    2.2960   -1.8590 n         1 1NS     -0.671000
     17 O17        -6.8880    2.2400    0.1520 o         1 1NS     -0.586100
     18 S18        -3.4720    0.5750   -0.7300 ss        1 1NS      0.112500
     19 N19        -4.2360   -2.1040    1.9700 nb        1 1NS     -0.665000
     20 C20        -3.0800   -2.7910    1.9980 ca        1 1NS      0.651900
     21 N21        -1.9390   -2.5690    1.2740 nb        1 1NS     -0.740000
     22 C22        -0.2630    0.0480   -0.3220 c3        1 1NS      0.183800
     23 C23         0.7740    0.3670   -1.3970 c3        1 1NS     -0.078900
     24 O24         6.7530   -0.0560   -0.9680 o         1 1NS     -0.654300
     25 O25         7.0510   -0.1440    1.4220 o         1 1NS     -0.654300
     26 H1          6.5540    2.6120    1.2880 h1        1 1NS      0.113033
     27 H2          7.8970    2.2550    0.1650 h1        1 1NS      0.113033
     28 H3          6.2900    2.6900   -0.4840 h1        1 1NS      0.113033
     29 H4          4.4290    0.3690    1.4420 hn        1 1NS      0.449800
     30 H5          3.3080    1.3800   -0.5580 h1        1 1NS      0.051200
     31 H6          4.3940    0.2570   -1.5040 h1        1 1NS      0.051200
     32 H7          3.3420   -1.7200   -0.3500 hc        1 1NS      0.052700
     33 H8          2.2630   -0.6190    0.5920 hc        1 1NS      0.052700
     34 H9          2.4160   -0.5060   -2.4830 hc        1 1NS      0.056700
     35 H10         0.6410   -2.0950   -2.6970 hc        1 1NS      0.054450
     36 H11         1.9170   -2.8870   -1.6860 hc        1 1NS      0.054450
     37 H12        -0.3990   -3.2990   -0.8260 h1        1 1NS      0.049200
     38 H13         0.7030   -2.4840    0.3800 h1        1 1NS      0.049200
     39 H14        -6.3150   -0.2220    1.3710 ha        1 1NS      0.193000
     40 H15        -5.2230    1.8510   -2.5060 hn        1 1NS      0.313500
     41 H16        -6.4830    2.9500   -2.2010 hn        1 1NS      0.313500
     42 H17        -3.0280   -3.6490    2.7020 h5        1 1NS      0.058100
     43 H18        -1.0900    0.8150   -0.3870 h1        1 1NS      0.049200
     44 H19         0.2190    0.1560    0.6940 h1        1 1NS      0.049200
     45 H20         1.2490    1.3470   -1.1330 hc        1 1NS      0.054450
     46 H21         0.2570    0.4930   -2.3850 hc        1 1NS      0.054450
@<TRIPOS>BOND
     1    1    2 1   
     2    1   26 1   
     3    1   27 1   
     4    1   28 1   
     5    2    3 1   
     6    2   24 2   
     7    2   25 2   
     8    3    4 1   
     9    3   29 1   
    10    4    5 1   
    11    4   30 1   
    12    4   31 1   
    13    5    6 1   
    14    5   32 1   
    15    5   33 1   
    16    6    7 1   
    17    6   23 1   
    18    6   34 1   
    19    7    8 1   
    20    7   35 1   
    21    7   36 1   
    22    8    9 1   
    23    8   37 1   
    24    8   38 1   
    25    9   10 1   
    26    9   22 1   
    27   10   11 ar  
    28   10   21 ar  
    29   11   12 ar  
    30   11   18 1   
    31   12   13 1   
    32   12   19 ar  
    33   13   14 2   
    34   13   39 1   
    35   14   15 1   
    36   14   18 1   
    37   15   16 1   
    38   15   17 2   
    39   16   40 1   
    40   16   41 1   
    41   19   20 ar  
    42   20   21 ar  
    43   20   42 1   
    44   22   23 1   
    45   22   43 1   
    46   22   44 1   
    47   23   45 1   
    48   23   46 1   
@<TRIPOS>SUBSTRUCTURE
     1 1NS         1 TEMP              0 ****  ****    0 ROOT
