@<TRIPOS>MOLECULE
1NS
   48    50     1     0     0
SMALL
bcc


@<TRIPOS>ATOM
      1 C01         3.7610    0.0640   -1.3790 c3        1 1NS     -0.483300
      2 S02         2.4610   -0.6930   -0.7380 s6        1 1NS      1.425900
      3 N03         2.8620   -0.3770    1.1020 n4        1 1NS     -0.707900
      4 C04         1.9270   -1.1500    1.9570 c3        1 1NS      0.092800
      5 C05         2.1480   -0.9610    3.4540 c3        1 1NS     -0.102400
      6 C06         1.1850   -1.8370    4.2480 c3        1 1NS     -0.062700
      7 C07         1.7210   -2.1120    5.6460 c3        1 1NS     -0.079400
      8 C08         1.6180   -0.8930    6.5590 c3        1 1NS      0.158800
      9 N09         0.2510   -0.3700    6.6320 nh        1 1NS     -0.726300
     10 C10         0.1540    0.7500    7.5390 ca        1 1NS      0.663200
     11 C11        -0.6230    0.5510    8.7360 ca        1 1NS     -0.276700
     12 C12        -0.7210    1.6650    9.6350 ca        1 1NS      0.411100
     13 C13        -1.5230    1.3250   10.7840 cc        1 1NS     -0.068800
     14 C14        -1.9790    0.0150   10.7020 cd        1 1NS     -0.280600
     15 C15        -2.8020   -0.5250   11.7530 c         1 1NS      0.605300
     16 N16        -3.2530   -1.9710   11.5810 n4        1 1NS     -0.764400
     17 O17        -3.2040   -0.0020   12.7800 o         1 1NS     -0.390100
     18 S18        -1.4580   -0.7740    9.2910 ss        1 1NS      0.165500
     19 N19        -0.1190    2.8670    9.3950 nb        1 1NS     -0.610000
     20 C20         0.5760    2.9320    8.2490 ca        1 1NS      0.663900
     21 N21         0.7440    1.9380    7.3090 nb        1 1NS     -0.691000
     22 C22        -0.2930   -0.0570    5.3080 c3        1 1NS      0.158800
     23 C23        -0.2100   -1.2390    4.3440 c3        1 1NS     -0.079400
     24 O24         1.2830    0.0030   -0.8670 o         1 1NS     -0.550300
     25 O25         2.5210   -2.0650   -0.8010 o         1 1NS     -0.550300
     26 H1          3.7520    0.0370   -2.5150 h1        1 1NS      0.183367
     27 H2          3.8570    1.1650   -1.1610 h1        1 1NS      0.183367
     28 H3          4.7670   -0.3800   -1.1320 h1        1 1NS      0.183367
     29 H4          3.8160   -0.6480    1.3350 hn        1 1NS      0.448300
     30 H5          0.8780   -0.8270    1.6870 hx        1 1NS      0.115200
     31 H6          2.0530   -2.2440    1.6920 hx        1 1NS      0.115200
     32 H7          3.2040   -1.2420    3.7170 hc        1 1NS      0.067700
     33 H8          2.0010    0.1150    3.7370 hc        1 1NS      0.067700
     34 H9          1.1010   -2.8310    3.7170 hc        1 1NS      0.066700
     35 H10         1.1410   -2.9650    6.0870 hc        1 1NS      0.064200
     36 H11         2.7970   -2.4230    5.6010 hc        1 1NS      0.064200
     37 H12         2.3450   -0.1090    6.1960 h1        1 1NS      0.055200
     38 H13         1.9250   -1.1920    7.6010 h1        1 1NS      0.055200
     39 H14        -1.7310    2.0290   11.6040 ha        1 1NS      0.216000
     40 H15        -3.8310   -2.2440   12.3880 hn        1 1NS      0.472133
     41 H16        -2.4400   -2.5910   11.5300 hn        1 1NS      0.472133
     42 H17         1.0810    3.8980    8.0180 h5        1 1NS      0.089100
     43 H18        -1.3760    0.2210    5.4460 h1        1 1NS      0.055200
     44 H19         0.2300    0.8280    4.8410 h1        1 1NS      0.055200
     45 H20        -0.5560   -0.8850    3.3380 hc        1 1NS      0.064200
     46 H21        -0.9170   -2.0440    4.6800 hc        1 1NS      0.064200
     47 H032        2.7670    0.6110    1.3310 hn        1 1NS      0.448300
     48 H163       -3.8070   -2.0690   10.7260 hn        1 1NS      0.472133
@<TRIPOS>BOND
     1    1    2 1   
     2    1   26 1   
     3    1   27 1   
     4    1   28 1   
     5    2    3 1   
     6    2   24 2   
     7    2   25 2   
     8    3    4 1   
     9    3   29 1   
    10    3   47 1   
    11    4    5 1   
    12    4   30 1   
    13    4   31 1   
    14    5    6 1   
    15    5   32 1   
    16    5   33 1   
    17    6    7 1   
    18    6   23 1   
    19    6   34 1   
    20    7    8 1   
    21    7   35 1   
    22    7   36 1   
    23    8    9 1   
    24    8   37 1   
    25    8   38 1   
    26    9   10 1   
    27    9   22 1   
    28   10   11 ar  
    29   10   21 ar  
    30   11   12 ar  
    31   11   18 1   
    32   12   13 1   
    33   12   19 ar  
    34   13   14 2   
    35   13   39 1   
    36   14   15 1   
    37   14   18 1   
    38   15   16 1   
    39   15   17 2   
    40   16   40 1   
    41   16   41 1   
    42   16   48 1   
    43   19   20 ar  
    44   20   21 ar  
    45   20   42 1   
    46   22   23 1   
    47   22   43 1   
    48   22   44 1   
    49   23   45 1   
    50   23   46 1   
@<TRIPOS>SUBSTRUCTURE
     1 1NS         1 TEMP              0 ****  ****    0 ROOT
