@<TRIPOS>MOLECULE
1NS
   46    41     1     0     0
SMALL
bcc


@<TRIPOS>ATOM
      1 C01        -0.4180   -6.1430   -1.4060 c3        1 1NS     -0.946000
      2 S02         0.7800   -5.0780   -2.1950 s4        1 1NS      2.038800
      3 N03         0.0360   -3.6820   -2.7580 n2        1 1NS     -0.896000
      4 C04         0.7870   -2.4360   -2.8340 c3        1 1NS     -0.017000
      5 C05        -0.0320   -1.3040   -2.1930 c3        1 1NS     -0.178000
      6 C06         0.9410   -0.1310   -1.7480 c3        1 1NS     -0.102000
      7 C07         0.3740    1.1660   -2.2110 c3        1 1NS     -0.186500
      8 C08         1.1440    2.3590   -1.6700 c3        1 1NS     -0.060000
      9 N09         1.3120    2.3050   -0.2130 n3        1 1NS     -0.214000
     10 C10         0.0400    2.5350    0.4290 c2        1 1NS      0.167000
     11 C11        -0.5130    2.5400    1.6790 c1        1 1NS     -0.435000
     12 C12        -1.6160    3.3830    1.9590 c1        1 1NS      0.003000
     13 C13        -2.1070    3.0950    3.4670 c1        1 1NS     -0.063000
     14 C14        -1.2640    2.0790    4.0280 c1        1 1NS     -0.393000
     15 C15        -1.5400    2.2440    5.5090 c1        1 1NS      0.370000
     16 N16        -0.8920    1.3970    6.4520 n3        1 1NS     -0.432000
     17 O17        -2.3250    3.0990    5.8930 o         1 1NS     -0.349000
     18 S18        -0.2310    1.6770    2.9560 s         1 1NS      0.580000
     19 N19        -2.1150    4.1750    0.9970 n1        1 1NS     -0.137000
     20 C20        -1.5550    4.1670   -0.2590 c1        1 1NS     -0.013000
     21 N21        -0.4670    3.3360   -0.5370 n1        1 1NS     -0.215000
     22 C22         1.8740    1.0260    0.2510 c3        1 1NS     -0.060000
     23 C23         1.1060   -0.1770   -0.2860 c3        1 1NS     -0.186500
     24 O24         1.4720   -5.7670   -3.2590 o         1 1NS     -0.541400
     25 O25         1.8680   -4.7680   -1.3060 o         1 1NS     -0.541400
     26 H1         -1.1660   -6.3050   -2.0190 h1        1 1NS      0.152667
     27 H2         -0.7490   -5.7150   -0.5960 h1        1 1NS      0.152667
     28 H3          0.0080   -6.9990   -1.1740 h1        1 1NS      0.152667
     29 H4         -0.8310   -3.7110   -3.0490 hn        1 1NS      0.246000
     30 H5          1.6260   -2.5360   -2.3610 h1        1 1NS      0.099000
     31 H6          0.9660   -2.2180   -3.7790 h1        1 1NS      0.099000
     32 H7         -0.6790   -0.9630   -2.8410 hc        1 1NS      0.087000
     33 H8         -0.5060   -1.6480   -1.4120 hc        1 1NS      0.087000
     34 H9          1.8100   -0.2650   -2.1690 hc        1 1NS      0.090000
     35 H10         0.3980    1.1900   -3.1830 hc        1 1NS      0.097000
     36 H11        -0.5470    1.2280   -1.9180 hc        1 1NS      0.097000
     37 H12         0.6610    3.1800   -1.9020 h1        1 1NS      0.102500
     38 H13         2.0230    2.3820   -2.0870 h1        1 1NS      0.102500
     39 H14        -2.8500    3.5350    3.9200 DU        1 1NS      0.194000
     40 H15        -0.3160    0.7400    6.1620 hn        1 1NS      0.228000
     41 H16        -1.0610    1.4940    7.3460 hn        1 1NS      0.228000
     42 H17        -1.9160    4.7410   -0.9530 ha        1 1NS      0.194000
     43 H18         1.8490    1.0060    1.2320 h1        1 1NS      0.102500
     44 H19         2.8060    0.9640   -0.0440 h1        1 1NS      0.102500
     45 H20         0.2270   -0.1990    0.1290 hc        1 1NS      0.097000
     46 H21         1.5910   -0.9960   -0.0460 hc        1 1NS      0.097000
@<TRIPOS>BOND
     1    1    2 1   
     2    1   26 1   
     3    1   27 1   
     4    1   28 1   
     5    2   24 1   
     6    2   25 1   
     7    3    4 1   
     8    3   29 1   
     9    4    5 1   
    10    4   30 1   
    11    4   31 1   
    12    5    6 1   
    13    5   32 1   
    14    5   33 1   
    15    6    7 1   
    16    6   23 1   
    17    6   34 1   
    18    7    8 1   
    19    7   35 1   
    20    7   36 1   
    21    8    9 1   
    22    8   37 1   
    23    8   38 1   
    24    9   10 1   
    25    9   22 1   
    26   10   11 1   
    27   10   21 1   
    28   11   12 1   
    29   13   14 1   
    30   14   18 1   
    31   15   16 1   
    32   15   17 1   
    33   16   40 1   
    34   16   41 1   
    35   19   20 1   
    36   20   42 1   
    37   22   23 1   
    38   22   43 1   
    39   22   44 1   
    40   23   45 1   
    41   23   46 1   
@<TRIPOS>SUBSTRUCTURE
     1 1NS         1 TEMP              0 ****  ****    0 ROOT
