@<TRIPOS>MOLECULE
1NS
   48    50     1     0     0
SMALL
bcc


@<TRIPOS>ATOM
      1 C01         3.7610    0.1090   -1.3770 c3        1 1NS     -0.483300
      2 S02         2.4840   -0.6840   -0.7320 s6        1 1NS      1.425900
      3 N03         2.8690   -0.3370    1.1060 ny        1 1NS     -0.707900
      4 C04         1.9610   -1.1350    1.9670 c3        1 1NS      0.092800
      5 C05         2.1720   -0.9230    3.4620 c3        1 1NS     -0.102400
      6 C06         1.2400   -1.8270    4.2630 c3        1 1NS     -0.062700
      7 C07         1.7830   -2.0680    5.6640 c3        1 1NS     -0.079400
      8 C08         1.6330   -0.8460    6.5660 c3        1 1NS      0.158800
      9 N09         0.2480   -0.3730    6.6310 nh        1 1NS     -0.726300
     10 C10         0.1080    0.7520    7.5270 ca        1 1NS      0.663200
     11 C11        -0.6630    0.5360    8.7250 ca        1 1NS     -0.276700
     12 C12        -0.8040    1.6530    9.6130 ca        1 1NS      0.411100
     13 C13        -1.5960    1.2960   10.7640 cc        1 1NS     -0.068800
     14 C14        -2.0030   -0.0310   10.6940 cd        1 1NS     -0.280600
     15 C15        -2.8070   -0.5910   11.7480 c         1 1NS      0.605300
     16 N16        -3.2040   -2.0540   11.5900 nz        1 1NS     -0.764400
     17 O17        -3.2310   -0.0730   12.7690 o         1 1NS     -0.390100
     18 S18        -1.4510   -0.8150    9.2910 ss        1 1NS      0.165500
     19 N19        -0.2460    2.8750    9.3630 nb        1 1NS     -0.610000
     20 C20         0.4480    2.9540    8.2170 ca        1 1NS      0.663900
     21 N21         0.6540    1.9580    7.2870 nb        1 1NS     -0.691000
     22 C22        -0.3040   -0.0920    5.3030 c3        1 1NS      0.158800
     23 C23        -0.1760   -1.2790    4.3510 c3        1 1NS     -0.079400
     24 O24         1.2840   -0.0290   -0.8710 o         1 1NS     -0.550300
     25 O25         2.5900   -2.0540   -0.7810 o         1 1NS     -0.550300
     26 H1          3.8190    1.2140   -1.1690 h1        1 1NS      0.183367
     27 H2          4.7800   -0.2990   -1.1240 h1        1 1NS      0.183367
     28 H3          3.7550    0.0710   -2.5130 h1        1 1NS      0.183367
     29 H4          3.8320   -0.5700    1.3440 hn        1 1NS      0.448800
     30 H5          0.9020   -0.8530    1.6910 hx        1 1NS      0.115200
     31 H6          2.1270   -2.2250    1.7130 hx        1 1NS      0.115200
     32 H7          3.2360   -1.1630    3.7300 hc        1 1NS      0.067700
     33 H8          1.9850    0.1490    3.7350 hc        1 1NS      0.067700
     34 H9          1.1930   -2.8280    3.7420 hc        1 1NS      0.066700
     35 H10         2.8690   -2.3410    5.6240 hc        1 1NS      0.064200
     36 H11         1.2330   -2.9390    6.1120 hc        1 1NS      0.064200
     37 H12         1.9490   -1.1240    7.6110 h1        1 1NS      0.055200
     38 H13         2.3310   -0.0390    6.1960 h1        1 1NS      0.055200
     39 H14        -1.8310    1.9990   11.5760 ha        1 1NS      0.216000
     40 H15        -2.3690   -2.6440   11.5460 hn        1 1NS      0.472133
     41 H16        -3.7530   -2.1810   10.7350 hn        1 1NS      0.472133
     42 H17         0.9180    3.9360    7.9780 h5        1 1NS      0.090100
     43 H18         0.1860    0.8070    4.8290 h1        1 1NS      0.055200
     44 H19        -1.3970    0.1470    5.4370 h1        1 1NS      0.055200
     45 H20        -0.8540   -2.1060    4.6930 hc        1 1NS      0.064200
     46 H21        -0.5330   -0.9480    3.3410 hc        1 1NS      0.064200
     47 H032        2.7380    0.6500    1.3260 hn        1 1NS      0.448800
     48 H163       -3.7740   -2.3410   12.3980 hn        1 1NS      0.472133
@<TRIPOS>BOND
     1    1    2 1   
     2    1   26 1   
     3    1   27 1   
     4    1   28 1   
     5    2    3 1   
     6    2   24 2   
     7    2   25 2   
     8    3    4 1   
     9    3   29 1   
    10    3   47 1   
    11    4    5 1   
    12    4   30 1   
    13    4   31 1   
    14    5    6 1   
    15    5   32 1   
    16    5   33 1   
    17    6    7 1   
    18    6   23 1   
    19    6   34 1   
    20    7    8 1   
    21    7   35 1   
    22    7   36 1   
    23    8    9 1   
    24    8   37 1   
    25    8   38 1   
    26    9   10 1   
    27    9   22 1   
    28   10   11 ar  
    29   10   21 ar  
    30   11   12 ar  
    31   11   18 1   
    32   12   13 1   
    33   12   19 ar  
    34   13   14 2   
    35   13   39 1   
    36   14   15 1   
    37   14   18 1   
    38   15   16 1   
    39   15   17 2   
    40   16   40 1   
    41   16   41 1   
    42   16   48 1   
    43   19   20 ar  
    44   20   21 ar  
    45   20   42 1   
    46   22   23 1   
    47   22   43 1   
    48   22   44 1   
    49   23   45 1   
    50   23   46 1   
@<TRIPOS>SUBSTRUCTURE
     1 1NS         1 TEMP              0 ****  ****    0 ROOT
