@<TRIPOS>MOLECULE
1NS
   48    50     1     0     0
SMALL
bcc


@<TRIPOS>ATOM
      1 C01         3.7650   -0.0170   -1.3840 c3        1 1NS     -0.483300
      2 S02         2.4060   -0.6740   -0.7550 s6        1 1NS      1.425900
      3 N03         2.8380   -0.4400    1.0900 n4        1 1NS     -0.707900
      4 C04         1.8470   -1.1570    1.9310 c3        1 1NS      0.092800
      5 C05         2.0890   -1.0260    3.4310 c3        1 1NS     -0.102400
      6 C06         1.0620   -1.8430    4.2070 c3        1 1NS     -0.062700
      7 C07         1.5800   -2.1960    5.5940 c3        1 1NS     -0.079400
      8 C08         1.5780   -0.9970    6.5400 c3        1 1NS      0.158800
      9 N09         0.2570   -0.3690    6.6340 nh        1 1NS     -0.726300
     10 C10         0.2540    0.7320    7.5700 ca        1 1NS      0.663200
     11 C11        -0.5310    0.5640    8.7670 ca        1 1NS     -0.276700
     12 C12        -0.5360    1.6570    9.6950 ca        1 1NS      0.411100
     13 C13        -1.3580    1.3530   10.8400 cc        1 1NS     -0.068800
     14 C14        -1.9170    0.0850   10.7270 cd        1 1NS     -0.280600
     15 C15        -2.7750   -0.4150   11.7690 c         1 1NS      0.605300
     16 N16        -3.3410   -1.8150   11.5630 n4        1 1NS     -0.764400
     17 O17        -3.1300    0.1110   12.8120 o         1 1NS     -0.390100
     18 S18        -1.4670   -0.7060    9.2930 ss        1 1NS      0.165500
     19 N19         0.1590    2.8140    9.4820 nb        1 1NS     -0.610000
     20 C20         0.8510    2.8530    8.3330 ca        1 1NS      0.663900
     21 N21         0.9350    1.8740    7.3670 nb        1 1NS     -0.691000
     22 C22        -0.2650    0.0220    5.3220 c3        1 1NS      0.158800
     23 C23        -0.2810   -1.1370    4.3270 c3        1 1NS     -0.079400
     24 O24         1.2920    0.1240   -0.8620 o         1 1NS     -0.550300
     25 O25         2.3470   -2.0440   -0.8530 o         1 1NS     -0.550300
     26 H1          3.9570    1.0650   -1.1390 h1        1 1NS      0.183367
     27 H2          4.7290   -0.5530   -1.1540 h1        1 1NS      0.183367
     28 H3          3.7500   -0.0140   -2.5200 h1        1 1NS      0.183367
     29 H4          3.7670   -0.7920    1.3110 hn        1 1NS      0.448800
     30 H5          0.8270   -0.7440    1.6750 hx        1 1NS      0.115200
     31 H6          1.8830   -2.2500    1.6370 hx        1 1NS      0.115200
     32 H7          3.1190   -1.3970    3.6800 hc        1 1NS      0.067700
     33 H8          2.0300    0.0510    3.7420 hc        1 1NS      0.067700
     34 H9          0.8960   -2.8120    3.6520 hc        1 1NS      0.066700
     35 H10         0.9350   -3.0110    6.0170 hc        1 1NS      0.064200
     36 H11         2.6270   -2.5910    5.5350 hc        1 1NS      0.064200
     37 H12         2.3630   -0.2640    6.1920 h1        1 1NS      0.055200
     38 H13         1.8640   -1.3470    7.5710 h1        1 1NS      0.055200
     39 H14        -1.5060    2.0490   11.6790 ha        1 1NS      0.216000
     40 H15        -2.5800   -2.4970   11.4900 hn        1 1NS      0.472133
     41 H16        -3.9050   -1.8470   10.7090 hn        1 1NS      0.472133
     42 H17         1.4310    3.7820    8.1250 h5        1 1NS      0.090100
     43 H18        -1.3220    0.3810    5.4740 h1        1 1NS      0.055200
     44 H19         0.3250    0.8740    4.8750 h1        1 1NS      0.055200
     45 H20        -0.6010   -0.7310    3.3330 hc        1 1NS      0.064200
     46 H21        -1.0480   -1.8920    4.6470 hc        1 1NS      0.064200
     47 H032        2.8230    0.5470    1.3450 hn        1 1NS      0.448800
     48 H163       -3.9360   -2.0630   12.3660 hn        1 1NS      0.472133
@<TRIPOS>BOND
     1    1    2 1   
     2    1   26 1   
     3    1   27 1   
     4    1   28 1   
     5    2    3 1   
     6    2   24 2   
     7    2   25 2   
     8    3    4 1   
     9    3   29 1   
    10    3   47 1   
    11    4    5 1   
    12    4   30 1   
    13    4   31 1   
    14    5    6 1   
    15    5   32 1   
    16    5   33 1   
    17    6    7 1   
    18    6   23 1   
    19    6   34 1   
    20    7    8 1   
    21    7   35 1   
    22    7   36 1   
    23    8    9 1   
    24    8   37 1   
    25    8   38 1   
    26    9   10 1   
    27    9   22 1   
    28   10   11 ar  
    29   10   21 ar  
    30   11   12 ar  
    31   11   18 1   
    32   12   13 1   
    33   12   19 ar  
    34   13   14 2   
    35   13   39 1   
    36   14   15 1   
    37   14   18 1   
    38   15   16 1   
    39   15   17 2   
    40   16   40 1   
    41   16   41 1   
    42   16   48 1   
    43   19   20 ar  
    44   20   21 ar  
    45   20   42 1   
    46   22   23 1   
    47   22   43 1   
    48   22   44 1   
    49   23   45 1   
    50   23   46 1   
@<TRIPOS>SUBSTRUCTURE
     1 1NS         1 TEMP              0 ****  ****    0 ROOT
