@<TRIPOS>MOLECULE
1NT
   38    37     1     0     0
SMALL
bcc


@<TRIPOS>ATOM
      1 O2P        -1.3600    0.3220    0.3930 o         1 1NT     -0.947167
      2 P           0.1260    0.5300    0.4800 p5        1 1NT      1.405900
      3 O3P         0.5360    1.3960    1.6400 o         1 1NT     -0.947167
      4 O1P         0.9500   -0.7190    0.2960 o         1 1NT     -0.947167
      5 O2          0.6360    1.5000   -0.9240 os        1 1NT     -0.661200
      6 C2          1.3070    1.4740   -2.1130 c3        1 1NT      0.408600
      7 C1          0.4120    1.3230   -3.3880 c         1 1NT      0.884600
      8 O1         -0.5540    2.1160   -3.6080 o         1 1NT     -0.897300
      9 O2'         0.7330    0.4560   -4.2690 o         1 1NT     -0.897300
     10 O3          2.2840    0.4300   -2.0900 oh        1 1NT     -0.714800
     11 CI3         2.1110    2.8170   -2.2850 c3        1 1NT     -0.140400
     12 CA1         3.4650    2.6790   -2.9800 c3        1 1NT      0.146100
     13 OA1         3.3540    2.1530   -4.2940 oh        1 1NT     -0.656800
     14 CA2         4.1930    4.0440   -3.1110 c3        1 1NT      0.106100
     15 OA2         4.2860    4.6940   -1.8440 oh        1 1NT     -0.636800
     16 CA3         5.6250    3.9230   -3.6840 c3        1 1NT      0.117100
     17 OA3         6.5000    3.4270   -2.6770 oh        1 1NT     -0.616800
     18 CA4         6.1630    5.2730   -4.2190 c3        1 1NT      0.092100
     19 OA4         5.4310    5.5870   -5.3950 oh        1 1NT     -0.642800
     20 CA5         7.6930    5.2480   -4.4870 c3        1 1NT      0.187400
     21 OP4         8.0210    6.1810   -5.4460 os        1 1NT     -0.590200
     22 PA          9.5360    7.0050   -5.2820 p5        1 1NT      1.328900
     23 OP3         9.6900    7.2030   -3.7950 o         1 1NT     -0.944167
     24 OP1         9.2930    8.2610   -6.0820 o         1 1NT     -0.944167
     25 OP2        10.5300    6.0530   -5.8990 o         1 1NT     -0.944167
     26 HO3         1.9700   -0.2100   -1.4270 ho        1 1NT      0.445000
     27 HI31        2.2690    3.2430   -1.2630 hc        1 1NT      0.040700
     28 HI32        1.4630    3.5190   -2.8650 hc        1 1NT      0.040700
     29 HA1         4.1240    1.9870   -2.3790 h1        1 1NT      0.036700
     30 HOA1        2.6510    1.4750   -4.2580 ho        1 1NT      0.466000
     31 HA2         3.6000    4.7360   -3.7670 h1        1 1NT      0.074700
     32 HOA2        4.2760    4.0020   -1.1710 ho        1 1NT      0.403000
     33 HA3         5.6310    3.1440   -4.4920 h1        1 1NT      0.089700
     34 HOA3        6.5720    4.1280   -2.0180 ho        1 1NT      0.390000
     35 HA4         5.9330    6.0710   -3.4580 h1        1 1NT      0.022700
     36 HOA4        6.0540    6.0270   -5.9960 ho        1 1NT      0.429000
     37 HA51        8.2420    5.4540   -3.5280 h1        1 1NT      0.007700
     38 HA52        7.9460    4.2050   -4.8430 h1        1 1NT      0.007700
@<TRIPOS>BOND
     1    1    2 1   
     2    2    3 1   
     3    2    4 1   
     4    2    5 1   
     5    5    6 1   
     6    6    7 1   
     7    6   10 1   
     8    6   11 1   
     9    7    8 1   
    10    7    9 1   
    11   10   26 1   
    12   11   12 1   
    13   11   27 1   
    14   11   28 1   
    15   12   13 1   
    16   12   14 1   
    17   12   29 1   
    18   13   30 1   
    19   14   15 1   
    20   14   16 1   
    21   14   31 1   
    22   15   32 1   
    23   16   17 1   
    24   16   18 1   
    25   16   33 1   
    26   17   34 1   
    27   18   19 1   
    28   18   20 1   
    29   18   35 1   
    30   19   36 1   
    31   20   21 1   
    32   20   37 1   
    33   20   38 1   
    34   21   22 1   
    35   22   23 1   
    36   22   24 1   
    37   22   25 1   
@<TRIPOS>SUBSTRUCTURE
     1 1NT         1 TEMP              0 ****  ****    0 ROOT
