@<TRIPOS>MOLECULE
1NT
   38    37     1     0     0
SMALL
bcc


@<TRIPOS>ATOM
      1 O2P         4.9630   -2.5240    2.5870 o         1 1NT     -0.947167
      2 P           3.6010   -2.4840    1.9520 p5        1 1NT      1.405900
      3 O3P         3.5310   -1.5720    0.7570 o         1 1NT     -0.947167
      4 O1P         2.9540   -3.8320    1.7610 o         1 1NT     -0.947167
      5 O2          2.4750   -1.7100    3.0940 os        1 1NT     -0.661200
      6 C2          1.4230   -1.9190    3.9380 c3        1 1NT      0.408600
      7 C1          1.7930   -2.0780    5.4500 c         1 1NT      0.884600
      8 O1          2.4870   -1.2000    6.0510 o         1 1NT     -0.897300
      9 O2'         1.2960   -3.0520    6.1100 o         1 1NT     -0.897300
     10 O3          0.6830   -3.0650    3.5060 oh        1 1NT     -0.714800
     11 CI3         0.4300   -0.7010    3.8440 c3        1 1NT     -0.141400
     12 CA1        -1.0510   -1.0580    3.9680 c3        1 1NT      0.146100
     13 OA1        -1.3600   -1.6820    5.2050 oh        1 1NT     -0.656800
     14 CA2        -1.9610    0.1950    3.8650 c3        1 1NT      0.106100
     15 OA2        -1.6700    0.9390    2.6830 oh        1 1NT     -0.636800
     16 CA3        -3.4710   -0.1430    3.8480 c3        1 1NT      0.117100
     17 OA3        -3.8300   -0.6470    2.5670 oh        1 1NT     -0.616800
     18 CA4        -4.3540    1.0810    4.1900 c3        1 1NT      0.092100
     19 OA4        -4.1620    1.3750    5.5670 oh        1 1NT     -0.642800
     20 CA5        -5.8540    0.8530    3.8580 c3        1 1NT      0.187400
     21 OP4        -6.6430    1.6530    4.6560 os        1 1NT     -0.590200
     22 PA         -8.0910    2.3050    3.9620 p5        1 1NT      1.328900
     23 OP3        -7.7110    2.6130    2.5360 o         1 1NT     -0.944167
     24 OP1        -8.3420    3.5050    4.8410 o         1 1NT     -0.944167
     25 OP2        -9.0970    1.1920    4.1200 o         1 1NT     -0.944167
     26 HO3         1.3070   -3.6020    2.9870 ho        1 1NT      0.445000
     27 HI31        0.7110    0.0180    4.6530 hc        1 1NT      0.040700
     28 HI32        0.6030   -0.2070    2.8560 hc        1 1NT      0.040700
     29 HA1        -1.3340   -1.7670    3.1370 h1        1 1NT      0.036700
     30 HOA1       -0.6050   -2.2670    5.4120 ho        1 1NT      0.466000
     31 HA2        -1.7580    0.8910    4.7230 h1        1 1NT      0.074700
     32 HOA2       -1.3130    0.3160    2.0390 ho        1 1NT      0.403000
     33 HA3        -3.6650   -0.9860    4.5640 h1        1 1NT      0.089700
     34 HOA3       -3.7520    0.0960    1.9570 ho        1 1NT      0.390000
     35 HA4        -3.9750    1.9650    3.6030 h1        1 1NT      0.022700
     36 HOA4       -5.0180    1.6830    5.9030 ho        1 1NT      0.429000
     37 HA51       -6.0700   -0.2390    4.0530 h1        1 1NT      0.007700
     38 HA52       -6.0330    1.0770    2.7710 h1        1 1NT      0.007700
@<TRIPOS>BOND
     1    1    2 1   
     2    2    3 1   
     3    2    4 1   
     4    2    5 1   
     5    5    6 1   
     6    6    7 1   
     7    6   10 1   
     8    6   11 1   
     9    7    8 1   
    10    7    9 1   
    11   10   26 1   
    12   11   12 1   
    13   11   27 1   
    14   11   28 1   
    15   12   13 1   
    16   12   14 1   
    17   12   29 1   
    18   13   30 1   
    19   14   15 1   
    20   14   16 1   
    21   14   31 1   
    22   15   32 1   
    23   16   17 1   
    24   16   18 1   
    25   16   33 1   
    26   17   34 1   
    27   18   19 1   
    28   18   20 1   
    29   18   35 1   
    30   19   36 1   
    31   20   21 1   
    32   20   37 1   
    33   20   38 1   
    34   21   22 1   
    35   22   23 1   
    36   22   24 1   
    37   22   25 1   
@<TRIPOS>SUBSTRUCTURE
     1 1NT         1 TEMP              0 ****  ****    0 ROOT
