@<TRIPOS>MOLECULE
1NT
   38    37     1     0     0
SMALL
bcc


@<TRIPOS>ATOM
      1 O2P        -1.4440    0.3670    0.3080 o         1 1NT     -0.947167
      2 P           0.0450    0.5530    0.4000 p5        1 1NT      1.405900
      3 O3P         0.4650    1.3970    1.5730 o         1 1NT     -0.947167
      4 O1P         0.8520   -0.7050    0.2010 o         1 1NT     -0.947167
      5 O2          0.5710    1.5350   -0.9890 os        1 1NT     -0.661200
      6 C2          1.2450    1.5170   -2.1760 c3        1 1NT      0.408600
      7 C1          0.3510    1.3960   -3.4560 c         1 1NT      0.884600
      8 O1         -0.6040    2.2050   -3.6670 o         1 1NT     -0.897300
      9 O2'         0.6620    0.5370   -4.3480 o         1 1NT     -0.897300
     10 O3          2.2070    0.4580   -2.1660 oh        1 1NT     -0.714800
     11 CI3         2.0680    2.8500   -2.3280 c3        1 1NT     -0.141400
     12 CA1         3.4220    2.7030   -3.0220 c3        1 1NT      0.146100
     13 OA1         3.3060    2.1970   -4.3440 oh        1 1NT     -0.656800
     14 CA2         4.1690    4.0590   -3.1320 c3        1 1NT      0.106100
     15 OA2         4.2690    4.6890   -1.8560 oh        1 1NT     -0.636800
     16 CA3         5.6010    3.9250   -3.7040 c3        1 1NT      0.117100
     17 OA3         6.4660    3.4020   -2.7030 oh        1 1NT     -0.616800
     18 CA4         6.1590    5.2750   -4.2180 c3        1 1NT      0.092100
     19 OA4         5.4340    5.6180   -5.3910 oh        1 1NT     -0.642800
     20 CA5         7.6890    5.2320   -4.4840 c3        1 1NT      0.187400
     21 OP4         8.0320    6.1750   -5.4280 os        1 1NT     -0.590200
     22 PA          9.5590    6.9740   -5.2500 p5        1 1NT      1.328900
     23 OP3         9.7130    7.1470   -3.7600 o         1 1NT     -0.944167
     24 OP1         9.3350    8.2450   -6.0310 o         1 1NT     -0.944167
     25 OP2        10.5400    6.0170   -5.8800 o         1 1NT     -0.944167
     26 HO3         1.8830   -0.1860   -1.5130 ho        1 1NT      0.445000
     27 HI31        1.4310    3.5700   -2.9000 hc        1 1NT      0.040700
     28 HI32        2.2300    3.2590   -1.3000 hc        1 1NT      0.040700
     29 HA1         4.0690    1.9920   -2.4300 h1        1 1NT      0.036700
     30 HOA1        2.5940    1.5290   -4.3180 ho        1 1NT      0.466000
     31 HA2         3.5880    4.7690   -3.7790 h1        1 1NT      0.074700
     32 HOA2        4.2470    3.9870   -1.1930 ho        1 1NT      0.403000
     33 HA3         5.5970    3.1580   -4.5240 h1        1 1NT      0.089700
     34 HOA3        6.5460    4.0930   -2.0330 ho        1 1NT      0.390000
     35 HA4         5.9390    6.0650   -3.4460 h1        1 1NT      0.022700
     36 HOA4        6.0640    6.0570   -5.9840 ho        1 1NT      0.429000
     37 HA51        7.9270    4.1910   -4.8560 h1        1 1NT      0.007700
     38 HA52        8.2390    5.4150   -3.5210 h1        1 1NT      0.007700
@<TRIPOS>BOND
     1    1    2 1   
     2    2    3 1   
     3    2    4 1   
     4    2    5 1   
     5    5    6 1   
     6    6    7 1   
     7    6   10 1   
     8    6   11 1   
     9    7    8 1   
    10    7    9 1   
    11   10   26 1   
    12   11   12 1   
    13   11   27 1   
    14   11   28 1   
    15   12   13 1   
    16   12   14 1   
    17   12   29 1   
    18   13   30 1   
    19   14   15 1   
    20   14   16 1   
    21   14   31 1   
    22   15   32 1   
    23   16   17 1   
    24   16   18 1   
    25   16   33 1   
    26   17   34 1   
    27   18   19 1   
    28   18   20 1   
    29   18   35 1   
    30   19   36 1   
    31   20   21 1   
    32   20   37 1   
    33   20   38 1   
    34   21   22 1   
    35   22   23 1   
    36   22   24 1   
    37   22   25 1   
@<TRIPOS>SUBSTRUCTURE
     1 1NT         1 TEMP              0 ****  ****    0 ROOT
