@<TRIPOS>MOLECULE
1NT
   38    37     1     0     0
SMALL
bcc


@<TRIPOS>ATOM
      1 O2P        -1.4300   -5.7500    1.7250 o         1 1NT     -0.948167
      2 P           0.0610   -5.5230    1.6440 p5        1 1NT      1.402900
      3 O3P         0.6790   -5.7550    3.0020 o         1 1NT     -0.948167
      4 O1P         0.6630   -6.4820    0.6460 o         1 1NT     -0.948167
      5 O2          0.3420   -4.0370    1.1840 os        1 1NT     -0.658200
      6 C2         -0.5830   -3.0400    1.5350 c3        1 1NT      0.404600
      7 C1         -1.1590   -3.3450    2.9000 c         1 1NT      0.883600
      8 O1         -2.4070   -3.3780    3.0640 o         1 1NT     -0.897800
      9 O2'        -0.3900   -3.5660    3.8720 o         1 1NT     -0.897800
     10 O3         -1.6200   -3.0080    0.5850 oh        1 1NT     -0.714800
     11 CI3         0.1110   -1.6970    1.5690 c3        1 1NT     -0.130400
     12 CA1        -0.3670   -0.8530    0.4080 c3        1 1NT      0.146100
     13 OA1        -1.7090   -0.4850    0.6170 oh        1 1NT     -0.663800
     14 CA2         0.4870    0.3900    0.3040 c3        1 1NT      0.142100
     15 OA2         1.8440    0.0220    0.2280 oh        1 1NT     -0.616800
     16 CA3         0.1030    1.1620   -0.9380 c3        1 1NT      0.110100
     17 OA3         0.7860    0.6320   -2.0490 oh        1 1NT     -0.626800
     18 CA4         0.4770    2.6150   -0.7630 c3        1 1NT      0.089100
     19 OA4        -0.3910    3.2140    0.1710 oh        1 1NT     -0.639800
     20 CA5         0.3590    3.3300   -2.0900 c3        1 1NT      0.175400
     21 OP4         0.5580    4.7110   -1.8990 os        1 1NT     -0.582200
     22 PA          0.6050    5.6480   -3.1720 p5        1 1NT      1.326900
     23 OP3         0.4710    7.0890   -2.7410 o         1 1NT     -0.942167
     24 OP1        -0.5310    5.2920   -4.1000 o         1 1NT     -0.942167
     25 OP2         1.9200    5.4570   -3.8890 o         1 1NT     -0.942167
     26 HO3        -1.6740   -3.7970    0.1780 ho        1 1NT      0.444000
     27 HI31       -0.0980   -1.2430    2.4090 hc        1 1NT      0.041200
     28 HI32        1.0780   -1.8280    1.5000 hc        1 1NT      0.041200
     29 HA1        -0.2950   -1.3680   -0.4200 h1        1 1NT      0.035700
     30 HOA1       -1.7750   -0.0210    1.3730 ho        1 1NT      0.466000
     31 HA2         0.3440    0.9490    1.0930 h1        1 1NT      0.080700
     32 HOA2        2.2940    0.4120    0.8890 ho        1 1NT      0.400000
     33 HA3        -0.8610    1.0880   -1.0820 h1        1 1NT      0.054700
     34 HOA3        0.2000    0.4090   -2.6790 ho        1 1NT      0.393000
     35 HA4         1.3970    2.6790   -0.4390 h1        1 1NT      0.033700
     36 HOA4        0.0100    3.9170    0.5390 ho        1 1NT      0.428000
     37 HA51        1.0360    2.9840   -2.7080 h1        1 1NT      0.001200
     38 HA52       -0.5330    3.1770   -2.4650 h1        1 1NT      0.001200
@<TRIPOS>BOND
     1    1    2 1   
     2    2    3 1   
     3    2    4 1   
     4    2    5 1   
     5    5    6 1   
     6    6    7 1   
     7    6   10 1   
     8    6   11 1   
     9    7    8 1   
    10    7    9 1   
    11   10   26 1   
    12   11   12 1   
    13   11   27 1   
    14   11   28 1   
    15   12   13 1   
    16   12   14 1   
    17   12   29 1   
    18   13   30 1   
    19   14   15 1   
    20   14   16 1   
    21   14   31 1   
    22   15   32 1   
    23   16   17 1   
    24   16   18 1   
    25   16   33 1   
    26   17   34 1   
    27   18   19 1   
    28   18   20 1   
    29   18   35 1   
    30   19   36 1   
    31   20   21 1   
    32   20   37 1   
    33   20   38 1   
    34   21   22 1   
    35   22   23 1   
    36   22   24 1   
    37   22   25 1   
@<TRIPOS>SUBSTRUCTURE
     1 1NT         1 TEMP              0 ****  ****    0 ROOT
