@<TRIPOS>MOLECULE
1NU
   44    47     1     0     0
SMALL
bcc


@<TRIPOS>ATOM
      1 C1          5.0120   -0.0950   -0.2300 ca        1 1NU      0.192900
      2 C2          5.6940   -1.2040   -0.7530 ca        1 1NU     -0.219500
      3 C3          5.5720   -2.4460   -0.1080 ca        1 1NU      0.193900
      4 C4          4.7890   -2.5800    1.0490 ca        1 1NU     -0.219500
      5 C5          4.1110   -1.4580    1.5510 ca        1 1NU      0.192900
      6 C6          4.1960   -0.2010    0.9170 ca        1 1NU     -0.210300
      7 C7          3.4890    1.0020    1.4750 c3        1 1NU      0.272100
      8 N8          1.9740    3.3570   -0.9470 nc        1 1NU     -0.670100
      9 C9          2.7810    2.6960   -0.1690 cd        1 1NU      0.676100
     10 N10         2.4750    1.5820    0.6250 na        1 1NU     -0.641000
     11 C11         1.1580    1.0920    0.5820 ca        1 1NU      0.178600
     12 C12         0.2070    1.7630   -0.2380 ca        1 1NU     -0.206600
     13 C13        -1.1190    1.3260   -0.2880 ca        1 1NU     -0.064000
     14 C14        -1.5020    0.2120    0.4570 ca        1 1NU      0.048100
     15 C15        -0.5770   -0.4750    1.2600 ca        1 1NU     -0.068000
     16 C16         0.7370   -0.0360    1.3250 ca        1 1NU     -0.178000
     17 C17         0.6200    2.9420   -1.0480 c         1 1NU      0.700100
     18 O18        -0.1770    3.5410   -1.7860 o         1 1NU     -0.524100
     19 F19        -6.9330   -0.7190    0.8150 f         1 1NU     -0.235300
     20 O20        -2.8320   -0.1940    0.5580 os        1 1NU     -0.235200
     21 C21        -3.4890   -0.5140   -0.6190 ca        1 1NU      0.167100
     22 C22        -2.8500   -0.6960   -1.8530 ca        1 1NU     -0.196000
     23 C23        -3.6060   -1.0510   -2.9670 ca        1 1NU     -0.066000
     24 C24        -4.9860   -1.2280   -2.8600 ca        1 1NU     -0.164000
     25 C25        -5.6190   -1.0520   -1.6310 ca        1 1NU     -0.055000
     26 C26        -4.8810   -0.6930   -0.5010 ca        1 1NU     -0.196300
     27 C27        -5.5740   -0.5040    0.8410 c3        1 1NU      0.702200
     28 F28         6.2220   -3.5220   -0.6040 f         1 1NU     -0.118900
     29 F29        -5.4520    0.7560    1.3730 f         1 1NU     -0.235300
     30 F30        -5.1300   -1.3410    1.8340 f         1 1NU     -0.235300
     31 F31         5.1590    1.1040   -0.8410 f         1 1NU     -0.126900
     32 F32         3.3720   -1.6010    2.6770 f         1 1NU     -0.126900
     33 H1          6.3170   -1.1000   -1.6540 ha        1 1NU      0.177500
     34 H2          4.7060   -3.5520    1.5580 ha        1 1NU      0.177500
     35 H3          3.0180    0.7340    2.4660 h1        1 1NU      0.081200
     36 H4          4.2720    1.7950    1.6720 h1        1 1NU      0.081200
     37 H5          3.8420    3.0350   -0.1180 h5        1 1NU      0.061800
     38 H6         -1.8440    1.8700   -0.9170 ha        1 1NU      0.180000
     39 H7         -0.9070   -1.3480    1.8450 ha        1 1NU      0.161000
     40 H8          1.4460   -0.5880    1.9610 ha        1 1NU      0.150000
     41 H9         -1.7630   -0.5560   -1.9370 ha        1 1NU      0.155000
     42 H10        -3.1070   -1.1910   -3.9390 ha        1 1NU      0.143000
     43 H11        -5.5770   -1.5070   -3.7440 ha        1 1NU      0.145000
     44 H12        -6.7090   -1.1930   -1.5430 ha        1 1NU      0.156000
@<TRIPOS>BOND
     1    1    2 ar  
     2    1    6 ar  
     3    1   31 1   
     4    2    3 ar  
     5    2   33 1   
     6    3    4 ar  
     7    3   28 1   
     8    4    5 ar  
     9    4   34 1   
    10    5    6 ar  
    11    5   32 1   
    12    6    7 1   
    13    7   10 1   
    14    7   35 1   
    15    7   36 1   
    16    8    9 2   
    17    8   17 1   
    18    9   10 1   
    19    9   37 1   
    20   10   11 1   
    21   11   12 ar  
    22   11   16 ar  
    23   12   13 ar  
    24   12   17 1   
    25   13   14 ar  
    26   13   38 1   
    27   14   15 ar  
    28   14   20 1   
    29   15   16 ar  
    30   15   39 1   
    31   16   40 1   
    32   17   18 2   
    33   19   27 1   
    34   20   21 1   
    35   21   22 ar  
    36   21   26 ar  
    37   22   23 ar  
    38   22   41 1   
    39   23   24 ar  
    40   23   42 1   
    41   24   25 ar  
    42   24   43 1   
    43   25   26 ar  
    44   25   44 1   
    45   26   27 1   
    46   27   29 1   
    47   27   30 1   
@<TRIPOS>SUBSTRUCTURE
     1 1NU         1 TEMP              0 ****  ****    0 ROOT
