@<TRIPOS>MOLECULE
1NU
   44    35     1     0     0
SMALL
bcc


@<TRIPOS>ATOM
      1 C1          4.6560   -1.0530   -2.8870 c1        1 1NU      0.163000
      2 C2          6.0420   -1.0210   -2.8870 c1        1 1NU     -0.225000
      3 C3          6.7350   -0.9970   -1.6870 c1        1 1NU      0.166000
      4 C4          6.0420   -1.0060   -0.4870 c2        1 1NU     -0.225000
      5 C5          4.6560   -1.0380   -0.4870 c1        1 1NU      0.165000
      6 C6          3.9630   -1.0620   -1.6870 c1        1 1NU     -0.215000
      7 C7          2.4580   -1.2050   -1.6860 c3        1 1NU      0.028000
      8 N8          1.9900    2.5320   -1.2940 n1        1 1NU     -0.247000
      9 C9          2.6090    1.2710   -1.5530 c1        1 1NU      0.109000
     10 N10         1.8640    0.0460   -1.3610 n2        1 1NU     -0.246000
     11 C11         0.4800    0.0970   -0.9030 c1        1 1NU      0.102000
     12 C12        -0.1160    1.3080   -0.6530 c1        1 1NU     -0.191000
     13 C13        -1.4360    1.3550   -0.1730 c1        1 1NU     -0.047000
     14 C14        -2.1370    0.1770    0.0490 c1        1 1NU     -0.005000
     15 C15        -1.5340   -1.0480   -0.2030 c1        1 1NU     -0.067000
     16 C16        -0.2310   -1.0960   -0.6770 c1        1 1NU     -0.182000
     17 C17         0.6600    2.5840   -0.8530 c1        1 1NU      0.302000
     18 O18         0.1200    3.6580   -0.6750 o         1 1NU     -0.290000
     19 F19        -4.1600   -2.2260    1.0990 f         1 1NU     -0.165333
     20 O20        -3.4910   -0.1730    0.2030 o         1 1NU     -0.156000
     21 C21        -4.0060    0.4410    1.3610 c2        1 1NU      0.110000
     22 C22        -3.8040    1.7950    1.5750 c2        1 1NU     -0.174000
     23 C23        -4.3560    2.4100    2.6880 c1        1 1NU     -0.076000
     24 C24        -5.1110    1.6720    3.5850 c1        1 1NU     -0.109500
     25 C25        -5.3140    0.3190    3.3710 c1        1 1NU     -0.109500
     26 C26        -4.7620   -0.2980    2.2590 c1        1 1NU     -0.181000
     27 C27        -5.0480   -1.7560    1.9850 c2        1 1NU      0.481000
     28 F28         8.0740   -1.0160   -1.6870 f         1 1NU     -0.082000
     29 F29        -4.9520   -2.4520    3.1240 f         1 1NU     -0.165333
     30 F30        -6.2840   -1.8830    1.4870 f         1 1NU     -0.165333
     31 F31         3.9880   -1.1050   -4.0470 f         1 1NU     -0.082000
     32 F32         3.9870   -1.0660    0.6730 f         1 1NU     -0.083000
     33 H1          6.5300   -1.0150   -3.7330 ha        1 1NU      0.179000
     34 H2          6.5290   -0.9890    0.3580 ha        1 1NU      0.179000
     35 H3          2.1940   -1.8740   -1.0210 h1        1 1NU      0.113500
     36 H4          2.1570   -1.4890   -2.5740 h1        1 1NU      0.113500
     37 H5          3.5350    1.2360   -1.8600 ha        1 1NU      0.187000
     38 H6         -1.8600    2.2160    0.0050 ha        1 1NU      0.178000
     39 H7         -2.0270   -1.8750   -0.0470 ha        1 1NU      0.164000
     40 H8          0.1930   -1.9560   -0.8550 ha        1 1NU      0.144000
     41 H9         -3.2730    2.3140    0.9440 ha        1 1NU      0.157000
     42 H10        -4.2130    3.3640    2.8380 ha        1 1NU      0.144000
     43 H11        -5.5000    2.1060    4.3680 ha        1 1NU      0.150500
     44 H12        -5.8460   -0.2010    4.0030 ha        1 1NU      0.150500
@<TRIPOS>BOND
     1    1    6 1   
     2    1   31 1   
     3    2    3 1   
     4    2   33 1   
     5    3    4 1   
     6    4    5 1   
     7    4   34 1   
     8    5   32 1   
     9    6    7 1   
    10    7   10 1   
    11    7   35 1   
    12    7   36 1   
    13    8    9 1   
    14    9   37 1   
    15   10   11 1   
    16   11   16 1   
    17   12   13 1   
    18   12   17 1   
    19   13   38 1   
    20   14   15 1   
    21   15   39 1   
    22   16   40 1   
    23   17   18 1   
    24   19   27 1   
    25   20   21 1   
    26   21   22 1   
    27   21   26 1   
    28   22   23 1   
    29   22   41 1   
    30   23   42 1   
    31   24   25 1   
    32   24   43 1   
    33   25   44 1   
    34   27   29 1   
    35   27   30 1   
@<TRIPOS>SUBSTRUCTURE
     1 1NU         1 TEMP              0 ****  ****    0 ROOT
