@<TRIPOS>MOLECULE
1NU
   44    47     1     0     0
SMALL
bcc


@<TRIPOS>ATOM
      1 C1          0.1060   -0.2690    0.0440 ca        1 1NU      0.192900
      2 C2          1.4970   -0.0890    0.0920 ca        1 1NU     -0.219500
      3 C3          2.0610    0.5750    1.1940 ca        1 1NU      0.193900
      4 C4          1.2500    1.0620    2.2310 ca        1 1NU     -0.219500
      5 C5         -0.1390    0.8660    2.1640 ca        1 1NU      0.192900
      6 C6         -0.7360    0.1860    1.0810 ca        1 1NU     -0.210300
      7 C7         -2.2250    0.0040    1.0040 c3        1 1NU      0.272100
      8 N8         -3.4730   -3.2220   -0.3190 nc        1 1NU     -0.670100
      9 C9         -3.0040   -2.0160   -0.1730 cd        1 1NU      0.676100
     10 N10        -2.6890   -1.3650    1.0270 na        1 1NU     -0.641000
     11 C11        -2.8770   -2.0760    2.2250 ca        1 1NU      0.178600
     12 C12        -3.3970   -3.4000    2.1570 ca        1 1NU     -0.206600
     13 C13        -3.6260   -4.1310    3.3250 ca        1 1NU     -0.064000
     14 C14        -3.3210   -3.5630    4.5610 ca        1 1NU      0.048100
     15 C15        -2.7930   -2.2650    4.6500 ca        1 1NU     -0.068000
     16 C16        -2.5790   -1.5290    3.4950 ca        1 1NU     -0.178000
     17 C17        -3.7060   -4.0150    0.8370 c         1 1NU      0.700100
     18 O18        -4.1430   -5.1710    0.7380 o         1 1NU     -0.524100
     19 F19        -5.1810   -6.2670    9.0020 f         1 1NU     -0.235300
     20 O20        -3.6500   -4.1830    5.7660 os        1 1NU     -0.235200
     21 C21        -3.1200   -5.4420    5.9970 ca        1 1NU      0.167100
     22 C22        -2.0960   -6.0180    5.2320 ca        1 1NU     -0.196000
     23 C23        -1.6140   -7.2770    5.5750 ca        1 1NU     -0.066000
     24 C24        -2.1390   -7.9620    6.6730 ca        1 1NU     -0.164000
     25 C25        -3.1520   -7.3860    7.4350 ca        1 1NU     -0.055000
     26 C26        -3.6540   -6.1250    7.1070 ca        1 1NU     -0.196300
     27 C27        -4.7590   -5.4960    7.9430 c3        1 1NU      0.702200
     28 F28         3.3990    0.7520    1.2530 f         1 1NU     -0.118900
     29 F29        -5.9150   -5.2280    7.2520 f         1 1NU     -0.235300
     30 F30        -4.4220   -4.2990    8.5250 f         1 1NU     -0.235300
     31 F31        -0.4320   -0.8830   -1.0360 f         1 1NU     -0.126900
     32 F32        -0.9080    1.3560    3.1650 f         1 1NU     -0.126900
     33 H1          2.1340   -0.4610   -0.7240 ha        1 1NU      0.177500
     34 H2          1.6940    1.5920    3.0860 ha        1 1NU      0.177500
     35 H3         -2.7170    0.5650    1.8520 h1        1 1NU      0.081200
     36 H4         -2.5750    0.4730    0.0360 h1        1 1NU      0.081200
     37 H5         -2.8180   -1.4200   -1.0970 h5        1 1NU      0.061800
     38 H6         -4.0440   -5.1500    3.2520 ha        1 1NU      0.180000
     39 H7         -2.5680   -1.8360    5.6390 ha        1 1NU      0.161000
     40 H8         -2.1640   -0.5130    3.5860 ha        1 1NU      0.150000
     41 H9         -1.6830   -5.4770    4.3680 ha        1 1NU      0.155000
     42 H10        -0.8120   -7.7340    4.9740 ha        1 1NU      0.143000
     43 H11        -1.7540   -8.9580    6.9370 ha        1 1NU      0.145000
     44 H12        -3.5680   -7.9240    8.3030 ha        1 1NU      0.156000
@<TRIPOS>BOND
     1    1    2 ar  
     2    1    6 ar  
     3    1   31 1   
     4    2    3 ar  
     5    2   33 1   
     6    3    4 ar  
     7    3   28 1   
     8    4    5 ar  
     9    4   34 1   
    10    5    6 ar  
    11    5   32 1   
    12    6    7 1   
    13    7   10 1   
    14    7   35 1   
    15    7   36 1   
    16    8    9 2   
    17    8   17 1   
    18    9   10 1   
    19    9   37 1   
    20   10   11 1   
    21   11   12 ar  
    22   11   16 ar  
    23   12   13 ar  
    24   12   17 1   
    25   13   14 ar  
    26   13   38 1   
    27   14   15 ar  
    28   14   20 1   
    29   15   16 ar  
    30   15   39 1   
    31   16   40 1   
    32   17   18 2   
    33   19   27 1   
    34   20   21 1   
    35   21   22 ar  
    36   21   26 ar  
    37   22   23 ar  
    38   22   41 1   
    39   23   24 ar  
    40   23   42 1   
    41   24   25 ar  
    42   24   43 1   
    43   25   26 ar  
    44   25   44 1   
    45   26   27 1   
    46   27   29 1   
    47   27   30 1   
@<TRIPOS>SUBSTRUCTURE
     1 1NU         1 TEMP              0 ****  ****    0 ROOT
