@<TRIPOS>MOLECULE
1NU
   44    47     1     0     0
SMALL
bcc


@<TRIPOS>ATOM
      1 C1          0.0930   -0.2560    0.0490 ca        1 1NU      0.192900
      2 C2          1.4820   -0.0660    0.1010 ca        1 1NU     -0.219500
      3 C3          2.0380    0.6010    1.2050 ca        1 1NU      0.193900
      4 C4          1.2210    1.0830    2.2400 ca        1 1NU     -0.219500
      5 C5         -0.1660    0.8770    2.1690 ca        1 1NU      0.192900
      6 C6         -0.7550    0.1940    1.0840 ca        1 1NU     -0.210300
      7 C7         -2.2430    0.0020    1.0020 c3        1 1NU      0.272100
      8 N8         -3.4650   -3.2320   -0.3250 nc        1 1NU     -0.670100
      9 C9         -3.0050   -2.0230   -0.1780 cd        1 1NU      0.676100
     10 N10        -2.6980   -1.3700    1.0230 na        1 1NU     -0.641000
     11 C11        -2.8850   -2.0830    2.2200 ca        1 1NU      0.178600
     12 C12        -3.3950   -3.4100    2.1500 ca        1 1NU     -0.206600
     13 C13        -3.6220   -4.1430    3.3180 ca        1 1NU     -0.064000
     14 C14        -3.3250   -3.5740    4.5540 ca        1 1NU      0.048100
     15 C15        -2.8060   -2.2720    4.6450 ca        1 1NU     -0.068000
     16 C16        -2.5940   -1.5340    3.4910 ca        1 1NU     -0.178000
     17 C17        -3.6960   -4.0270    0.8290 c         1 1NU      0.700100
     18 O18        -4.1250   -5.1860    0.7290 o         1 1NU     -0.524100
     19 F19        -5.1600   -6.2860    9.0020 f         1 1NU     -0.235300
     20 O20        -3.6540   -4.1960    5.7590 os        1 1NU     -0.235200
     21 C21        -3.1080   -5.4480    5.9940 ca        1 1NU      0.167100
     22 C22        -2.0780   -6.0150    5.2320 ca        1 1NU     -0.196000
     23 C23        -1.5810   -7.2680    5.5790 ca        1 1NU     -0.066000
     24 C24        -2.0990   -7.9550    6.6780 ca        1 1NU     -0.164000
     25 C25        -3.1190   -7.3880    7.4380 ca        1 1NU     -0.055000
     26 C26        -3.6350   -6.1330    7.1060 ca        1 1NU     -0.196300
     27 C27        -4.7480   -5.5140    7.9400 c3        1 1NU      0.702200
     28 F28         3.3750    0.7870    1.2690 f         1 1NU     -0.118900
     29 F29        -5.9070   -5.2630    7.2480 f         1 1NU     -0.235300
     30 F30        -4.4250   -4.3110    8.5170 f         1 1NU     -0.235300
     31 F31        -0.4370   -0.8730   -1.0320 f         1 1NU     -0.126900
     32 F32        -0.9410    1.3620    3.1670 f         1 1NU     -0.126900
     33 H1          2.1240   -0.4330   -0.7130 ha        1 1NU      0.177500
     34 H2          1.6600    1.6160    3.0960 ha        1 1NU      0.177500
     35 H3         -2.7410    0.5590    1.8490 h1        1 1NU      0.081200
     36 H4         -2.5930    0.4690    0.0330 h1        1 1NU      0.081200
     37 H5         -2.8200   -1.4260   -1.1010 h5        1 1NU      0.061800
     38 H6         -4.0330   -5.1650    3.2430 ha        1 1NU      0.180000
     39 H7         -2.5870   -1.8420    5.6350 ha        1 1NU      0.161000
     40 H8         -2.1870   -0.5150    3.5840 ha        1 1NU      0.150000
     41 H9         -1.6710   -5.4730    4.3650 ha        1 1NU      0.155000
     42 H10        -0.7740   -7.7170    4.9800 ha        1 1NU      0.143000
     43 H11        -1.7030   -8.9450    6.9470 ha        1 1NU      0.145000
     44 H12        -3.5290   -7.9280    8.3080 ha        1 1NU      0.156000
@<TRIPOS>BOND
     1    1    2 ar  
     2    1    6 ar  
     3    1   31 1   
     4    2    3 ar  
     5    2   33 1   
     6    3    4 ar  
     7    3   28 1   
     8    4    5 ar  
     9    4   34 1   
    10    5    6 ar  
    11    5   32 1   
    12    6    7 1   
    13    7   10 1   
    14    7   35 1   
    15    7   36 1   
    16    8    9 2   
    17    8   17 1   
    18    9   10 1   
    19    9   37 1   
    20   10   11 1   
    21   11   12 ar  
    22   11   16 ar  
    23   12   13 ar  
    24   12   17 1   
    25   13   14 ar  
    26   13   38 1   
    27   14   15 ar  
    28   14   20 1   
    29   15   16 ar  
    30   15   39 1   
    31   16   40 1   
    32   17   18 2   
    33   19   27 1   
    34   20   21 1   
    35   21   22 ar  
    36   21   26 ar  
    37   22   23 ar  
    38   22   41 1   
    39   23   24 ar  
    40   23   42 1   
    41   24   25 ar  
    42   24   43 1   
    43   25   26 ar  
    44   25   44 1   
    45   26   27 1   
    46   27   29 1   
    47   27   30 1   
@<TRIPOS>SUBSTRUCTURE
     1 1NU         1 TEMP              0 ****  ****    0 ROOT
