@<TRIPOS>MOLECULE
1NV
   49    52     1     0     0
SMALL
bcc


@<TRIPOS>ATOM
      1 C1         -0.0650   -0.1220   -0.1020 ca        1 1NV      0.192400
      2 C2          1.3230    0.0360   -0.2270 ca        1 1NV     -0.217500
      3 C3          2.0490    0.5730    0.8490 ca        1 1NV      0.201900
      4 C4          1.3990    0.9550    2.0340 ca        1 1NV     -0.217500
      5 C5          0.0100    0.7810    2.1390 ca        1 1NV      0.192400
      6 C6         -0.7470    0.2310    1.0840 ca        1 1NV     -0.220300
      7 C7         -2.2380    0.0940    1.1830 c3        1 1NV      0.268100
      8 N8         -3.7280   -2.9960   -0.2220 nc        1 1NV     -0.653100
      9 C9         -3.2080   -1.8160   -0.0420 cd        1 1NV      0.680100
     10 N10        -2.7440   -1.2640    1.1640 na        1 1NV     -0.636000
     11 C11        -2.8390   -2.0500    2.3180 ca        1 1NV      0.207600
     12 C12        -3.4150   -3.3490    2.2130 ca        1 1NV     -0.216600
     13 C13        -3.5720   -4.1500    3.3450 ca        1 1NV     -0.053000
     14 C14        -3.1250   -3.6820    4.5770 ca        1 1NV     -0.004900
     15 C15        -2.5320   -2.4160    4.7090 ca        1 1NV     -0.056000
     16 C16        -2.3960   -1.6090    3.5920 ca        1 1NV     -0.176000
     17 C17        -3.8630   -3.8660    0.8880 c         1 1NV      0.702100
     18 O18        -4.3250   -5.0100    0.7660 o         1 1NV     -0.519100
     19 F19        -3.9380   -5.3400    9.0630 f         1 1NV     -0.226967
     20 O20        -3.3920   -4.3840    5.7640 os        1 1NV     -0.218200
     21 C21        -2.8470   -5.6400    5.8850 ca        1 1NV      0.199100
     22 C22        -1.8660   -6.1570    5.0090 ca        1 1NV     -0.129000
     23 C23        -1.3650   -7.4280    5.2160 ca        1 1NV     -0.062000
     24 C24        -1.8160   -8.2010    6.2970 ca        1 1NV     -0.086000
     25 C25        -2.7710   -7.6850    7.1770 ca        1 1NV     -0.130600
     26 C26        -3.3160   -6.4010    6.9720 ca        1 1NV     -0.196300
     27 C27        -4.4140   -5.8160    7.8560 c3        1 1NV      0.693200
     28 F28         3.3860    0.7280    0.7420 f         1 1NV     -0.111900
     29 F29        -5.3620   -6.7370    8.2550 f         1 1NV     -0.226967
     30 F30        -5.1340   -4.7900    7.3280 f         1 1NV     -0.226967
     31 F31        -0.7620   -0.6150   -1.1520 f         1 1NV     -0.128900
     32 F32        -0.6040    1.1650    3.2850 f         1 1NV     -0.128900
     33 C33        -3.1710   -8.5950    8.2610 c         1 1NV      0.573700
     34 O34        -3.4100   -9.7900    8.2070 o         1 1NV     -0.384100
     35 N35        -3.2220   -8.0060    9.6590 n4        1 1NV     -0.767400
     36 H1          1.8340   -0.2490   -1.1600 ha        1 1NV      0.182000
     37 H2          1.9690    1.3910    2.8680 ha        1 1NV      0.182000
     38 H3         -2.6020    0.6010    2.1240 h1        1 1NV      0.086700
     39 H4         -2.6920    0.6420    0.3030 h1        1 1NV      0.086700
     40 H5         -3.1030   -1.1550   -0.9360 h5        1 1NV      0.075800
     41 H6         -4.0500   -5.1390    3.2390 ha        1 1NV      0.176000
     42 H7         -2.1990   -2.0640    5.6980 ha        1 1NV      0.160000
     43 H8         -1.9320   -0.6160    3.7120 ha        1 1NV      0.164000
     44 H9         -1.5200   -5.5420    4.1600 ha        1 1NV      0.189000
     45 H10        -0.6100   -7.8480    4.5290 ha        1 1NV      0.181000
     46 H11        -1.4200   -9.2210    6.4400 ha        1 1NV      0.173000
     47 H12        -3.0020   -8.7250   10.3560 hn        1 1NV      0.475467
     48 H13        -4.1740   -7.6510    9.8400 hn        1 1NV      0.475467
     49 H353       -2.5670   -7.2210    9.7420 hn        1 1NV      0.475467
@<TRIPOS>BOND
     1    1    2 ar  
     2    1    6 ar  
     3    1   31 1   
     4    2    3 ar  
     5    2   36 1   
     6    3    4 ar  
     7    3   28 1   
     8    4    5 ar  
     9    4   37 1   
    10    5    6 ar  
    11    5   32 1   
    12    6    7 1   
    13    7   10 1   
    14    7   38 1   
    15    7   39 1   
    16    8    9 2   
    17    8   17 1   
    18    9   10 1   
    19    9   40 1   
    20   10   11 1   
    21   11   12 ar  
    22   11   16 ar  
    23   12   13 ar  
    24   12   17 1   
    25   13   14 ar  
    26   13   41 1   
    27   14   15 ar  
    28   14   20 1   
    29   15   16 ar  
    30   15   42 1   
    31   16   43 1   
    32   17   18 2   
    33   19   27 1   
    34   20   21 1   
    35   21   22 ar  
    36   21   26 ar  
    37   22   23 ar  
    38   22   44 1   
    39   23   24 ar  
    40   23   45 1   
    41   24   25 ar  
    42   24   46 1   
    43   25   26 ar  
    44   25   33 1   
    45   26   27 1   
    46   27   29 1   
    47   27   30 1   
    48   33   34 2   
    49   33   35 1   
    50   35   47 1   
    51   35   48 1   
    52   35   49 1   
@<TRIPOS>SUBSTRUCTURE
     1 1NV         1 TEMP              0 ****  ****    0 ROOT
