@<TRIPOS>MOLECULE
1NV
   48    51     1     0     0
SMALL
bcc


@<TRIPOS>ATOM
      1 C1          5.6250    0.3110    0.3110 ca        1 1NV      0.192900
      2 C2          6.2130    1.4850    0.8070 ca        1 1NV     -0.219000
      3 C3          6.0110    2.6920    0.1180 ca        1 1NV      0.194900
      4 C4          5.2430    2.7290   -1.0570 ca        1 1NV     -0.219000
      5 C5          4.6600    1.5430   -1.5310 ca        1 1NV      0.192900
      6 C6          4.8260    0.3170   -0.8520 ca        1 1NV     -0.211300
      7 C7          4.2230   -0.9530   -1.3810 c3        1 1NV      0.272100
      8 N8          2.8370   -3.3330    1.0930 nc        1 1NV     -0.668100
      9 C9          3.6080   -2.6390    0.3070 cd        1 1NV      0.676100
     10 N10         3.2360   -1.5790   -0.5300 na        1 1NV     -0.641000
     11 C11         1.8860   -1.1900   -0.5300 ca        1 1NV      0.183600
     12 C12         0.9710   -1.9030    0.2940 ca        1 1NV     -0.208600
     13 C13        -0.3850   -1.5670    0.3020 ca        1 1NV     -0.057000
     14 C14        -0.8340   -0.5120   -0.4890 ca        1 1NV      0.040100
     15 C15         0.0530    0.2150   -1.2990 ca        1 1NV     -0.066000
     16 C16         1.3970   -0.1230   -1.3220 ca        1 1NV     -0.181000
     17 C17         1.4530   -3.0190    1.1530 c         1 1NV      0.700100
     18 O18         0.6880   -3.6510    1.8970 o         1 1NV     -0.521100
     19 F19        -5.1400    1.0860   -1.8090 f         1 1NV     -0.231633
     20 O20        -2.1940   -0.2270   -0.6310 os        1 1NV     -0.232200
     21 C21        -2.8650    0.2220    0.4960 ca        1 1NV      0.161100
     22 C22        -2.2300    0.5360    1.7050 ca        1 1NV     -0.183000
     23 C23        -2.9900    1.0010    2.7730 ca        1 1NV     -0.070000
     24 C24        -4.3670    1.1670    2.6360 ca        1 1NV     -0.123000
     25 C25        -5.0000    0.8690    1.4250 ca        1 1NV     -0.057600
     26 C26        -4.2590    0.3760    0.3430 ca        1 1NV     -0.176300
     27 C27        -4.9060    0.0040   -0.9880 c3        1 1NV      0.697200
     28 F28         6.5700    3.8290    0.5870 f         1 1NV     -0.117900
     29 F29        -6.1350   -0.6030   -0.8860 f         1 1NV     -0.231633
     30 F30        -4.1850   -0.8580   -1.7710 f         1 1NV     -0.231633
     31 F31         5.8480   -0.8530    0.9660 f         1 1NV     -0.127400
     32 F32         3.9340    1.5930   -2.6730 f         1 1NV     -0.127400
     33 C33        -6.4820    1.0910    1.3850 c         1 1NV      0.660700
     34 O34        -7.2270    0.6130    2.2630 o         1 1NV     -0.588100
     35 N35        -6.9840    1.9120    0.4060 n         1 1NV     -0.658000
     36 H1          6.8240    1.4570    1.7210 ha        1 1NV      0.177500
     37 H2          5.0990    3.6740   -1.6000 ha        1 1NV      0.177500
     38 H3          3.7550   -0.7540   -2.3900 h1        1 1NV      0.081200
     39 H4          5.0660   -1.6920   -1.5360 h1        1 1NV      0.081200
     40 H5          4.6930   -2.8980    0.2890 h5        1 1NV      0.062800
     41 H6         -1.0810   -2.1440    0.9360 ha        1 1NV      0.181000
     42 H7         -0.3280    1.0390   -1.9230 ha        1 1NV      0.159000
     43 H8          2.0770    0.4590   -1.9630 ha        1 1NV      0.151000
     44 H9         -1.1420    0.4070    1.8060 ha        1 1NV      0.159000
     45 H10        -2.5000    1.2370    3.7310 ha        1 1NV      0.150000
     46 H11        -4.9750    1.5210    3.4850 ha        1 1NV      0.165000
     47 H12        -6.4240    2.1860   -0.3620 hn        1 1NV      0.317500
     48 H13        -7.9670    2.0130    0.3310 hn        1 1NV      0.317500
@<TRIPOS>BOND
     1    1    2 ar  
     2    1    6 ar  
     3    1   31 1   
     4    2    3 ar  
     5    2   36 1   
     6    3    4 ar  
     7    3   28 1   
     8    4    5 ar  
     9    4   37 1   
    10    5    6 ar  
    11    5   32 1   
    12    6    7 1   
    13    7   10 1   
    14    7   38 1   
    15    7   39 1   
    16    8    9 2   
    17    8   17 1   
    18    9   10 1   
    19    9   40 1   
    20   10   11 1   
    21   11   12 ar  
    22   11   16 ar  
    23   12   13 ar  
    24   12   17 1   
    25   13   14 ar  
    26   13   41 1   
    27   14   15 ar  
    28   14   20 1   
    29   15   16 ar  
    30   15   42 1   
    31   16   43 1   
    32   17   18 2   
    33   19   27 1   
    34   20   21 1   
    35   21   22 ar  
    36   21   26 ar  
    37   22   23 ar  
    38   22   44 1   
    39   23   24 ar  
    40   23   45 1   
    41   24   25 ar  
    42   24   46 1   
    43   25   26 ar  
    44   25   33 1   
    45   26   27 1   
    46   27   29 1   
    47   27   30 1   
    48   33   34 2   
    49   33   35 1   
    50   35   47 1   
    51   35   48 1   
@<TRIPOS>SUBSTRUCTURE
     1 1NV         1 TEMP              0 ****  ****    0 ROOT
