@<TRIPOS>MOLECULE
1NV
   48    38     1     0     0
SMALL
bcc


@<TRIPOS>ATOM
      1 C1          0.1460    4.2440   -3.6990 c1        1 1NV      0.163000
      2 C2          0.0770    5.1430   -4.7530 c1        1 1NV     -0.225000
      3 C3          1.0110    6.1620   -4.8560 c1        1 1NV      0.167000
      4 C4          2.0130    6.2820   -3.9070 c2        1 1NV     -0.225000
      5 C5          2.0820    5.3830   -2.8530 c1        1 1NV      0.165000
      6 C6          1.1490    4.3650   -2.7490 c1        1 1NV     -0.217000
      7 C7          1.1850    3.4170   -1.5550 c3        1 1NV      0.028000
      8 N8          0.0470    0.4720   -3.6730 n1        1 1NV     -0.245000
      9 C9          0.5810    1.7500   -3.3100 c1        1 1NV      0.109000
     10 N10         0.5960    2.1610   -1.9230 n2        1 1NV     -0.246000
     11 C11         0.0660    1.2690   -0.8870 c1        1 1NV      0.102000
     12 C12        -0.4450    0.0410   -1.2350 c1        1 1NV     -0.190000
     13 C13        -0.8550   -0.8640   -0.2300 c1        1 1NV     -0.051000
     14 C14        -0.7430   -0.5140    1.1090 c1        1 1NV     -0.009000
     15 C15        -0.2250    0.7320    1.4620 c1        1 1NV     -0.063000
     16 C16         0.1800    1.6250    0.4710 c1        1 1NV     -0.182000
     17 C17        -0.4640   -0.3850   -2.6830 c1        1 1NV      0.302000
     18 O18        -1.0120   -1.4230   -3.0020 o         1 1NV     -0.286000
     19 F19        -3.0660   -3.4660    4.5430 f         1 1NV     -0.160667
     20 O20        -1.2400   -1.0750    2.3340 o         1 1NV     -0.142000
     21 C21        -0.5570   -2.3000    2.6100 c2        1 1NV      0.117000
     22 C22         0.8260   -2.3590    2.5190 c2        1 1NV     -0.184000
     23 C23         1.4960   -3.5280    2.8590 c1        1 1NV     -0.070000
     24 C24         0.7820   -4.6380    3.2900 c1        1 1NV     -0.124000
     25 C25        -0.6020   -4.5810    3.3810 c1        1 1NV     -0.037000
     26 C26        -1.2730   -3.4140    3.0410 c1        1 1NV     -0.171000
     27 C27        -2.7760   -3.3180    3.2400 c2        1 1NV      0.476000
     28 F28         0.9020    7.0730   -5.8340 f         1 1NV     -0.081000
     29 F29        -3.3830   -4.2840    2.5360 f         1 1NV     -0.160667
     30 F30        -3.2070   -2.1220    2.8200 f         1 1NV     -0.160667
     31 F31        -0.7770    3.2860   -3.5770 f         1 1NV     -0.082000
     32 F32         3.0600    5.4940   -1.9390 f         1 1NV     -0.083000
     33 C33        -1.3810   -5.7950    3.8600 c1        1 1NV      0.336000
     34 O34        -2.5750   -5.7120    4.0430 o         1 1NV     -0.352000
     35 N35        -0.6870   -6.9910    4.2140 n2        1 1NV     -0.418000
     36 H1         -0.6310    5.0580   -5.4230 ha        1 1NV      0.180000
     37 H2          2.6710    7.0000   -3.9800 ha        1 1NV      0.179000
     38 H3          0.6820    3.8080   -0.8130 h1        1 1NV      0.114000
     39 H4          2.1160    3.2740   -1.2800 h1        1 1NV      0.114000
     40 H5          0.9360    2.3450   -4.0000 ha        1 1NV      0.188000
     41 H6         -1.2170   -1.7340   -0.4760 ha        1 1NV      0.179000
     42 H7         -0.1470    0.9770    2.4010 ha        1 1NV      0.161000
     43 H8          0.5420    2.4940    0.7180 ha        1 1NV      0.145000
     44 H9          1.3290   -1.5790    2.2170 ha        1 1NV      0.159000
     45 H10         2.4680   -3.5690    2.7960 ha        1 1NV      0.150000
     46 H11         1.2540   -5.4590    3.5280 ha        1 1NV      0.164000
     47 H12         0.2170   -7.0480    4.0910 hn        1 1NV      0.232500
     48 H13        -1.1490   -7.7040    4.5550 hn        1 1NV      0.232500
@<TRIPOS>BOND
     1    1    6 1   
     2    1   31 1   
     3    2    3 1   
     4    2   36 1   
     5    3    4 1   
     6    4    5 1   
     7    4   37 1   
     8    5   32 1   
     9    6    7 1   
    10    7   10 1   
    11    7   38 1   
    12    7   39 1   
    13    8    9 1   
    14    9   40 1   
    15   10   11 1   
    16   11   16 1   
    17   12   13 1   
    18   12   17 1   
    19   13   41 1   
    20   14   15 1   
    21   15   42 1   
    22   16   43 1   
    23   17   18 1   
    24   19   27 1   
    25   20   21 1   
    26   21   22 1   
    27   21   26 1   
    28   22   23 1   
    29   22   44 1   
    30   23   45 1   
    31   24   25 1   
    32   24   46 1   
    33   25   26 1   
    34   27   29 1   
    35   27   30 1   
    36   33   34 1   
    37   35   47 1   
    38   35   48 1   
@<TRIPOS>SUBSTRUCTURE
     1 1NV         1 TEMP              0 ****  ****    0 ROOT
