@<TRIPOS>MOLECULE
1NV
   49    52     1     0     0
SMALL
bcc


@<TRIPOS>ATOM
      1 C1         -0.0660   -0.1160   -0.0980 ca        1 1NV      0.192400
      2 C2          1.3230    0.0380   -0.2280 ca        1 1NV     -0.217500
      3 C3          2.0540    0.5700    0.8480 ca        1 1NV      0.201900
      4 C4          1.4090    0.9500    2.0370 ca        1 1NV     -0.217500
      5 C5          0.0200    0.7800    2.1460 ca        1 1NV      0.192400
      6 C6         -0.7420    0.2350    1.0910 ca        1 1NV     -0.220300
      7 C7         -2.2340    0.1020    1.1950 c3        1 1NV      0.268100
      8 N8         -3.7380   -2.9780   -0.2150 nc        1 1NV     -0.653100
      9 C9         -3.2140   -1.8000   -0.0340 cd        1 1NV      0.680100
     10 N10        -2.7440   -1.2540    1.1730 na        1 1NV     -0.636000
     11 C11        -2.8380   -2.0420    2.3250 ca        1 1NV      0.207600
     12 C12        -3.4190   -3.3400    2.2180 ca        1 1NV     -0.216600
     13 C13        -3.5750   -4.1440    3.3480 ca        1 1NV     -0.053000
     14 C14        -3.1230   -3.6800    4.5800 ca        1 1NV     -0.004900
     15 C15        -2.5250   -2.4170    4.7140 ca        1 1NV     -0.056000
     16 C16        -2.3890   -1.6070    3.5990 ca        1 1NV     -0.176000
     17 C17        -3.8730   -3.8520    0.8930 c         1 1NV      0.702100
     18 O18        -4.3400   -4.9930    0.7690 o         1 1NV     -0.519100
     19 F19        -3.9280   -5.3480    9.0630 f         1 1NV     -0.226967
     20 O20        -3.3880   -4.3850    5.7660 os        1 1NV     -0.218200
     21 C21        -2.8480   -5.6430    5.8810 ca        1 1NV      0.199100
     22 C22        -1.8720   -6.1620    5.0010 ca        1 1NV     -0.129000
     23 C23        -1.3750   -7.4360    5.2030 ca        1 1NV     -0.062000
     24 C24        -1.8260   -8.2090    6.2820 ca        1 1NV     -0.086000
     25 C25        -2.7760   -7.6920    7.1670 ca        1 1NV     -0.130600
     26 C26        -3.3170   -6.4060    6.9680 ca        1 1NV     -0.196300
     27 C27        -4.4090   -5.8200    7.8570 c3        1 1NV      0.693200
     28 F28         3.3900    0.7210    0.7370 f         1 1NV     -0.111900
     29 F29        -5.3600   -6.7380    8.2570 f         1 1NV     -0.226967
     30 F30        -5.1270   -4.7890    7.3340 f         1 1NV     -0.226967
     31 F31        -0.7670   -0.6040   -1.1470 f         1 1NV     -0.128900
     32 F32        -0.5900    1.1620    3.2940 f         1 1NV     -0.128900
     33 C33        -3.1760   -8.6050    8.2500 c         1 1NV      0.573700
     34 O34        -3.4200   -9.7980    8.1920 o         1 1NV     -0.384100
     35 N35        -3.2200   -8.0190    9.6490 n4        1 1NV     -0.767400
     36 H1          1.8300   -0.2460   -1.1630 ha        1 1NV      0.182000
     37 H2          1.9830    1.3820    2.8700 ha        1 1NV      0.182000
     38 H3         -2.6890    0.6550    0.3180 h1        1 1NV      0.086700
     39 H4         -2.5940    0.6080    2.1380 h1        1 1NV      0.086700
     40 H5         -3.1090   -1.1370   -0.9260 h5        1 1NV      0.075800
     41 H6         -4.0570   -5.1310    3.2410 ha        1 1NV      0.176000
     42 H7         -2.1870   -2.0700    5.7020 ha        1 1NV      0.160000
     43 H8         -1.9220   -0.6160    3.7200 ha        1 1NV      0.164000
     44 H9         -1.5260   -5.5450    4.1520 ha        1 1NV      0.189000
     45 H10        -0.6240   -7.8560    4.5110 ha        1 1NV      0.181000
     46 H11        -1.4330   -9.2310    6.4210 ha        1 1NV      0.173000
     47 H12        -3.0010   -8.7420   10.3440 hn        1 1NV      0.475467
     48 H13        -4.1700   -7.6610    9.8350 hn        1 1NV      0.475467
     49 H353       -2.5620   -7.2370    9.7330 hn        1 1NV      0.475467
@<TRIPOS>BOND
     1    1    2 ar  
     2    1    6 ar  
     3    1   31 1   
     4    2    3 ar  
     5    2   36 1   
     6    3    4 ar  
     7    3   28 1   
     8    4    5 ar  
     9    4   37 1   
    10    5    6 ar  
    11    5   32 1   
    12    6    7 1   
    13    7   10 1   
    14    7   38 1   
    15    7   39 1   
    16    8    9 2   
    17    8   17 1   
    18    9   10 1   
    19    9   40 1   
    20   10   11 1   
    21   11   12 ar  
    22   11   16 ar  
    23   12   13 ar  
    24   12   17 1   
    25   13   14 ar  
    26   13   41 1   
    27   14   15 ar  
    28   14   20 1   
    29   15   16 ar  
    30   15   42 1   
    31   16   43 1   
    32   17   18 2   
    33   19   27 1   
    34   20   21 1   
    35   21   22 ar  
    36   21   26 ar  
    37   22   23 ar  
    38   22   44 1   
    39   23   24 ar  
    40   23   45 1   
    41   24   25 ar  
    42   24   46 1   
    43   25   26 ar  
    44   25   33 1   
    45   26   27 1   
    46   27   29 1   
    47   27   30 1   
    48   33   34 2   
    49   33   35 1   
    50   35   47 1   
    51   35   48 1   
    52   35   49 1   
@<TRIPOS>SUBSTRUCTURE
     1 1NV         1 TEMP              0 ****  ****    0 ROOT
