@<TRIPOS>MOLECULE
1NV
   49    52     1     0     0
SMALL
bcc


@<TRIPOS>ATOM
      1 C1         -0.0440   -0.1130   -0.0840 ca        1 1NV      0.192400
      2 C2          1.3450    0.0530   -0.1960 ca        1 1NV     -0.217500
      3 C3          2.0570    0.5950    0.8870 ca        1 1NV      0.201900
      4 C4          1.3930    0.9740    2.0650 ca        1 1NV     -0.217500
      5 C5          0.0040    0.7930    2.1570 ca        1 1NV      0.192400
      6 C6         -0.7390    0.2370    1.0950 ca        1 1NV     -0.220300
      7 C7         -2.2300    0.0910    1.1800 c3        1 1NV      0.268100
      8 N8         -3.6880   -3.0080   -0.2380 nc        1 1NV     -0.653100
      9 C9         -3.1780   -1.8250   -0.0540 cd        1 1NV      0.680100
     10 N10        -2.7280   -1.2690    1.1570 na        1 1NV     -0.636000
     11 C11        -2.8300   -2.0550    2.3100 ca        1 1NV      0.207600
     12 C12        -3.3980   -3.3570    2.2010 ca        1 1NV     -0.216600
     13 C13        -3.5610   -4.1590    3.3320 ca        1 1NV     -0.053000
     14 C14        -3.1300   -3.6870    4.5680 ca        1 1NV     -0.004900
     15 C15        -2.5450   -2.4180    4.7040 ca        1 1NV     -0.056000
     16 C16        -2.4020   -1.6100    3.5880 ca        1 1NV     -0.176000
     17 C17        -3.8300   -3.8790    0.8720 c         1 1NV      0.702100
     18 O18        -4.2840   -5.0250    0.7470 o         1 1NV     -0.519100
     19 F19        -3.9780   -5.3470    9.0460 f         1 1NV     -0.226967
     20 O20        -3.4040   -4.3890    5.7520 os        1 1NV     -0.218200
     21 C21        -2.8540   -5.6420    5.8800 ca        1 1NV      0.199100
     22 C22        -1.8620   -6.1550    5.0140 ca        1 1NV     -0.129000
     23 C23        -1.3570   -7.4240    5.2270 ca        1 1NV     -0.062000
     24 C24        -1.8150   -8.1980    6.3030 ca        1 1NV     -0.086000
     25 C25        -2.7810   -7.6860    7.1730 ca        1 1NV     -0.130600
     26 C26        -3.3300   -6.4050    6.9620 ca        1 1NV     -0.196300
     27 C27        -4.4390   -5.8260    7.8350 c3        1 1NV      0.693200
     28 F28         3.3930    0.7580    0.7930 f         1 1NV     -0.111900
     29 F29        -5.3870   -6.7510    8.2250 f         1 1NV     -0.226967
     30 F30        -5.1600   -4.8030    7.3000 f         1 1NV     -0.226967
     31 F31        -0.7270   -0.6110   -1.1400 f         1 1NV     -0.128900
     32 F32        -0.6230    1.1730    3.2960 f         1 1NV     -0.128900
     33 C33        -3.1870   -8.5990    8.2540 c         1 1NV      0.573700
     34 O34        -3.4200   -9.7940    8.1970 o         1 1NV     -0.384100
     35 N35        -3.2550   -8.0090    9.6510 nz        1 1NV     -0.767400
     36 H1          1.8660   -0.2300   -1.1230 ha        1 1NV      0.182000
     37 H2          1.9520    1.4150    2.9040 ha        1 1NV      0.182000
     38 H3         -2.6070    0.5970    2.1170 h1        1 1NV      0.086700
     39 H4         -2.6790    0.6360    0.2950 h1        1 1NV      0.086700
     40 H5         -3.0670   -1.1640   -0.9470 h5        1 1NV      0.075800
     41 H6         -4.0330   -5.1510    3.2220 ha        1 1NV      0.176000
     42 H7         -2.2230   -2.0630    5.6960 ha        1 1NV      0.160000
     43 H8         -1.9450   -0.6150    3.7110 ha        1 1NV      0.164000
     44 H9         -1.5110   -5.5380    4.1680 ha        1 1NV      0.189000
     45 H10        -0.5920   -7.8400    4.5470 ha        1 1NV      0.181000
     46 H11        -1.4150   -9.2160    6.4510 ha        1 1NV      0.173000
     47 H12        -3.0390   -8.7270   10.3500 hn        1 1NV      0.475467
     48 H13        -4.2100   -7.6590    9.8220 hn        1 1NV      0.475467
     49 H353       -2.6050   -7.2210    9.7400 hn        1 1NV      0.475467
@<TRIPOS>BOND
     1    1    2 ar  
     2    1    6 ar  
     3    1   31 1   
     4    2    3 ar  
     5    2   36 1   
     6    3    4 ar  
     7    3   28 1   
     8    4    5 ar  
     9    4   37 1   
    10    5    6 ar  
    11    5   32 1   
    12    6    7 1   
    13    7   10 1   
    14    7   38 1   
    15    7   39 1   
    16    8    9 2   
    17    8   17 1   
    18    9   10 1   
    19    9   40 1   
    20   10   11 1   
    21   11   12 ar  
    22   11   16 ar  
    23   12   13 ar  
    24   12   17 1   
    25   13   14 ar  
    26   13   41 1   
    27   14   15 ar  
    28   14   20 1   
    29   15   16 ar  
    30   15   42 1   
    31   16   43 1   
    32   17   18 2   
    33   19   27 1   
    34   20   21 1   
    35   21   22 ar  
    36   21   26 ar  
    37   22   23 ar  
    38   22   44 1   
    39   23   24 ar  
    40   23   45 1   
    41   24   25 ar  
    42   24   46 1   
    43   25   26 ar  
    44   25   33 1   
    45   26   27 1   
    46   27   29 1   
    47   27   30 1   
    48   33   34 2   
    49   33   35 1   
    50   35   47 1   
    51   35   48 1   
    52   35   49 1   
@<TRIPOS>SUBSTRUCTURE
     1 1NV         1 TEMP              0 ****  ****    0 ROOT
