@<TRIPOS>MOLECULE
1NW
   58    62     1     0     0
SMALL
bcc


@<TRIPOS>ATOM
      1 C1          0.2390   -0.4250    0.0330 ca        1 1NW      0.192400
      2 C2          1.6380   -0.4340   -0.0740 ca        1 1NW     -0.217500
      3 C3          2.4080   -0.0020    1.0190 ca        1 1NW      0.200900
      4 C4          1.7930    0.4420    2.2010 ca        1 1NW     -0.217500
      5 C5          0.3920    0.4360    2.2870 ca        1 1NW      0.192400
      6 C6         -0.4110   -0.0060    1.2150 ca        1 1NW     -0.220300
      7 C7         -1.9090    0.0350    1.2950 c3        1 1NW      0.268100
      8 N8         -3.7430   -2.8300   -0.1750 nc        1 1NW     -0.654100
      9 C9         -3.0870   -1.7250    0.0290 cd        1 1NW      0.679100
     10 N10        -2.5740   -1.2510    1.2480 na        1 1NW     -0.636000
     11 C11        -2.7760   -2.0370    2.3890 ca        1 1NW      0.204600
     12 C12        -3.5030   -3.2560    2.2570 ca        1 1NW     -0.215600
     13 C13        -3.7680   -4.0490    3.3750 ca        1 1NW     -0.054000
     14 C14        -3.2820   -3.6570    4.6190 ca        1 1NW      0.000100
     15 C15        -2.5430   -2.4740    4.7760 ca        1 1NW     -0.057000
     16 C16        -2.2980   -1.6720    3.6740 ca        1 1NW     -0.176000
     17 C17        -3.9950   -3.6950    0.9200 c         1 1NW      0.702100
     18 O18        -4.5910   -4.7720    0.7740 o         1 1NW     -0.519100
     19 F19        -4.2740   -5.2240    9.0430 f         1 1NW     -0.226300
     20 O20        -3.6410   -4.3390    5.7910 os        1 1NW     -0.220200
     21 C21        -3.2730   -5.6600    5.8860 ca        1 1NW      0.199100
     22 C22        -2.3650   -6.2900    5.0080 ca        1 1NW     -0.137000
     23 C23        -2.0400   -7.6220    5.1940 ca        1 1NW     -0.060000
     24 C24        -2.6030   -8.3490    6.2540 ca        1 1NW     -0.093000
     25 C25        -3.4890   -7.7240    7.1310 ca        1 1NW     -0.122600
     26 C26        -3.8480   -6.3730    6.9550 ca        1 1NW     -0.201300
     27 C27        -4.8480   -5.6710    7.8680 c3        1 1NW      0.693200
     28 F28         3.7560   -0.0080    0.9300 f         1 1NW     -0.111900
     29 F29        -5.8570   -6.4910    8.3280 f         1 1NW     -0.226300
     30 F30        -5.4880   -4.5900    7.3460 f         1 1NW     -0.226300
     31 F31        -0.4970   -0.8170   -1.0320 f         1 1NW     -0.128400
     32 F32        -0.1870    0.8770    3.4300 f         1 1NW     -0.128400
     33 C33        -4.0670   -8.5650    8.1940 c         1 1NW      0.579700
     34 O34        -4.6800   -9.6130    8.0860 o         1 1NW     -0.388100
     35 N35        -3.8450   -8.0660    9.6210 n4        1 1NW     -0.542200
     36 C36        -2.9020   -8.9000   10.3560 ca        1 1NW     -0.191700
     37 C37        -1.6180   -8.4010   10.6970 ca        1 1NW      0.442200
     38 N38        -0.7240   -9.1270   11.3860 nb        1 1NW     -0.627000
     39 C39        -1.0700  -10.3720   11.7660 ca        1 1NW      0.457200
     40 C40        -2.3230  -10.9500   11.4710 ca        1 1NW     -0.220300
     41 C41        -3.2560  -10.2070   10.7540 ca        1 1NW     -0.053000
     42 H1          2.1230   -0.7680   -1.0040 ha        1 1NW      0.181500
     43 H2          2.4010    0.7960    3.0480 ha        1 1NW      0.181500
     44 H3         -2.2220    0.5690    2.2400 h1        1 1NW      0.086200
     45 H4         -2.2820    0.6470    0.4190 h1        1 1NW      0.086200
     46 H5         -2.8930   -1.0680   -0.8530 h5        1 1NW      0.074800
     47 H6         -4.3600   -4.9720    3.2480 ha        1 1NW      0.176000
     48 H7         -2.1800   -2.1800    5.7730 ha        1 1NW      0.160000
     49 H8         -1.7200   -0.7440    3.8140 ha        1 1NW      0.163000
     50 H9         -1.9300   -5.7130    4.1720 ha        1 1NW      0.187000
     51 H10        -1.3400   -8.1250    4.5050 ha        1 1NW      0.177000
     52 H11        -2.3500   -9.4150    6.3810 ha        1 1NW      0.169000
     53 H12        -3.4970   -7.0950    9.5980 hn        1 1NW      0.472300
     54 H13        -1.2870   -7.3810   10.4160 h4        1 1NW      0.047100
     55 H14        -0.3010  -10.9320   12.3360 h4        1 1NW      0.064100
     56 H15        -2.5570  -11.9740   11.8050 ha        1 1NW      0.184000
     57 H16        -4.2390  -10.6380   10.4990 ha        1 1NW      0.176000
     58 H352       -4.7520   -8.0740   10.1110 hn        1 1NW      0.472300
@<TRIPOS>BOND
     1    1    2 ar  
     2    1    6 ar  
     3    1   31 1   
     4    2    3 ar  
     5    2   42 1   
     6    3    4 ar  
     7    3   28 1   
     8    4    5 ar  
     9    4   43 1   
    10    5    6 ar  
    11    5   32 1   
    12    6    7 1   
    13    7   10 1   
    14    7   44 1   
    15    7   45 1   
    16    8    9 2   
    17    8   17 1   
    18    9   10 1   
    19    9   46 1   
    20   10   11 1   
    21   11   12 ar  
    22   11   16 ar  
    23   12   13 ar  
    24   12   17 1   
    25   13   14 ar  
    26   13   47 1   
    27   14   15 ar  
    28   14   20 1   
    29   15   16 ar  
    30   15   48 1   
    31   16   49 1   
    32   17   18 2   
    33   19   27 1   
    34   20   21 1   
    35   21   22 ar  
    36   21   26 ar  
    37   22   23 ar  
    38   22   50 1   
    39   23   24 ar  
    40   23   51 1   
    41   24   25 ar  
    42   24   52 1   
    43   25   26 ar  
    44   25   33 1   
    45   26   27 1   
    46   27   29 1   
    47   27   30 1   
    48   33   34 2   
    49   33   35 1   
    50   35   36 1   
    51   35   53 1   
    52   35   58 1   
    53   36   37 ar  
    54   36   41 ar  
    55   37   38 ar  
    56   37   54 1   
    57   38   39 ar  
    58   39   40 ar  
    59   39   55 1   
    60   40   41 ar  
    61   40   56 1   
    62   41   57 1   
@<TRIPOS>SUBSTRUCTURE
     1 1NW         1 TEMP              0 ****  ****    0 ROOT
