@<TRIPOS>MOLECULE
1NW
   57    45     1     0     0
SMALL
bcc


@<TRIPOS>ATOM
      1 C1         -0.7780    6.8900   -2.4480 c1        1 1NW      0.163000
      2 C2         -1.2100    8.0920   -2.9990 c1        1 1NW     -0.225000
      3 C3         -0.3260    9.1560   -3.1240 c1        1 1NW      0.168000
      4 C4          0.9880    9.0200   -2.6990 c2        1 1NW     -0.225000
      5 C5          1.4200    7.8180   -2.1490 c1        1 1NW      0.165000
      6 C6          0.5360    6.7540   -2.0240 c1        1 1NW     -0.217000
      7 C7          0.9880    5.4540   -1.3130 c3        1 1NW      0.028000
      8 N8         -0.4100    3.2310   -4.0800 n1        1 1NW     -0.181000
      9 C9          0.1730    4.3580   -3.4110 c1        1 1NW      0.010500
     10 N10         0.4160    4.3100   -1.9890 n2        1 1NW     -0.246000
     11 C11         0.0660    3.1040   -1.2230 c1        1 1NW      0.104000
     12 C12        -0.4920    2.0230   -1.8620 c1        1 1NW     -0.190000
     13 C13        -0.7800    0.8450   -1.1370 c1        1 1NW     -0.050000
     14 C14        -0.5000    0.7800    0.2220 c1        1 1NW     -0.012000
     15 C15         0.0650    1.8740    0.8700 c1        1 1NW     -0.062000
     16 C16         0.3500    3.0360    0.1560 c1        1 1NW     -0.182000
     17 C17        -0.7460    2.0760   -3.3500 c1        1 1NW      0.302000
     18 O18        -1.2600    1.1280   -3.9130 o         1 1NW     -0.286000
     19 F19        -1.6130   -2.9430    3.6630 f         1 1NW     -0.158333
     20 O20        -0.9440   -0.2200    1.1480 o         1 1NW     -0.141000
     21 C21        -0.1210   -1.3690    1.0340 c2        1 1NW      0.119000
     22 C22         1.0620   -1.3060    0.3110 c2        1 1NW     -0.181000
     23 C23         1.8670   -2.4330    0.1960 c1        1 1NW     -0.069000
     24 C24         1.4870   -3.6250    0.8070 c1        1 1NW     -0.123000
     25 C25         0.3070   -3.6880    1.5300 c1        1 1NW     -0.046000
     26 C26        -0.5000   -2.5590    1.6450 c1        1 1NW     -0.171000
     27 C27        -1.8310   -2.6480    2.3770 c2        1 1NW      0.475000
     28 F28        -0.7270   10.2950   -3.7100 f         1 1NW     -0.081000
     29 F29        -2.5810   -3.6020    1.8230 f         1 1NW     -0.158333
     30 F30        -2.4690   -1.4700    2.2910 f         1 1NW     -0.158333
     31 F31        -1.6500    5.8960   -2.2460 f         1 1NW     -0.082000
     32 F32         2.6600    7.7190   -1.6530 f         1 1NW     -0.083000
     33 C33        -0.1220   -5.0050    2.1820 c1        1 1NW      0.348000
     34 O34        -1.1600   -5.0600    2.8160 o         1 1NW     -0.325000
     35 N35         0.6610   -6.1900    1.9850 n2        1 1NW     -0.310000
     36 C36         0.2210   -7.4390    2.5370 c1        1 1NW      0.023000
     37 C37         0.1680   -7.6090    3.9120 c1        1 1NW      0.010500
     38 N38        -0.2600   -8.7940    4.4370 n1        1 1NW     -0.181000
     39 C39        -0.6380   -9.8140    3.6090 c1        1 1NW     -0.126500
     40 C40        -0.5860   -9.6460    2.2340 c1        1 1NW     -0.126500
     41 C41        -0.1560   -8.4590    1.7060 c1        1 1NW     -0.143000
     42 H1         -2.1340    8.1880   -3.2970 ha        1 1NW      0.180000
     43 H2          1.6110    9.7710   -2.7880 ha        1 1NW      0.180000
     44 H3          0.6830    5.4690   -0.3800 h1        1 1NW      0.114000
     45 H4          1.9630    5.3920   -1.3370 h1        1 1NW      0.114000
     46 H5          0.4050    5.1570   -3.9170 ha        1 1NW      0.193000
     47 H6         -1.1770    0.0760   -1.5920 ha        1 1NW      0.179000
     48 H7          0.2610    1.8280    1.8240 ha        1 1NW      0.162000
     49 H8          0.7460    3.8020    0.6090 ha        1 1NW      0.146000
     50 H9          1.3290   -0.4660   -0.1200 ha        1 1NW      0.161000
     51 H10         2.6980   -2.3890   -0.3130 ha        1 1NW      0.152000
     52 H11         2.0510   -4.4130    0.7270 ha        1 1NW      0.164000
     53 H12         1.4690   -6.1400    1.5500 hn        1 1NW      0.243000
     54 H13         0.4360   -6.8840    4.5030 ha        1 1NW      0.193000
     55 H14        -0.9430  -10.6590    3.9850 ha        1 1NW      0.152000
     56 H15        -0.8540  -10.3720    1.6440 ha        1 1NW      0.152000
     57 H16        -0.1190   -8.3390    0.7380 ha        1 1NW      0.140000
@<TRIPOS>BOND
     1    1    6 1   
     2    1   31 1   
     3    2    3 1   
     4    2   42 1   
     5    3    4 1   
     6    4    5 1   
     7    4   43 1   
     8    5   32 1   
     9    6    7 1   
    10    7   10 1   
    11    7   44 1   
    12    7   45 1   
    13    8    9 1   
    14    9   46 1   
    15   10   11 1   
    16   11   16 1   
    17   12   13 1   
    18   12   17 1   
    19   13   47 1   
    20   14   15 1   
    21   15   48 1   
    22   16   49 1   
    23   17   18 1   
    24   19   27 1   
    25   20   21 1   
    26   21   22 1   
    27   21   26 1   
    28   22   23 1   
    29   22   50 1   
    30   23   51 1   
    31   24   25 1   
    32   24   52 1   
    33   25   26 1   
    34   27   29 1   
    35   27   30 1   
    36   33   34 1   
    37   35   36 1   
    38   35   53 1   
    39   36   41 1   
    40   37   38 1   
    41   37   54 1   
    42   39   40 1   
    43   39   55 1   
    44   40   56 1   
    45   41   57 1   
@<TRIPOS>SUBSTRUCTURE
     1 1NW         1 TEMP              0 ****  ****    0 ROOT
