@<TRIPOS>MOLECULE
1NW
   57    61     1     0     0
SMALL
bcc


@<TRIPOS>ATOM
      1 C1          6.8940    0.8790    0.4570 ca        1 1NW      0.192900
      2 C2          7.3000    2.1690    0.8350 ca        1 1NW     -0.219500
      3 C3          6.9950    3.2530   -0.0030 ca        1 1NW      0.194900
      4 C4          6.3030    3.0560   -1.2090 ca        1 1NW     -0.219500
      5 C5          5.9020    1.7580   -1.5650 ca        1 1NW      0.192900
      6 C6          6.1760    0.6490   -0.7360 ca        1 1NW     -0.211300
      7 C7          5.7690   -0.7400   -1.1370 c3        1 1NW      0.271100
      8 N8          4.5340   -2.9860    1.5360 nc        1 1NW     -0.668100
      9 C9          5.2630   -2.2900    0.7110 cd        1 1NW      0.676100
     10 N10         4.8160   -1.3890   -0.2660 na        1 1NW     -0.641000
     11 C11         3.4310   -1.1830   -0.3800 ca        1 1NW      0.183600
     12 C12         2.5600   -1.9140    0.4780 ca        1 1NW     -0.208600
     13 C13         1.1750   -1.7630    0.3760 ca        1 1NW     -0.059000
     14 C14         0.6500   -0.8720   -0.5570 ca        1 1NW      0.039100
     15 C15         1.4900   -0.1290   -1.4020 ca        1 1NW     -0.065000
     16 C16         2.8640   -0.2870   -1.3170 ca        1 1NW     -0.180000
     17 C17         3.1220   -2.8510    1.4900 c         1 1NW      0.700100
     18 O18         2.3950   -3.4860    2.2680 o         1 1NW     -0.521100
     19 F19        -4.6500   -0.5740   -1.7320 f         1 1NW     -0.228300
     20 O20        -0.7220   -0.7820   -0.8030 os        1 1NW     -0.231200
     21 C21        -1.5260   -0.3560    0.2410 ca        1 1NW      0.164100
     22 C22        -1.0350    0.1300    1.4600 ca        1 1NW     -0.182000
     23 C23        -1.9320    0.5420    2.4400 ca        1 1NW     -0.067000
     24 C24        -3.3060    0.4740    2.2100 ca        1 1NW     -0.138000
     25 C25        -3.7930   -0.0090    0.9920 ca        1 1NW     -0.067600
     26 C26        -2.9130   -0.4190   -0.0130 ca        1 1NW     -0.166300
     27 C27        -3.3820   -0.9550   -1.3640 c3        1 1NW      0.701200
     28 F28         7.3770    4.4990    0.3510 f         1 1NW     -0.117900
     29 F29        -3.3990   -2.3240   -1.4500 f         1 1NW     -0.228300
     30 F30        -2.6110   -0.5520   -2.4270 f         1 1NW     -0.228300
     31 F31         7.2180   -0.1630    1.2560 f         1 1NW     -0.127400
     32 F32         5.2490    1.5840   -2.7380 f         1 1NW     -0.127400
     33 C33        -5.2870   -0.1080    0.8540 c         1 1NW      0.675700
     34 O34        -5.8910   -1.1460    1.1670 o         1 1NW     -0.554100
     35 N35        -5.9100    1.0590    0.4340 n         1 1NW     -0.452100
     36 C36        -7.2830    1.2420    0.2190 ca        1 1NW     -0.048700
     37 C37        -7.7270    2.4660   -0.3740 ca        1 1NW      0.349200
     38 N38        -9.0140    2.7590   -0.5980 nb        1 1NW     -0.642000
     39 C39        -9.9400    1.8440   -0.2480 ca        1 1NW      0.364200
     40 C40        -9.6110    0.6110    0.3370 ca        1 1NW     -0.217300
     41 C41        -8.2730    0.3020    0.5740 ca        1 1NW     -0.120000
     42 H1          7.8520    2.3250    1.7740 ha        1 1NW      0.177500
     43 H2          6.0770    3.9070   -1.8690 ha        1 1NW      0.177500
     44 H3          5.3450   -0.7200   -2.1840 h1        1 1NW      0.081700
     45 H4          6.7060   -1.3750   -1.1610 h1        1 1NW      0.081700
     46 H5          6.3700   -2.4050    0.7760 h5        1 1NW      0.062800
     47 H6          0.5170   -2.3540    1.0370 ha        1 1NW      0.181000
     48 H7          1.0480    0.5610   -2.1380 ha        1 1NW      0.161000
     49 H8          3.5060    0.3040   -1.9890 ha        1 1NW      0.152000
     50 H9          0.0500    0.1770    1.6400 ha        1 1NW      0.161000
     51 H10        -1.5540    0.9200    3.4030 ha        1 1NW      0.151000
     52 H11        -4.0130    0.7870    2.9950 ha        1 1NW      0.156000
     53 H12        -5.3220    1.7910    0.1000 hn        1 1NW      0.323500
     54 H13        -7.0060    3.2450   -0.6820 h4        1 1NW      0.018100
     55 H14       -10.9890    2.1210   -0.4500 h4        1 1NW      0.024100
     56 H15       -10.4000   -0.1060    0.6030 ha        1 1NW      0.147000
     57 H16        -8.0040   -0.6660    1.0280 ha        1 1NW      0.178000
@<TRIPOS>BOND
     1    1    2 ar  
     2    1    6 ar  
     3    1   31 1   
     4    2    3 ar  
     5    2   42 1   
     6    3    4 ar  
     7    3   28 1   
     8    4    5 ar  
     9    4   43 1   
    10    5    6 ar  
    11    5   32 1   
    12    6    7 1   
    13    7   10 1   
    14    7   44 1   
    15    7   45 1   
    16    8    9 2   
    17    8   17 1   
    18    9   10 1   
    19    9   46 1   
    20   10   11 1   
    21   11   12 ar  
    22   11   16 ar  
    23   12   13 ar  
    24   12   17 1   
    25   13   14 ar  
    26   13   47 1   
    27   14   15 ar  
    28   14   20 1   
    29   15   16 ar  
    30   15   48 1   
    31   16   49 1   
    32   17   18 2   
    33   19   27 1   
    34   20   21 1   
    35   21   22 ar  
    36   21   26 ar  
    37   22   23 ar  
    38   22   50 1   
    39   23   24 ar  
    40   23   51 1   
    41   24   25 ar  
    42   24   52 1   
    43   25   26 ar  
    44   25   33 1   
    45   26   27 1   
    46   27   29 1   
    47   27   30 1   
    48   33   34 2   
    49   33   35 1   
    50   35   36 1   
    51   35   53 1   
    52   36   37 ar  
    53   36   41 ar  
    54   37   38 ar  
    55   37   54 1   
    56   38   39 ar  
    57   39   40 ar  
    58   39   55 1   
    59   40   41 ar  
    60   40   56 1   
    61   41   57 1   
@<TRIPOS>SUBSTRUCTURE
     1 1NW         1 TEMP              0 ****  ****    0 ROOT
