@<TRIPOS>MOLECULE
1NW
   57    61     1     0     0
SMALL
bcc


@<TRIPOS>ATOM
      1 C1          0.0170   -0.2390   -0.0900 ca        1 1NW      0.192900
      2 C2          1.4140   -0.2230   -0.2260 ca        1 1NW     -0.219500
      3 C3          2.1980    0.2390    0.8430 ca        1 1NW      0.194900
      4 C4          1.6000    0.6900    2.0310 ca        1 1NW     -0.219500
      5 C5          0.2010    0.6600    2.1470 ca        1 1NW      0.192900
      6 C6         -0.6160    0.1830    1.0990 ca        1 1NW     -0.211300
      7 C7         -2.1130    0.1810    1.2200 c3        1 1NW      0.271100
      8 N8         -3.9280   -2.7070   -0.2210 nc        1 1NW     -0.668100
      9 C9         -3.2920   -1.5880   -0.0270 cd        1 1NW      0.676100
     10 N10        -2.7420   -1.1200    1.1750 na        1 1NW     -0.641000
     11 C11        -2.8640   -1.9370    2.3110 ca        1 1NW      0.183600
     12 C12        -3.5570   -3.1750    2.1880 ca        1 1NW     -0.208600
     13 C13        -3.7280   -4.0030    3.3010 ca        1 1NW     -0.059000
     14 C14        -3.1940   -3.6190    4.5290 ca        1 1NW      0.039100
     15 C15        -2.4940   -2.4110    4.6690 ca        1 1NW     -0.065000
     16 C16        -2.3350   -1.5770    3.5730 ca        1 1NW     -0.180000
     17 C17        -4.1080   -3.5960    0.8710 c         1 1NW      0.700100
     18 O18        -4.6960   -4.6780    0.7230 o         1 1NW     -0.521100
     19 F19        -4.2780   -6.2000    9.1910 f         1 1NW     -0.228300
     20 O20        -3.4530   -4.3320    5.7020 os        1 1NW     -0.231200
     21 C21        -2.9850   -5.6340    5.7680 ca        1 1NW      0.165100
     22 C22        -2.1510   -6.2170    4.8050 ca        1 1NW     -0.183000
     23 C23        -1.7300   -7.5320    4.9750 ca        1 1NW     -0.067000
     24 C24        -2.1320   -8.2610    6.0930 ca        1 1NW     -0.138000
     25 C25        -2.9610   -7.6760    7.0550 ca        1 1NW     -0.067600
     26 C26        -3.3890   -6.3530    6.9140 ca        1 1NW     -0.167300
     27 C27        -4.2940   -5.6570    7.9280 c3        1 1NW      0.701200
     28 F28         3.5440    0.2570    0.7250 f         1 1NW     -0.117900
     29 F29        -5.6210   -5.6430    7.5800 f         1 1NW     -0.228300
     30 F30        -3.9810   -4.3380    8.1490 f         1 1NW     -0.228300
     31 F31        -0.7320   -0.6590   -1.1360 f         1 1NW     -0.127400
     32 F32        -0.3610    1.1120    3.2930 f         1 1NW     -0.127400
     33 C33        -3.3970   -8.5530    8.1950 c         1 1NW      0.676700
     34 O34        -4.4440   -9.2160    8.1290 o         1 1NW     -0.554100
     35 N35        -2.5060   -8.6100    9.2580 n         1 1NW     -0.452100
     36 C36        -2.6640   -9.3410   10.4430 ca        1 1NW     -0.048700
     37 C37        -1.7180   -9.1500   11.4990 ca        1 1NW      0.349200
     38 N38        -1.7560   -9.8150   12.6610 nb        1 1NW     -0.642000
     39 C39        -2.7470  -10.7100   12.8430 ca        1 1NW      0.364200
     40 C40        -3.7280  -10.9710   11.8730 ca        1 1NW     -0.217300
     41 C41        -3.6920  -10.2840   10.6620 ca        1 1NW     -0.120000
     42 H1          1.8850   -0.5650   -1.1590 ha        1 1NW      0.177500
     43 H2          2.2170    1.0640    2.8610 ha        1 1NW      0.177500
     44 H3         -2.4130    0.6930    2.1810 h1        1 1NW      0.081700
     45 H4         -2.5240    0.7950    0.3630 h1        1 1NW      0.081700
     46 H5         -3.1530   -0.9140   -0.9040 h5        1 1NW      0.062800
     47 H6         -4.2850   -4.9500    3.1880 ha        1 1NW      0.181000
     48 H7         -2.0910   -2.1260    5.6540 ha        1 1NW      0.161000
     49 H8         -1.7840   -0.6330    3.7040 ha        1 1NW      0.152000
     50 H9         -1.8410   -5.6400    3.9200 ha        1 1NW      0.161000
     51 H10        -1.0800   -8.0000    4.2190 ha        1 1NW      0.151000
     52 H11        -1.8090   -9.3070    6.2160 ha        1 1NW      0.156000
     53 H12        -1.7580   -7.9510    9.2560 hn        1 1NW      0.323500
     54 H13        -0.8900   -8.4240   11.3980 h4        1 1NW      0.018100
     55 H14        -2.7460  -11.2370   13.8130 h4        1 1NW      0.024100
     56 H15        -4.5190  -11.7080   12.0680 ha        1 1NW      0.147000
     57 H16        -4.4610  -10.4770    9.8960 ha        1 1NW      0.178000
@<TRIPOS>BOND
     1    1    2 ar  
     2    1    6 ar  
     3    1   31 1   
     4    2    3 ar  
     5    2   42 1   
     6    3    4 ar  
     7    3   28 1   
     8    4    5 ar  
     9    4   43 1   
    10    5    6 ar  
    11    5   32 1   
    12    6    7 1   
    13    7   10 1   
    14    7   44 1   
    15    7   45 1   
    16    8    9 2   
    17    8   17 1   
    18    9   10 1   
    19    9   46 1   
    20   10   11 1   
    21   11   12 ar  
    22   11   16 ar  
    23   12   13 ar  
    24   12   17 1   
    25   13   14 ar  
    26   13   47 1   
    27   14   15 ar  
    28   14   20 1   
    29   15   16 ar  
    30   15   48 1   
    31   16   49 1   
    32   17   18 2   
    33   19   27 1   
    34   20   21 1   
    35   21   22 ar  
    36   21   26 ar  
    37   22   23 ar  
    38   22   50 1   
    39   23   24 ar  
    40   23   51 1   
    41   24   25 ar  
    42   24   52 1   
    43   25   26 ar  
    44   25   33 1   
    45   26   27 1   
    46   27   29 1   
    47   27   30 1   
    48   33   34 2   
    49   33   35 1   
    50   35   36 1   
    51   35   53 1   
    52   36   37 ar  
    53   36   41 ar  
    54   37   38 ar  
    55   37   54 1   
    56   38   39 ar  
    57   39   40 ar  
    58   39   55 1   
    59   40   41 ar  
    60   40   56 1   
    61   41   57 1   
@<TRIPOS>SUBSTRUCTURE
     1 1NW         1 TEMP              0 ****  ****    0 ROOT
