@<TRIPOS>MOLECULE
1NX
   58    62     1     0     0
SMALL
bcc


@<TRIPOS>ATOM
      1 C1         -0.4210    2.0600    2.2310 c3        1 1NX     -0.136100
      2 C2          0.1970    1.6920    0.8910 c3        1 1NX      0.177500
      3 N4          1.6230    1.1960    1.0630 n4        1 1NX     -0.688800
      4 C5          1.6780   -0.2250    1.6100 c         1 1NX      0.612300
      5 O6          1.3930   -1.0870    0.7860 o         1 1NX     -0.435100
      6 C7          2.0740   -0.3710    2.9760 cc        1 1NX     -0.399000
      7 C8          2.1850    0.6070    3.9970 cd        1 1NX     -0.001100
      8 N9          2.5760    0.0360    5.1780 na        1 1NX     -0.198100
      9 C10         2.7350   -1.3500    4.9760 ca        1 1NX      0.266500
     10 N11         3.1050   -2.3120    5.8820 nb        1 1NX     -0.559000
     11 C12         3.1520   -3.5410    5.3860 ca        1 1NX      0.330900
     12 C13         2.8400   -3.8340    3.9900 ca        1 1NX      0.530300
     13 N14         2.4850   -2.9070    3.0810 nb        1 1NX     -0.657000
     14 C15         2.4230   -1.6450    3.5820 ca        1 1NX      0.393800
     15 O16         2.9780   -5.1780    3.7050 os        1 1NX     -0.344400
     16 C17         2.6100   -5.6850    2.4590 ca        1 1NX      0.100100
     17 C18         3.5070   -6.6430    1.9450 ca        1 1NX     -0.091000
     18 C19         3.1210   -7.3290    0.8040 ca        1 1NX     -0.172300
     19 C20         3.8300   -8.4660    0.1230 c3        1 1NX      0.191800
     20 N22         5.2250   -8.0870   -0.3200 n4        1 1NX     -0.690800
     21 C23         6.2780   -8.5000    0.6950 c         1 1NX      0.555100
     22 C24         6.7810   -9.8960    0.5840 c3        1 1NX     -0.189100
     23 O25         6.6110   -7.6290    1.4830 o         1 1NX     -0.406100
     24 C26         2.9100   -8.8600   -1.0670 c3        1 1NX     -0.098400
     25 C27         1.6880   -7.9350   -1.0220 c3        1 1NX     -0.046100
     26 C28         1.8920   -7.0570    0.1640 ca        1 1NX     -0.050300
     27 C29         1.0290   -6.0990    0.6770 ca        1 1NX     -0.093000
     28 C30         1.3840   -5.4120    1.8440 ca        1 1NX     -0.085000
     29 C31         0.1930    2.8170   -0.1120 cx        1 1NX     -0.216700
     30 C32        -0.6660    4.0450    0.0730 cx        1 1NX     -0.098900
     31 C33         0.8190    4.1570    0.1950 cx        1 1NX     -0.098900
     32 H11C       -0.3180    1.2270    2.9690 hc        1 1NX      0.076033
     33 H12C        0.0360    2.9870    2.6540 hc        1 1NX      0.076033
     34 H13C       -1.5140    2.2470    2.0730 hc        1 1NX      0.076033
     35 H2         -0.3760    0.8150    0.4520 hx        1 1NX      0.119700
     36 H4          2.0680    1.2000    0.1370 hn        1 1NX      0.451800
     37 H31         0.2870    2.4330   -1.1520 hc        1 1NX      0.108700
     38 H8          1.9830    1.6850    3.9430 h4        1 1NX      0.188000
     39 H9          2.7170    0.5000    6.0470 hn        1 1NX      0.351700
     40 H12         3.4390   -4.3630    6.0700 h4        1 1NX      0.081100
     41 H18         4.4590   -6.8400    2.4620 ha        1 1NX      0.165000
     42 H30         0.6900   -4.6720    2.2730 ha        1 1NX      0.171000
     43 H20         3.9430   -9.3430    0.8270 hx        1 1NX      0.112700
     44 H22         5.2610   -7.0670   -0.4500 hn        1 1NX      0.459800
     45 H261        3.4220   -8.7780   -2.0580 hc        1 1NX      0.080700
     46 H262        2.5960   -9.9270   -0.9360 hc        1 1NX      0.080700
     47 H241        7.4340   -9.9990   -0.3220 hc        1 1NX      0.118367
     48 H242        7.3990  -10.1270    1.4940 hc        1 1NX      0.118367
     49 H243        5.9440  -10.6360    0.5190 hc        1 1NX      0.118367
     50 H271        0.7450   -8.5330   -0.9190 hc        1 1NX      0.091700
     51 H272        1.6030   -7.3300   -1.9620 hc        1 1NX      0.091700
     52 H29         0.0650   -5.8910    0.1870 ha        1 1NX      0.168000
     53 H321       -1.1690    4.4580   -0.8240 hc        1 1NX      0.094700
     54 H322       -1.2950    4.1500    0.9750 hc        1 1NX      0.094700
     55 H331        1.2590    4.3320    1.1940 hc        1 1NX      0.094700
     56 H332        1.3920    4.6670   -0.6020 hc        1 1NX      0.094700
     57 H42         2.1330    1.8390    1.6710 hn        1 1NX      0.451800
     58 H222        5.4290   -8.5420   -1.2160 hn        1 1NX      0.459800
@<TRIPOS>BOND
     1    1    2 1   
     2    1   32 1   
     3    1   33 1   
     4    1   34 1   
     5    2    3 1   
     6    2   29 1   
     7    2   35 1   
     8    3    4 1   
     9    3   36 1   
    10    3   57 1   
    11    4    5 2   
    12    4    6 1   
    13    6    7 2   
    14    6   14 1   
    15    7    8 1   
    16    7   38 1   
    17    8    9 1   
    18    8   39 1   
    19    9   10 ar  
    20    9   14 ar  
    21   10   11 ar  
    22   11   12 ar  
    23   11   40 1   
    24   12   13 ar  
    25   12   15 1   
    26   13   14 ar  
    27   15   16 1   
    28   16   17 ar  
    29   16   28 ar  
    30   17   18 ar  
    31   17   41 1   
    32   18   19 1   
    33   18   26 ar  
    34   19   20 1   
    35   19   24 1   
    36   19   43 1   
    37   20   21 1   
    38   20   44 1   
    39   20   58 1   
    40   21   22 1   
    41   21   23 2   
    42   22   47 1   
    43   22   48 1   
    44   22   49 1   
    45   24   25 1   
    46   24   45 1   
    47   24   46 1   
    48   25   26 1   
    49   25   50 1   
    50   25   51 1   
    51   26   27 ar  
    52   27   28 ar  
    53   27   52 1   
    54   28   42 1   
    55   29   30 1   
    56   29   31 1   
    57   29   37 1   
    58   30   31 1   
    59   30   53 1   
    60   30   54 1   
    61   31   55 1   
    62   31   56 1   
@<TRIPOS>SUBSTRUCTURE
     1 1NX         1 TEMP              0 ****  ****    0 ROOT
