@<TRIPOS>MOLECULE
1NX
   58    62     1     0     0
SMALL
bcc


@<TRIPOS>ATOM
      1 C1         -0.4530    2.0550    2.1590 c3        1 1NX     -0.136100
      2 C2          0.1650    1.6720    0.8250 c3        1 1NX      0.177500
      3 N4          1.5950    1.1880    1.0020 ny        1 1NX     -0.688800
      4 C5          1.6600   -0.2240    1.5690 c         1 1NX      0.612300
      5 O6          1.3790   -1.1000    0.7590 o         1 1NX     -0.435100
      6 C7          2.0600   -0.3480    2.9360 cc        1 1NX     -0.399000
      7 C8          2.1660    0.6460    3.9430 cd        1 1NX     -0.001100
      8 N9          2.5630    0.0950    5.1310 na        1 1NX     -0.198100
      9 C10         2.7310   -1.2920    4.9500 ca        1 1NX      0.266500
     10 N11         3.1100   -2.2390    5.8690 nb        1 1NX     -0.559000
     11 C12         3.1640   -3.4740    5.3910 ca        1 1NX      0.330900
     12 C13         2.8520   -3.7900    4.0000 ca        1 1NX      0.530300
     13 N14         2.4880   -2.8790    3.0780 nb        1 1NX     -0.657000
     14 C15         2.4190   -1.6100    3.5610 ca        1 1NX      0.393800
     15 O16         2.9980   -5.1360    3.7350 os        1 1NX     -0.344400
     16 C17         2.6310   -5.6650    2.4970 ca        1 1NX      0.100100
     17 C18         3.5330   -6.6240    1.9960 ca        1 1NX     -0.091000
     18 C19         3.1490   -7.3300    0.8660 ca        1 1NX     -0.172300
     19 C20         3.8640   -8.4720    0.2000 c3        1 1NX      0.191800
     20 N22         5.2550   -8.0910   -0.2520 ny        1 1NX     -0.690800
     21 C23         6.3130   -8.4810    0.7660 c         1 1NX      0.555100
     22 C24         6.8250   -9.8760    0.6750 c3        1 1NX     -0.189100
     23 O25         6.6420   -7.5970    1.5410 o         1 1NX     -0.406100
     24 C26         2.9430   -8.8910   -0.9810 c3        1 1NX     -0.098400
     25 C27         1.7160   -7.9730   -0.9470 c3        1 1NX     -0.046100
     26 C28         1.9160   -7.0760    0.2250 ca        1 1NX     -0.050300
     27 C29         1.0480   -6.1160    0.7260 ca        1 1NX     -0.093000
     28 C30         1.4010   -5.4100    1.8820 ca        1 1NX     -0.085000
     29 C31         0.1530    2.7820   -0.1950 cx        1 1NX     -0.216700
     30 C32        -0.7140    4.0070   -0.0260 cx        1 1NX     -0.098900
     31 C33         0.7700    4.1300    0.0930 cx        1 1NX     -0.098900
     32 H11C       -1.5480    2.2320    2.0000 hc        1 1NX      0.076033
     33 H12C       -0.0010    2.9910    2.5690 hc        1 1NX      0.076033
     34 H13C       -0.3440    1.2340    2.9100 hc        1 1NX      0.076033
     35 H2         -0.4020    0.7850    0.3990 hx        1 1NX      0.119700
     36 H4          2.1020    1.8430    1.5990 hn        1 1NX      0.451800
     37 H31         0.2490    2.3840   -1.2290 hc        1 1NX      0.108700
     38 H8          1.9560    1.7220    3.8730 h4        1 1NX      0.188000
     39 H9          2.7030    0.5730    5.9940 hn        1 1NX      0.351700
     40 H12         3.4570   -4.2840    6.0860 h4        1 1NX      0.081100
     41 H18         4.4870   -6.8070    2.5140 ha        1 1NX      0.165000
     42 H30         0.7030   -4.6680    2.3010 ha        1 1NX      0.171000
     43 H20         3.9850   -9.3380    0.9170 hx        1 1NX      0.112700
     44 H22         5.2830   -7.0730   -0.3970 hn        1 1NX      0.459800
     45 H261        3.4530   -8.8200   -1.9740 hc        1 1NX      0.080700
     46 H262        2.6370   -9.9580   -0.8330 hc        1 1NX      0.080700
     47 H241        5.9930  -10.6230    0.6240 hc        1 1NX      0.118367
     48 H242        7.4470  -10.0890    1.5870 hc        1 1NX      0.118367
     49 H243        7.4770   -9.9880   -0.2300 hc        1 1NX      0.118367
     50 H271        1.6240   -7.3830   -1.8950 hc        1 1NX      0.091700
     51 H272        0.7770   -8.5760   -0.8330 hc        1 1NX      0.091700
     52 H29         0.0810   -5.9220    0.2350 ha        1 1NX      0.168000
     53 H321       -1.2220    4.4040   -0.9280 hc        1 1NX      0.094700
     54 H322       -1.3430    4.1210    0.8750 hc        1 1NX      0.094700
     55 H331        1.3390    4.6340   -0.7120 hc        1 1NX      0.094700
     56 H332        1.2100    4.3240    1.0880 hc        1 1NX      0.094700
     57 H42         2.0390    1.1810    0.0740 hn        1 1NX      0.451800
     58 H222        5.4600   -8.5570   -1.1410 hn        1 1NX      0.459800
@<TRIPOS>BOND
     1    1    2 1   
     2    1   32 1   
     3    1   33 1   
     4    1   34 1   
     5    2    3 1   
     6    2   29 1   
     7    2   35 1   
     8    3    4 1   
     9    3   36 1   
    10    3   57 1   
    11    4    5 2   
    12    4    6 1   
    13    6    7 2   
    14    6   14 1   
    15    7    8 1   
    16    7   38 1   
    17    8    9 1   
    18    8   39 1   
    19    9   10 ar  
    20    9   14 ar  
    21   10   11 ar  
    22   11   12 ar  
    23   11   40 1   
    24   12   13 ar  
    25   12   15 1   
    26   13   14 ar  
    27   15   16 1   
    28   16   17 ar  
    29   16   28 ar  
    30   17   18 ar  
    31   17   41 1   
    32   18   19 1   
    33   18   26 ar  
    34   19   20 1   
    35   19   24 1   
    36   19   43 1   
    37   20   21 1   
    38   20   44 1   
    39   20   58 1   
    40   21   22 1   
    41   21   23 2   
    42   22   47 1   
    43   22   48 1   
    44   22   49 1   
    45   24   25 1   
    46   24   45 1   
    47   24   46 1   
    48   25   26 1   
    49   25   50 1   
    50   25   51 1   
    51   26   27 ar  
    52   27   28 ar  
    53   27   52 1   
    54   28   42 1   
    55   29   30 1   
    56   29   31 1   
    57   29   37 1   
    58   30   31 1   
    59   30   53 1   
    60   30   54 1   
    61   31   55 1   
    62   31   56 1   
@<TRIPOS>SUBSTRUCTURE
     1 1NX         1 TEMP              0 ****  ****    0 ROOT
