@<TRIPOS>MOLECULE
1NX
   58    62     1     0     0
SMALL
bcc


@<TRIPOS>ATOM
      1 C1         -0.4370    2.0530    2.2350 c3        1 1NX     -0.136100
      2 C2          0.1760    1.6860    0.8940 c3        1 1NX      0.177500
      3 N4          1.6060    1.1960    1.0610 n4        1 1NX     -0.688800
      4 C5          1.6690   -0.2240    1.6090 c         1 1NX      0.612300
      5 O6          1.3840   -1.0880    0.7870 o         1 1NX     -0.435100
      6 C7          2.0700   -0.3670    2.9730 cc        1 1NX     -0.399000
      7 C8          2.1820    0.6140    3.9930 cd        1 1NX     -0.001100
      8 N9          2.5790    0.0450    5.1730 na        1 1NX     -0.198100
      9 C10         2.7420   -1.3400    4.9730 ca        1 1NX      0.266500
     10 N11         3.1190   -2.3000    5.8790 nb        1 1NX     -0.559000
     11 C12         3.1680   -3.5300    5.3850 ca        1 1NX      0.330900
     12 C13         2.8520   -3.8260    3.9900 ca        1 1NX      0.530300
     13 N14         2.4910   -2.9010    3.0810 nb        1 1NX     -0.657000
     14 C15         2.4260   -1.6380    3.5800 ca        1 1NX      0.393800
     15 O16         2.9940   -5.1690    3.7070 os        1 1NX     -0.344400
     16 C17         2.6240   -5.6790    2.4620 ca        1 1NX      0.100100
     17 C18         3.5230   -6.6350    1.9480 ca        1 1NX     -0.091000
     18 C19         3.1370   -7.3240    0.8090 ca        1 1NX     -0.172300
     19 C20         3.8480   -8.4600    0.1270 c3        1 1NX      0.191800
     20 N22         5.2410   -8.0760   -0.3190 n4        1 1NX     -0.690800
     21 C23         6.2970   -8.4850    0.6940 c         1 1NX      0.555100
     22 C24         6.8040   -9.8800    0.5830 c3        1 1NX     -0.189100
     23 O25         6.6290   -7.6120    1.4800 o         1 1NX     -0.406100
     24 C26         2.9260   -8.8580   -1.0600 c3        1 1NX     -0.098400
     25 C27         1.7020   -7.9370   -1.0130 c3        1 1NX     -0.046100
     26 C28         1.9050   -7.0570    0.1710 ca        1 1NX     -0.050300
     27 C29         1.0400   -6.1020    0.6860 ca        1 1NX     -0.093000
     28 C30         1.3960   -5.4120    1.8500 ca        1 1NX     -0.085000
     29 C31         0.1640    2.8090   -0.1120 cx        1 1NX     -0.216700
     30 C32        -0.6990    4.0340    0.0750 cx        1 1NX     -0.098900
     31 C33         0.7860    4.1520    0.1920 cx        1 1NX     -0.098900
     32 H11C        0.0180    2.9830    2.6550 hc        1 1NX      0.076033
     33 H12C       -0.3280    1.2220    2.9740 hc        1 1NX      0.076033
     34 H13C       -1.5320    2.2350    2.0810 hc        1 1NX      0.076033
     35 H2         -0.3940    0.8060    0.4580 hx        1 1NX      0.119700
     36 H4          2.0470    1.2000    0.1320 hn        1 1NX      0.451800
     37 H31         0.2560    2.4240   -1.1510 hc        1 1NX      0.108700
     38 H8          1.9760    1.6900    3.9370 h4        1 1NX      0.188000
     39 H9          2.7220    0.5110    6.0410 hn        1 1NX      0.351700
     40 H12         3.4600   -4.3490    6.0690 h4        1 1NX      0.081100
     41 H18         4.4770   -6.8280    2.4630 ha        1 1NX      0.165000
     42 H30         0.7000   -4.6740    2.2800 ha        1 1NX      0.171000
     43 H20         3.9660   -9.3350    0.8320 hx        1 1NX      0.112700
     44 H22         5.2720   -7.0570   -0.4510 hn        1 1NX      0.459800
     45 H261        2.6170   -9.9260   -0.9270 hc        1 1NX      0.080700
     46 H262        3.4360   -8.7750   -2.0520 hc        1 1NX      0.080700
     47 H241        7.4250  -10.1080    1.4920 hc        1 1NX      0.118367
     48 H242        7.4570   -9.9810   -0.3240 hc        1 1NX      0.118367
     49 H243        5.9700  -10.6230    0.5200 hc        1 1NX      0.118367
     50 H271        0.7600   -8.5390   -0.9070 hc        1 1NX      0.091700
     51 H272        1.6120   -7.3340   -1.9530 hc        1 1NX      0.091700
     52 H29         0.0740   -5.8970    0.1980 ha        1 1NX      0.168000
     53 H321       -1.3250    4.1370    0.9800 hc        1 1NX      0.094700
     54 H322       -1.2080    4.4430   -0.8200 hc        1 1NX      0.094700
     55 H331        1.3530    4.6640   -0.6090 hc        1 1NX      0.094700
     56 H332        1.2290    4.3310    1.1880 hc        1 1NX      0.094700
     57 H42         2.1160    1.8420    1.6650 hn        1 1NX      0.451800
     58 H222        5.4440   -8.5320   -1.2150 hn        1 1NX      0.459800
@<TRIPOS>BOND
     1    1    2 1   
     2    1   32 1   
     3    1   33 1   
     4    1   34 1   
     5    2    3 1   
     6    2   29 1   
     7    2   35 1   
     8    3    4 1   
     9    3   36 1   
    10    3   57 1   
    11    4    5 2   
    12    4    6 1   
    13    6    7 2   
    14    6   14 1   
    15    7    8 1   
    16    7   38 1   
    17    8    9 1   
    18    8   39 1   
    19    9   10 ar  
    20    9   14 ar  
    21   10   11 ar  
    22   11   12 ar  
    23   11   40 1   
    24   12   13 ar  
    25   12   15 1   
    26   13   14 ar  
    27   15   16 1   
    28   16   17 ar  
    29   16   28 ar  
    30   17   18 ar  
    31   17   41 1   
    32   18   19 1   
    33   18   26 ar  
    34   19   20 1   
    35   19   24 1   
    36   19   43 1   
    37   20   21 1   
    38   20   44 1   
    39   20   58 1   
    40   21   22 1   
    41   21   23 2   
    42   22   47 1   
    43   22   48 1   
    44   22   49 1   
    45   24   25 1   
    46   24   45 1   
    47   24   46 1   
    48   25   26 1   
    49   25   50 1   
    50   25   51 1   
    51   26   27 ar  
    52   27   28 ar  
    53   27   52 1   
    54   28   42 1   
    55   29   30 1   
    56   29   31 1   
    57   29   37 1   
    58   30   31 1   
    59   30   53 1   
    60   30   54 1   
    61   31   55 1   
    62   31   56 1   
@<TRIPOS>SUBSTRUCTURE
     1 1NX         1 TEMP              0 ****  ****    0 ROOT
