@<TRIPOS>MOLECULE
1NX
   56    60     1     0     0
SMALL
bcc


@<TRIPOS>ATOM
      1 C1         -3.7790    1.7870   -1.6730 c3        1 1NX     -0.118100
      2 C2         -3.8810    1.4110   -0.1930 c3        1 1NX      0.125700
      3 N4         -3.5110    0.0280    0.0480 n         1 1NX     -0.565900
      4 C5         -2.2420   -0.3280    0.4800 c         1 1NX      0.713300
      5 O6         -1.4110    0.5310    0.8370 o         1 1NX     -0.607100
      6 C7         -1.9660   -1.7710    0.5420 cc        1 1NX     -0.321000
      7 C8         -2.8270   -2.7850    0.9790 cd        1 1NX     -0.047100
      8 N9         -2.1980   -4.0220    0.9360 na        1 1NX     -0.263100
      9 C10        -0.8870   -3.8330    0.4710 ca        1 1NX      0.265500
     10 N11         0.1080   -4.7530    0.2760 nb        1 1NX     -0.604000
     11 C12         1.2510   -4.2410   -0.1750 ca        1 1NX      0.302900
     12 C13         1.4220   -2.8270   -0.4470 ca        1 1NX      0.503300
     13 N14         0.4540   -1.9040   -0.2790 nb        1 1NX     -0.635000
     14 C15        -0.7100   -2.4020    0.2000 ca        1 1NX      0.375800
     15 O16         2.6870   -2.5000   -0.9080 os        1 1NX     -0.360400
     16 C17         2.9420   -1.1450   -1.1660 ca        1 1NX      0.085100
     17 C18         2.7990   -0.1770   -0.1580 ca        1 1NX     -0.092000
     18 C19         3.0910    1.1340   -0.4880 ca        1 1NX     -0.103300
     19 C20         2.9500    2.3590    0.3890 c3        1 1NX      0.146000
     20 N22         1.6750    2.4460    1.0500 n         1 1NX     -0.561900
     21 C23         1.5660    2.6000    2.4220 c         1 1NX      0.659100
     22 C24         0.1790    2.5370    3.0120 c3        1 1NX     -0.179100
     23 O25         2.5690    2.8220    3.1320 o         1 1NX     -0.624100
     24 C26         3.2480    3.5460   -0.5810 c3        1 1NX     -0.090400
     25 C27         3.7640    2.9480   -1.8950 c3        1 1NX     -0.038100
     26 C28         3.5540    1.4770   -1.7770 ca        1 1NX     -0.077300
     27 C29         3.7340    0.5000   -2.7450 ca        1 1NX     -0.116000
     28 C30         3.4100   -0.8280   -2.4450 ca        1 1NX     -0.123000
     29 C31        -5.2530    1.7120    0.3850 cx        1 1NX     -0.137700
     30 C32        -5.8600    3.0800    0.2200 cx        1 1NX     -0.130400
     31 C33        -6.4760    1.9010   -0.4720 cx        1 1NX     -0.130400
     32 H11C       -2.7230    1.6880   -2.0220 hc        1 1NX      0.044033
     33 H12C       -4.4240    1.1320   -2.3080 hc        1 1NX      0.044033
     34 H13C       -4.1000    2.8460   -1.8120 hc        1 1NX      0.044033
     35 H2         -3.1400    2.0570    0.3760 h1        1 1NX      0.088700
     36 H4         -4.0710   -0.6610   -0.3940 hn        1 1NX      0.303500
     37 H31        -5.4040    1.2200    1.3700 hc        1 1NX      0.085700
     38 H8         -3.8590   -2.6980    1.3330 h4        1 1NX      0.180000
     39 H9         -2.5750   -4.8840    1.2350 hn        1 1NX      0.318700
     40 H12         2.0910   -4.9360   -0.3430 h4        1 1NX      0.053100
     41 H18         2.4440   -0.4510    0.8460 ha        1 1NX      0.159000
     42 H30         3.5190   -1.6170   -3.2020 ha        1 1NX      0.146000
     43 H20         3.7590    2.3390    1.1830 h1        1 1NX      0.098700
     44 H22         0.8790    2.1200    0.5490 hn        1 1NX      0.325500
     45 H261        2.3310    4.1550   -0.7710 hc        1 1NX      0.054700
     46 H262        4.0130    4.2150   -0.1190 hc        1 1NX      0.054700
     47 H241       -0.3670    3.4820    2.7750 hc        1 1NX      0.070700
     48 H242       -0.4010    1.6720    2.6030 hc        1 1NX      0.070700
     49 H243        0.2650    2.4350    4.1200 hc        1 1NX      0.070700
     50 H271        3.2090    3.3640   -2.7730 hc        1 1NX      0.055200
     51 H272        4.8510    3.1790   -2.0380 hc        1 1NX      0.055200
     52 H29         4.1070    0.7610   -3.7460 ha        1 1NX      0.138000
     53 H321       -6.3810    3.5310    1.0830 hc        1 1NX      0.072200
     54 H322       -5.3300    3.8410   -0.3800 hc        1 1NX      0.072200
     55 H331       -6.3920    1.8210   -1.5700 hc        1 1NX      0.072200
     56 H332       -7.4420    1.5080   -0.1070 hc        1 1NX      0.072200
@<TRIPOS>BOND
     1    1    2 1   
     2    1   32 1   
     3    1   33 1   
     4    1   34 1   
     5    2    3 1   
     6    2   29 1   
     7    2   35 1   
     8    3    4 1   
     9    3   36 1   
    10    4    5 2   
    11    4    6 1   
    12    6    7 2   
    13    6   14 1   
    14    7    8 1   
    15    7   38 1   
    16    8    9 1   
    17    8   39 1   
    18    9   10 ar  
    19    9   14 ar  
    20   10   11 ar  
    21   11   12 ar  
    22   11   40 1   
    23   12   13 ar  
    24   12   15 1   
    25   13   14 ar  
    26   15   16 1   
    27   16   17 ar  
    28   16   28 ar  
    29   17   18 ar  
    30   17   41 1   
    31   18   19 1   
    32   18   26 ar  
    33   19   20 1   
    34   19   24 1   
    35   19   43 1   
    36   20   21 1   
    37   20   44 1   
    38   21   22 1   
    39   21   23 2   
    40   22   47 1   
    41   22   48 1   
    42   22   49 1   
    43   24   25 1   
    44   24   45 1   
    45   24   46 1   
    46   25   26 1   
    47   25   50 1   
    48   25   51 1   
    49   26   27 ar  
    50   27   28 ar  
    51   27   52 1   
    52   28   42 1   
    53   29   30 1   
    54   29   31 1   
    55   29   37 1   
    56   30   31 1   
    57   30   53 1   
    58   30   54 1   
    59   31   55 1   
    60   31   56 1   
@<TRIPOS>SUBSTRUCTURE
     1 1NX         1 TEMP              0 ****  ****    0 ROOT
