@<TRIPOS>MOLECULE
1NX
   56    53     1     0     0
SMALL
bcc


@<TRIPOS>ATOM
      1 C1         -3.6920    5.5670   -0.7360 c3        1 1NX     -0.222000
      2 C2         -3.1070    4.2190   -1.0960 c3        1 1NX      0.049000
      3 N4         -1.7430    4.1760   -0.7070 n         1 1NX     -0.357000
      4 C5         -1.2390    3.0450    0.0220 c2        1 1NX      0.380000
      5 O6         -1.4550    1.9170   -0.3810 o         1 1NX     -0.406000
      6 C7         -0.3770    3.2590    1.2640 c2        1 1NX     -0.196000
      7 C8         -0.1910    4.3780    2.0590 c1        1 1NX      0.019000
      8 N9          0.1020    3.9530    3.3280 n2        1 1NX     -0.179000
      9 C10         0.0990    2.5630    3.3290 c1        1 1NX     -0.063000
     10 N11         0.3270    1.6480    4.3190 n1        1 1NX     -0.075000
     11 C12         0.2620    0.3310    4.0460 c1        1 1NX     -0.106000
     12 C13        -0.0370   -0.0990    2.7560 c1        1 1NX      0.072000
     13 N14        -0.2610    0.8020    1.7800 n1        1 1NX     -0.135000
     14 C15        -0.1960    2.1380    2.0560 c1        1 1NX     -0.003000
     15 O16        -0.1230   -1.5170    2.6920 os        1 1NX     -0.150000
     16 C17         1.0220   -2.0330    2.0260 c2        1 1NX      0.047000
     17 C18         0.8660   -2.8590    0.9030 c2        1 1NX     -0.103000
     18 C19         1.9870   -3.4240    0.2910 c1        1 1NX     -0.099000
     19 C20         2.1410   -4.2940   -0.9780 c2        1 1NX      0.059000
     20 N22         1.5040   -5.5520   -0.7810 n         1 1NX     -0.381000
     21 C23         0.8190   -6.1880   -1.8720 c2        1 1NX      0.306000
     22 C24         0.1330   -7.5370   -1.6610 c3        1 1NX     -0.243000
     23 O25         0.7850   -5.6510   -2.9650 o         1 1NX     -0.373000
     24 C26         3.5790   -4.4980   -1.2210 c3        1 1NX     -0.172000
     25 C27         4.3220   -3.7820   -0.1620 c3        1 1NX     -0.124000
     26 C28         3.2850   -3.1610    0.8060 c2        1 1NX     -0.075000
     27 C29         3.4380   -2.3390    1.9240 c1        1 1NX     -0.112000
     28 C30         2.3110   -1.7720    2.5380 c1        1 1NX     -0.119000
     29 C31        -3.2140    4.0010   -2.6080 cx        1 1NX     -0.187000
     30 C32        -4.0260    5.0400   -3.3680 cx        1 1NX     -0.212000
     31 C33        -2.5080    5.0340   -3.4760 cx        1 1NX     -0.212000
     32 H11C       -4.5300    5.7030   -1.2320 hc        1 1NX      0.080000
     33 H12C       -3.0530    6.2750   -0.9730 hc        1 1NX      0.080000
     34 H13C       -3.8740    5.5980    0.2300 hc        1 1NX      0.080000
     35 H2         -3.6020    3.5120   -0.6270 h1        1 1NX      0.130000
     36 H4         -1.1760    4.8560   -0.9480 hn        1 1NX      0.243000
     37 H31        -3.2440    3.0860   -2.9710 hc        1 1NX      0.126000
     38 H8         -0.2210    5.3100    1.7570 DU        1 1NX      0.235000
     39 H9          0.2690    4.4900    4.0500 DU        1 1NX      0.235000
     40 H12         0.4250   -0.3260    4.7570 ha        1 1NX      0.188000
     41 H18        -0.0320   -3.0720    0.5730 ha        1 1NX      0.155000
     42 H30         2.4170   -1.2180    3.3410 ha        1 1NX      0.150000
     43 H20         1.7370   -3.8340   -1.7480 h4        1 1NX      0.147000
     44 H22         1.5490   -5.9650    0.0340 hn        1 1NX      0.225000
     45 H261        3.7830   -5.4570   -1.1670 hc        1 1NX      0.094000
     46 H262        3.8160   -4.1170   -2.0960 hc        1 1NX      0.094000
     47 H241        0.2610   -8.0980   -2.4600 hc        1 1NX      0.106333
     48 H242        0.5250   -7.9850   -0.8820 hc        1 1NX      0.106333
     49 H243       -0.8270   -7.3970   -1.5100 hc        1 1NX      0.106333
     50 H271        4.8820   -4.4250    0.3320 hc        1 1NX      0.098000
     51 H272        4.8550   -3.0610   -0.5720 hc        1 1NX      0.098000
     52 H29         4.3330   -2.1580    2.2800 ha        1 1NX      0.141000
     53 H321       -4.4110    5.7580   -2.8260 hc        1 1NX      0.114000
     54 H322       -4.5100    4.7090   -4.1550 hc        1 1NX      0.114000
     55 H331       -2.1420    4.7000   -4.3220 hc        1 1NX      0.114000
     56 H332       -2.0450    5.7490   -2.9930 hc        1 1NX      0.114000
@<TRIPOS>BOND
     1    1    2 1   
     2    1   32 1   
     3    1   33 1   
     4    1   34 1   
     5    2    3 1   
     6    2   29 1   
     7    2   35 1   
     8    3    4 1   
     9    3   36 1   
    10    4    5 1   
    11    4    6 1   
    12    6    7 1   
    13    6   14 1   
    14    7    8 1   
    15    8    9 1   
    16    9   10 1   
    17   11   12 1   
    18   11   40 1   
    19   12   15 1   
    20   13   14 1   
    21   15   16 1   
    22   16   17 1   
    23   16   28 1   
    24   17   18 1   
    25   17   41 1   
    26   18   26 1   
    27   19   20 1   
    28   19   24 1   
    29   19   43 1   
    30   20   21 1   
    31   20   44 1   
    32   21   22 1   
    33   21   23 1   
    34   22   47 1   
    35   22   48 1   
    36   22   49 1   
    37   24   25 1   
    38   24   45 1   
    39   24   46 1   
    40   25   26 1   
    41   25   50 1   
    42   25   51 1   
    43   26   27 1   
    44   27   52 1   
    45   28   42 1   
    46   29   30 1   
    47   29   31 1   
    48   29   37 1   
    49   30   31 1   
    50   30   53 1   
    51   30   54 1   
    52   31   55 1   
    53   31   56 1   
@<TRIPOS>SUBSTRUCTURE
     1 1NX         1 TEMP              0 ****  ****    0 ROOT
