@<TRIPOS>MOLECULE
1NY
   53    56     1     0     0
SMALL
bcc


@<TRIPOS>ATOM
      1 CAN         0.0640    0.7600    0.2860 ca        1 1NY     -0.131500
      2 CAP         0.7480    0.8970    1.4890 ca        1 1NY     -0.093000
      3 CBA         0.6510   -0.0820    2.4830 ca        1 1NY     -0.074600
      4 CAU         1.3890    0.0930    3.8240 c         1 1NY      0.911200
      5 OAE         1.2100   -0.8120    4.6770 o         1 1NY     -0.784300
      6 OAC         2.0940    1.1250    3.9420 o         1 1NY     -0.784300
      7 CAQ        -0.1300   -1.2240    2.2600 ca        1 1NY     -0.093000
      8 CAO        -0.8250   -1.3870    1.0690 ca        1 1NY     -0.131500
      9 CAZ        -0.7300   -0.3830    0.0840 ca        1 1NY     -0.117400
     10 NAT        -1.4540   -0.5510   -1.1790 n4        1 1NY     -0.526200
     11 CAW        -2.3330    0.6350   -1.5160 c         1 1NY      0.584700
     12 OAD        -1.8790    1.3690   -2.3870 o         1 1NY     -0.455100
     13 CAV        -3.6230    0.7380   -0.8360 ca        1 1NY     -0.200600
     14 CAH        -4.6400    1.4360   -1.5080 ca        1 1NY     -0.047000
     15 CAX        -5.8960    1.6040   -0.9160 ca        1 1NY     -0.042800
     16 CAF        -3.8620    0.2220    0.4440 ca        1 1NY     -0.075000
     17 CAG        -5.1070    0.4020    1.0370 ca        1 1NY     -0.134000
     18 CBC        -6.1320    1.0950    0.3800 ca        1 1NY      0.006700
     19 CBD        -7.4780    1.2670    1.0340 c3        1 1NY     -0.015700
     20 CAA        -8.3410    0.0560    0.6840 c3        1 1NY     -0.091600
     21 CAB        -7.3530    1.3630    2.5520 c3        1 1NY     -0.091600
     22 CAS        -8.1670    2.5470    0.5420 c3        1 1NY     -0.053200
     23 CAR        -8.0180    2.7850   -0.9090 c2        1 1NY     -0.116200
     24 CAY        -6.9530    2.3410   -1.6080 ce        1 1NY     -0.035400
     25 CBB        -6.8310    2.5920   -3.0460 ca        1 1NY     -0.061800
     26 CAL        -6.6240    1.5340   -3.9420 ca        1 1NY     -0.121000
     27 CAJ        -6.5420    1.7800   -5.3110 ca        1 1NY     -0.127500
     28 CAI        -6.6610    3.0820   -5.7980 ca        1 1NY     -0.121000
     29 CAK        -6.8670    4.1380   -4.9120 ca        1 1NY     -0.127500
     30 CAM        -6.9560    3.8970   -3.5420 ca        1 1NY     -0.121000
     31 H1          0.1420    1.5380   -0.4890 ha        1 1NY      0.132000
     32 H2          1.3810    1.7810    1.6900 ha        1 1NY      0.189000
     33 H4         -0.1760   -1.9840    3.0620 ha        1 1NY      0.189000
     34 H5         -1.4320   -2.2900    0.9070 ha        1 1NY      0.132000
     35 H6         -0.7590   -0.6670   -1.9300 hn        1 1NY      0.449800
     36 H7         -4.4460    1.8600   -2.5090 ha        1 1NY      0.169000
     37 H8         -3.0690   -0.2950    1.0120 ha        1 1NY      0.162000
     38 H9         -5.2740   -0.0030    2.0490 ha        1 1NY      0.161000
     39 H10        -8.5350    0.0230   -0.4140 hc        1 1NY      0.046367
     40 H11        -9.3180    0.1210    1.2210 hc        1 1NY      0.046367
     41 H12        -7.8270   -0.8860    0.9910 hc        1 1NY      0.046367
     42 H13        -6.5470    2.0810    2.8360 hc        1 1NY      0.046367
     43 H14        -8.3190    1.7180    2.9860 hc        1 1NY      0.046367
     44 H15        -7.1220    0.3650    2.9950 hc        1 1NY      0.046367
     45 H16        -7.7380    3.4330    1.0910 hc        1 1NY      0.067700
     46 H17        -9.2570    2.4880    0.8090 hc        1 1NY      0.067700
     47 H18        -8.8150    3.3670   -1.3970 ha        1 1NY      0.143000
     48 H21        -6.5380    0.5060   -3.5600 ha        1 1NY      0.135000
     49 H22        -6.3870    0.9440   -6.0090 ha        1 1NY      0.137000
     50 H23        -6.5940    3.2740   -6.8790 ha        1 1NY      0.138000
     51 H24        -6.9620    5.1660   -5.2930 ha        1 1NY      0.137000
     52 H25        -7.1210    4.7320   -2.8440 ha        1 1NY      0.135000
     53 HAT2       -2.0350   -1.3930   -1.1210 hn        1 1NY      0.449800
@<TRIPOS>BOND
     1    1    2 ar  
     2    1    9 ar  
     3    1   31 1   
     4    2    3 ar  
     5    2   32 1   
     6    3    4 1   
     7    3    7 ar  
     8    4    5 1   
     9    4    6 1   
    10    7    8 ar  
    11    7   33 1   
    12    8    9 ar  
    13    8   34 1   
    14    9   10 1   
    15   10   11 1   
    16   10   35 1   
    17   10   53 1   
    18   11   12 2   
    19   11   13 1   
    20   13   14 ar  
    21   13   16 ar  
    22   14   15 ar  
    23   14   36 1   
    24   15   18 ar  
    25   15   24 1   
    26   16   17 ar  
    27   16   37 1   
    28   17   18 ar  
    29   17   38 1   
    30   18   19 1   
    31   19   20 1   
    32   19   21 1   
    33   19   22 1   
    34   20   39 1   
    35   20   40 1   
    36   20   41 1   
    37   21   42 1   
    38   21   43 1   
    39   21   44 1   
    40   22   23 1   
    41   22   45 1   
    42   22   46 1   
    43   23   24 2   
    44   23   47 1   
    45   24   25 1   
    46   25   26 ar  
    47   25   30 ar  
    48   26   27 ar  
    49   26   48 1   
    50   27   28 ar  
    51   27   49 1   
    52   28   29 ar  
    53   28   50 1   
    54   29   30 ar  
    55   29   51 1   
    56   30   52 1   
@<TRIPOS>SUBSTRUCTURE
     1 1NY         1 TEMP              0 ****  ****    0 ROOT
