@<TRIPOS>MOLECULE
1NY
   52    55     1     0     0
SMALL
bcc


@<TRIPOS>ATOM
      1 CAN         0.1990   -0.2550   -0.0240 ca        1 1NY     -0.186500
      2 CAP         1.5770   -0.3630    0.1610 ca        1 1NY     -0.090500
      3 CBA         2.1720   -0.0430    1.3810 ca        1 1NY     -0.135600
      4 CAU         3.6750   -0.1720    1.5760 c         1 1NY      0.909200
      5 OAE         4.3670   -0.5790    0.6000 o         1 1NY     -0.831800
      6 OAC         4.1520    0.1330    2.7060 o         1 1NY     -0.831800
      7 CAQ         1.3610    0.4000    2.4310 ca        1 1NY     -0.090500
      8 CAO        -0.0140    0.5180    2.2720 ca        1 1NY     -0.186500
      9 CAZ        -0.6170    0.1860    1.0340 ca        1 1NY      0.015600
     10 NAT        -2.0230    0.2940    0.9350 ns        1 1NY     -0.452100
     11 CAW        -2.7990    0.2300   -0.2010 c         1 1NY      0.667700
     12 OAD        -2.3590    0.0290   -1.3510 o         1 1NY     -0.598100
     13 CAV        -4.2720    0.4160    0.0140 ca        1 1NY     -0.139600
     14 CAH        -4.9720    1.2510   -0.8580 ca        1 1NY     -0.070000
     15 CAX        -6.3540    1.4340   -0.7160 ca        1 1NY     -0.055800
     16 CAF        -4.9540   -0.2540    1.0320 ca        1 1NY     -0.105000
     17 CAG        -6.3270   -0.0710    1.1820 ca        1 1NY     -0.141000
     18 CBC        -7.0390    0.7790    0.3300 ca        1 1NY     -0.048300
     19 CBD        -8.5240    0.9600    0.5000 c3        1 1NY     -0.005700
     20 CAA        -9.2430   -0.1260   -0.2980 c3        1 1NY     -0.086100
     21 CAB        -8.9370    0.8480    1.9650 c3        1 1NY     -0.086100
     22 CAS        -8.9680    2.3410   -0.0000 c3        1 1NY     -0.040200
     23 CAR        -8.3280    2.7380   -1.2730 c2        1 1NY     -0.157200
     24 CAY        -7.0950    2.3140   -1.6200 ce        1 1NY     -0.004400
     25 CBB        -6.4950    2.7220   -2.8930 ca        1 1NY     -0.053800
     26 CAL        -5.8930    1.7800   -3.7390 ca        1 1NY     -0.116500
     27 CAJ        -5.3530    2.1780   -4.9610 ca        1 1NY     -0.130500
     28 CAI        -5.4050    3.5160   -5.3500 ca        1 1NY     -0.128000
     29 CAK        -6.0010    4.4590   -4.5130 ca        1 1NY     -0.130500
     30 CAM        -6.5460    4.0660   -3.2910 ca        1 1NY     -0.116500
     31 H1         -0.2400   -0.5120   -1.0000 ha        1 1NY      0.125000
     32 H2          2.2250   -0.7080   -0.6620 ha        1 1NY      0.154000
     33 H4          1.8430    0.6520    3.3900 ha        1 1NY      0.154000
     34 H5         -0.6260    0.8690    3.1150 ha        1 1NY      0.125000
     35 H6         -2.4870    0.5320    1.7840 hn        1 1NY      0.306500
     36 H7         -4.4230    1.7610   -1.6680 ha        1 1NY      0.164000
     37 H8         -4.4180   -0.9360    1.7100 ha        1 1NY      0.142000
     38 H9         -6.8510   -0.6110    1.9860 ha        1 1NY      0.132000
     39 H10        -8.8880   -1.1350    0.0200 hc        1 1NY      0.037700
     40 H11       -10.3440   -0.0610   -0.1260 hc        1 1NY      0.037700
     41 H12        -9.0390    0.0010   -1.3880 hc        1 1NY      0.037700
     42 H13        -8.2630    1.4610    2.6090 hc        1 1NY      0.037700
     43 H14        -8.8960   -0.2140    2.3080 hc        1 1NY      0.037700
     44 H15        -9.9850    1.2120    2.0920 hc        1 1NY      0.037700
     45 H16       -10.0840    2.3380   -0.1190 hc        1 1NY      0.051200
     46 H17        -8.7170    3.1130    0.7800 hc        1 1NY      0.051200
     47 H18        -8.9030    3.4150   -1.9210 ha        1 1NY      0.127000
     48 H21        -5.8410    0.7250   -3.4300 ha        1 1NY      0.138500
     49 H22        -4.8750    1.4320   -5.6140 ha        1 1NY      0.131500
     50 H23        -4.9710    3.8280   -6.3100 ha        1 1NY      0.129000
     51 H24        -6.0380    5.5160   -4.8120 ha        1 1NY      0.131500
     52 H25        -7.0100    4.8120   -2.6300 ha        1 1NY      0.138500
@<TRIPOS>BOND
     1    1    2 ar  
     2    1    9 ar  
     3    1   31 1   
     4    2    3 ar  
     5    2   32 1   
     6    3    4 1   
     7    3    7 ar  
     8    4    5 1   
     9    4    6 1   
    10    7    8 ar  
    11    7   33 1   
    12    8    9 ar  
    13    8   34 1   
    14    9   10 1   
    15   10   11 1   
    16   10   35 1   
    17   11   12 2   
    18   11   13 1   
    19   13   14 ar  
    20   13   16 ar  
    21   14   15 ar  
    22   14   36 1   
    23   15   18 ar  
    24   15   24 1   
    25   16   17 ar  
    26   16   37 1   
    27   17   18 ar  
    28   17   38 1   
    29   18   19 1   
    30   19   20 1   
    31   19   21 1   
    32   19   22 1   
    33   20   39 1   
    34   20   40 1   
    35   20   41 1   
    36   21   42 1   
    37   21   43 1   
    38   21   44 1   
    39   22   23 1   
    40   22   45 1   
    41   22   46 1   
    42   23   24 2   
    43   23   47 1   
    44   24   25 1   
    45   25   26 ar  
    46   25   30 ar  
    47   26   27 ar  
    48   26   48 1   
    49   27   28 ar  
    50   27   49 1   
    51   28   29 ar  
    52   28   50 1   
    53   29   30 ar  
    54   29   51 1   
    55   30   52 1   
@<TRIPOS>SUBSTRUCTURE
     1 1NY         1 TEMP              0 ****  ****    0 ROOT
