@<TRIPOS>MOLECULE
1NY
   52    55     1     0     0
SMALL
bcc


@<TRIPOS>ATOM
      1 CAN         0.1990   -0.2560   -0.0300 ca        1 1NY     -0.186500
      2 CAP         1.5770   -0.3660    0.1540 ca        1 1NY     -0.090500
      3 CBA         2.1740   -0.0490    1.3740 ca        1 1NY     -0.135600
      4 CAU         3.6770   -0.1800    1.5670 c         1 1NY      0.909200
      5 OAE         4.3670   -0.5840    0.5890 o         1 1NY     -0.831800
      6 OAC         4.1550    0.1220    2.6980 o         1 1NY     -0.831800
      7 CAQ         1.3640    0.3920    2.4260 ca        1 1NY     -0.090500
      8 CAO        -0.0110    0.5120    2.2680 ca        1 1NY     -0.186500
      9 CAZ        -0.6160    0.1830    1.0300 ca        1 1NY      0.015600
     10 NAT        -2.0220    0.2930    0.9330 n         1 1NY     -0.452100
     11 CAW        -2.7990    0.2280   -0.2030 c         1 1NY      0.667700
     12 OAD        -2.3610    0.0270   -1.3530 o         1 1NY     -0.598100
     13 CAV        -4.2720    0.4160    0.0150 ca        1 1NY     -0.139600
     14 CAH        -4.9730    1.2510   -0.8580 ca        1 1NY     -0.070000
     15 CAX        -6.3540    1.4350   -0.7140 ca        1 1NY     -0.055800
     16 CAF        -4.9530   -0.2520    1.0340 ca        1 1NY     -0.105000
     17 CAG        -6.3260   -0.0680    1.1860 ca        1 1NY     -0.141000
     18 CBC        -7.0380    0.7820    0.3340 ca        1 1NY     -0.048300
     19 CBD        -8.5230    0.9650    0.5060 c3        1 1NY     -0.005700
     20 CAA        -9.2430   -0.1220   -0.2890 c3        1 1NY     -0.086100
     21 CAB        -8.9340    0.8550    1.9720 c3        1 1NY     -0.086100
     22 CAS        -8.9660    2.3450    0.0040 c3        1 1NY     -0.040200
     23 CAR        -8.3280    2.7400   -1.2700 c2        1 1NY     -0.157200
     24 CAY        -7.0950    2.3150   -1.6180 ce        1 1NY     -0.004400
     25 CBB        -6.4970    2.7200   -2.8920 ca        1 1NY     -0.053800
     26 CAL        -5.8970    1.7760   -3.7390 ca        1 1NY     -0.116500
     27 CAJ        -5.3580    2.1720   -4.9610 ca        1 1NY     -0.130500
     28 CAI        -5.4100    3.5100   -5.3520 ca        1 1NY     -0.128000
     29 CAK        -6.0040    4.4540   -4.5160 ca        1 1NY     -0.130500
     30 CAM        -6.5470    4.0630   -3.2930 ca        1 1NY     -0.116500
     31 H1         -0.2410   -0.5110   -1.0060 ha        1 1NY      0.125000
     32 H2          2.2240   -0.7090   -0.6700 ha        1 1NY      0.154000
     33 H4          1.8470    0.6420    3.3850 ha        1 1NY      0.154000
     34 H5         -0.6220    0.8620    3.1130 ha        1 1NY      0.125000
     35 H6         -2.4840    0.5320    1.7820 hn        1 1NY      0.306500
     36 H7         -4.4240    1.7590   -1.6690 ha        1 1NY      0.164000
     37 H8         -4.4170   -0.9340    1.7120 ha        1 1NY      0.142000
     38 H9         -6.8480   -0.6060    1.9910 ha        1 1NY      0.132000
     39 H10        -9.0410    0.0030   -1.3800 hc        1 1NY      0.037700
     40 H11       -10.3440   -0.0560   -0.1160 hc        1 1NY      0.037700
     41 H12        -8.8890   -1.1310    0.0290 hc        1 1NY      0.037700
     42 H13        -8.8930   -0.2060    2.3160 hc        1 1NY      0.037700
     43 H14        -9.9810    1.2200    2.1000 hc        1 1NY      0.037700
     44 H15        -8.2580    1.4680    2.6140 hc        1 1NY      0.037700
     45 H16        -8.7140    3.1180    0.7830 hc        1 1NY      0.051200
     46 H17       -10.0830    2.3420   -0.1130 hc        1 1NY      0.051200
     47 H18        -8.9030    3.4170   -1.9190 ha        1 1NY      0.127000
     48 H21        -5.8460    0.7210   -3.4280 ha        1 1NY      0.138500
     49 H22        -4.8820    1.4250   -5.6140 ha        1 1NY      0.131500
     50 H23        -4.9770    3.8200   -6.3140 ha        1 1NY      0.129000
     51 H24        -6.0410    5.5110   -4.8170 ha        1 1NY      0.131500
     52 H25        -7.0100    4.8110   -2.6320 ha        1 1NY      0.138500
@<TRIPOS>BOND
     1    1    2 ar  
     2    1    9 ar  
     3    1   31 1   
     4    2    3 ar  
     5    2   32 1   
     6    3    4 1   
     7    3    7 ar  
     8    4    5 1   
     9    4    6 1   
    10    7    8 ar  
    11    7   33 1   
    12    8    9 ar  
    13    8   34 1   
    14    9   10 1   
    15   10   11 1   
    16   10   35 1   
    17   11   12 2   
    18   11   13 1   
    19   13   14 ar  
    20   13   16 ar  
    21   14   15 ar  
    22   14   36 1   
    23   15   18 ar  
    24   15   24 1   
    25   16   17 ar  
    26   16   37 1   
    27   17   18 ar  
    28   17   38 1   
    29   18   19 1   
    30   19   20 1   
    31   19   21 1   
    32   19   22 1   
    33   20   39 1   
    34   20   40 1   
    35   20   41 1   
    36   21   42 1   
    37   21   43 1   
    38   21   44 1   
    39   22   23 1   
    40   22   45 1   
    41   22   46 1   
    42   23   24 2   
    43   23   47 1   
    44   24   25 1   
    45   25   26 ar  
    46   25   30 ar  
    47   26   27 ar  
    48   26   48 1   
    49   27   28 ar  
    50   27   49 1   
    51   28   29 ar  
    52   28   50 1   
    53   29   30 ar  
    54   29   51 1   
    55   30   52 1   
@<TRIPOS>SUBSTRUCTURE
     1 1NY         1 TEMP              0 ****  ****    0 ROOT
