@<TRIPOS>MOLECULE
1NZ
   55    60     1     0     0
SMALL
bcc


@<TRIPOS>ATOM
      1 C1          0.0430   -0.3090   -0.1390 ca        1 1NZ      0.192900
      2 C2          1.4370   -0.1480   -0.1570 ca        1 1NZ     -0.219500
      3 C3          2.0610    0.5080    0.9160 ca        1 1NZ      0.194900
      4 C4          1.3070    1.0080    1.9900 ca        1 1NZ     -0.219500
      5 C5         -0.0860    0.8310    1.9890 ca        1 1NZ      0.192900
      6 C6         -0.7430    0.1590    0.9360 ca        1 1NZ     -0.211300
      7 C7         -2.2370   -0.0010    0.9290 c3        1 1NZ      0.271100
      8 N8         -3.5930   -3.2100   -0.3270 nc        1 1NZ     -0.669100
      9 C9         -3.0990   -2.0110   -0.2060 cd        1 1NZ      0.676100
     10 N10        -2.7190   -1.3630    0.9770 na        1 1NZ     -0.641000
     11 C11        -2.8660   -2.0680    2.1840 ca        1 1NZ      0.182600
     12 C12        -3.4110   -3.3820    2.1430 ca        1 1NZ     -0.208600
     13 C13        -3.6030   -4.1050    3.3240 ca        1 1NZ     -0.061000
     14 C14        -3.2330   -3.5390    4.5420 ca        1 1NZ      0.040100
     15 C15        -2.6780   -2.2510    4.6030 ca        1 1NZ     -0.064000
     16 C16        -2.5010   -1.5220    3.4380 ca        1 1NZ     -0.180000
     17 C17        -3.7860   -3.9960    0.8400 c         1 1NZ      0.700100
     18 O18        -4.2410   -5.1470    0.7650 o         1 1NZ     -0.522100
     19 F19        -4.1600   -5.4310    9.4220 f         1 1NZ     -0.225633
     20 O20        -3.5300   -4.1500    5.7620 os        1 1NZ     -0.225200
     21 C21        -2.9470   -5.3830    6.0100 ca        1 1NZ      0.159100
     22 C22        -1.9660   -5.9570    5.1910 ca        1 1NZ     -0.178000
     23 C23        -1.4270   -7.1920    5.5320 ca        1 1NZ     -0.074000
     24 C24        -1.8670   -7.8600    6.6730 ca        1 1NZ     -0.129000
     25 C25        -2.8530   -7.2890    7.4890 ca        1 1NZ     -0.038900
     26 C26        -3.3910   -6.0300    7.1830 ca        1 1NZ     -0.153300
     27 C27        -4.4230   -5.3400    8.0760 c3        1 1NZ      0.702200
     28 F28         3.4030    0.6660    0.9120 f         1 1NZ     -0.118900
     29 F29        -5.7040   -5.8070    7.9280 f         1 1NZ     -0.225633
     30 F30        -4.5360   -3.9860    7.8740 f         1 1NZ     -0.225633
     31 F31        -0.5540   -0.9160   -1.1910 f         1 1NZ     -0.126900
     32 F32        -0.8000    1.3320    3.0240 f         1 1NZ     -0.126900
     33 C33        -3.2990   -8.0700    8.6410 cc        1 1NZ      0.578200
     34 O34        -2.2410   -8.6720    9.3930 os        1 1NZ     -0.294700
     35 N35        -4.5200   -8.3550    9.0750 nd        1 1NZ     -0.574700
     36 C36        -4.3270   -9.2030   10.2070 ca        1 1NZ      0.519300
     37 C37        -2.8990   -9.3850   10.3850 ca        1 1NZ     -0.079200
     38 C38        -2.3840  -10.1630   11.4130 ca        1 1NZ     -0.072000
     39 C39        -3.3360  -10.7490   12.2460 ca        1 1NZ     -0.227300
     40 C40        -4.7170  -10.5330   12.0140 ca        1 1NZ      0.383200
     41 N41        -5.2410   -9.7850   11.0290 nb        1 1NZ     -0.585000
     42 H1          2.0300   -0.5290   -1.0020 ha        1 1NZ      0.177500
     43 H2          1.7990    1.5320    2.8220 ha        1 1NZ      0.177500
     44 H3         -2.6800    0.5690    1.7970 h1        1 1NZ      0.081200
     45 H4         -2.6240    0.4710   -0.0240 h1        1 1NZ      0.081200
     46 H5         -2.9460   -1.4200   -1.1390 h5        1 1NZ      0.061800
     47 H6         -4.0470   -5.1150    3.2720 ha        1 1NZ      0.180000
     48 H7         -2.4040   -1.8230    5.5800 ha        1 1NZ      0.162000
     49 H8         -2.0660   -0.5130    3.5070 ha        1 1NZ      0.151000
     50 H9         -1.6270   -5.4310    4.2840 ha        1 1NZ      0.160000
     51 H10        -0.6520   -7.6460    4.8950 ha        1 1NZ      0.150000
     52 H11        -1.4440   -8.8410    6.9420 ha        1 1NZ      0.159000
     53 H12        -1.3050  -10.3030   11.5570 ha        1 1NZ      0.158000
     54 H13        -3.0230  -11.3820   13.0880 ha        1 1NZ      0.151000
     55 H14        -5.4640  -11.0030   12.6800 h4        1 1NZ      0.032100
@<TRIPOS>BOND
     1    1    2 ar  
     2    1    6 ar  
     3    1   31 1   
     4    2    3 ar  
     5    2   42 1   
     6    3    4 ar  
     7    3   28 1   
     8    4    5 ar  
     9    4   43 1   
    10    5    6 ar  
    11    5   32 1   
    12    6    7 1   
    13    7   10 1   
    14    7   44 1   
    15    7   45 1   
    16    8    9 2   
    17    8   17 1   
    18    9   10 1   
    19    9   46 1   
    20   10   11 1   
    21   11   12 ar  
    22   11   16 ar  
    23   12   13 ar  
    24   12   17 1   
    25   13   14 ar  
    26   13   47 1   
    27   14   15 ar  
    28   14   20 1   
    29   15   16 ar  
    30   15   48 1   
    31   16   49 1   
    32   17   18 2   
    33   19   27 1   
    34   20   21 1   
    35   21   22 ar  
    36   21   26 ar  
    37   22   23 ar  
    38   22   50 1   
    39   23   24 ar  
    40   23   51 1   
    41   24   25 ar  
    42   24   52 1   
    43   25   26 ar  
    44   25   33 1   
    45   26   27 1   
    46   27   29 1   
    47   27   30 1   
    48   33   34 1   
    49   33   35 2   
    50   34   37 1   
    51   35   36 1   
    52   36   37 ar  
    53   36   41 ar  
    54   37   38 ar  
    55   38   39 ar  
    56   38   53 1   
    57   39   40 ar  
    58   39   54 1   
    59   40   41 ar  
    60   40   55 1   
@<TRIPOS>SUBSTRUCTURE
     1 1NZ         1 TEMP              0 ****  ****    0 ROOT
