@<TRIPOS>MOLECULE
1NZ
   55    60     1     0     0
SMALL
bcc


@<TRIPOS>ATOM
      1 C1          0.0510   -0.2960   -0.1220 ca        1 1NZ      0.192900
      2 C2          1.4440   -0.1200   -0.1240 ca        1 1NZ     -0.219500
      3 C3          2.0480    0.5450    0.9560 ca        1 1NZ      0.194900
      4 C4          1.2750    1.0390    2.0190 ca        1 1NZ     -0.219500
      5 C5         -0.1160    0.8460    2.0010 ca        1 1NZ      0.192900
      6 C6         -0.7530    0.1650    0.9420 ca        1 1NZ     -0.211300
      7 C7         -2.2440   -0.0120    0.9170 c3        1 1NZ      0.271100
      8 N8         -3.5500   -3.2380   -0.3480 nc        1 1NZ     -0.669100
      9 C9         -3.0700   -2.0340   -0.2240 cd        1 1NZ      0.676100
     10 N10        -2.7120   -1.3790    0.9620 na        1 1NZ     -0.641000
     11 C11        -2.8650   -2.0830    2.1680 ca        1 1NZ      0.182600
     12 C12        -3.3960   -3.4040    2.1240 ca        1 1NZ     -0.208600
     13 C13        -3.5940   -4.1260    3.3040 ca        1 1NZ     -0.060000
     14 C14        -3.2450   -3.5540    4.5250 ca        1 1NZ      0.039100
     15 C15        -2.7050   -2.2600    4.5910 ca        1 1NZ     -0.064000
     16 C16        -2.5220   -1.5310    3.4260 ca        1 1NZ     -0.180000
     17 C17        -3.7470   -4.0240    0.8180 c         1 1NZ      0.700100
     18 O18        -4.1890   -5.1800    0.7400 o         1 1NZ     -0.522100
     19 F19        -4.1990   -5.4390    9.4020 f         1 1NZ     -0.225633
     20 O20        -3.5490   -4.1660    5.7430 os        1 1NZ     -0.225200
     21 C21        -2.9520   -5.3890    6.0030 ca        1 1NZ      0.159100
     22 C22        -1.9540   -5.9530    5.1960 ca        1 1NZ     -0.178000
     23 C23        -1.4020   -7.1790    5.5480 ca        1 1NZ     -0.074000
     24 C24        -1.8450   -7.8480    6.6880 ca        1 1NZ     -0.129000
     25 C25        -2.8470   -7.2870    7.4910 ca        1 1NZ     -0.038900
     26 C26        -3.3990   -6.0370    7.1740 ca        1 1NZ     -0.153300
     27 C27        -4.4500   -5.3580    8.0530 c3        1 1NZ      0.702200
     28 F28         3.3880    0.7180    0.9680 f         1 1NZ     -0.118900
     29 F29        -5.7220   -5.8430    7.8940 f         1 1NZ     -0.225633
     30 F30        -4.5790   -4.0060    7.8440 f         1 1NZ     -0.225633
     31 F31        -0.5250   -0.9130   -1.1800 f         1 1NZ     -0.126900
     32 F32        -0.8480    1.3420    3.0270 f         1 1NZ     -0.126900
     33 C33        -3.2940   -8.0690    8.6420 cc        1 1NZ      0.578200
     34 O34        -2.2350   -8.6540    9.4070 os        1 1NZ     -0.294700
     35 N35        -4.5150   -8.3690    9.0650 nd        1 1NZ     -0.574700
     36 C36        -4.3220   -9.2100   10.2020 ca        1 1NZ      0.519300
     37 C37        -2.8930   -9.3710   10.3960 ca        1 1NZ     -0.079200
     38 C38        -2.3790  -10.1370   11.4330 ca        1 1NZ     -0.072000
     39 C39        -3.3310  -10.7330   12.2580 ca        1 1NZ     -0.227300
     40 C40        -4.7120  -10.5370   12.0110 ca        1 1NZ      0.383200
     41 N41        -5.2360   -9.8000   11.0170 nb        1 1NZ     -0.585000
     42 H1          2.0510   -0.4960   -0.9600 ha        1 1NZ      0.177500
     43 H2          1.7510    1.5700    2.8560 ha        1 1NZ      0.177500
     44 H3         -2.7040    0.5550    1.7790 h1        1 1NZ      0.081200
     45 H4         -2.6260    0.4540   -0.0410 h1        1 1NZ      0.081200
     46 H5         -2.9130   -1.4430   -1.1570 h5        1 1NZ      0.061800
     47 H6         -4.0250   -5.1410    3.2490 ha        1 1NZ      0.180000
     48 H7         -2.4480   -1.8260    5.5700 ha        1 1NZ      0.162000
     49 H8         -2.0990   -0.5170    3.4980 ha        1 1NZ      0.151000
     50 H9         -1.6140   -5.4270    4.2910 ha        1 1NZ      0.160000
     51 H10        -0.6150   -7.6260    4.9210 ha        1 1NZ      0.150000
     52 H11        -1.4110   -8.8220    6.9650 ha        1 1NZ      0.159000
     53 H12        -1.2990  -10.2610   11.5890 ha        1 1NZ      0.158000
     54 H13        -3.0170  -11.3580   13.1060 ha        1 1NZ      0.151000
     55 H14        -5.4600  -11.0140   12.6720 h4        1 1NZ      0.032100
@<TRIPOS>BOND
     1    1    2 ar  
     2    1    6 ar  
     3    1   31 1   
     4    2    3 ar  
     5    2   42 1   
     6    3    4 ar  
     7    3   28 1   
     8    4    5 ar  
     9    4   43 1   
    10    5    6 ar  
    11    5   32 1   
    12    6    7 1   
    13    7   10 1   
    14    7   44 1   
    15    7   45 1   
    16    8    9 2   
    17    8   17 1   
    18    9   10 1   
    19    9   46 1   
    20   10   11 1   
    21   11   12 ar  
    22   11   16 ar  
    23   12   13 ar  
    24   12   17 1   
    25   13   14 ar  
    26   13   47 1   
    27   14   15 ar  
    28   14   20 1   
    29   15   16 ar  
    30   15   48 1   
    31   16   49 1   
    32   17   18 2   
    33   19   27 1   
    34   20   21 1   
    35   21   22 ar  
    36   21   26 ar  
    37   22   23 ar  
    38   22   50 1   
    39   23   24 ar  
    40   23   51 1   
    41   24   25 ar  
    42   24   52 1   
    43   25   26 ar  
    44   25   33 1   
    45   26   27 1   
    46   27   29 1   
    47   27   30 1   
    48   33   34 1   
    49   33   35 2   
    50   34   37 1   
    51   35   36 1   
    52   36   37 ar  
    53   36   41 ar  
    54   37   38 ar  
    55   38   39 ar  
    56   38   53 1   
    57   39   40 ar  
    58   39   54 1   
    59   40   41 ar  
    60   40   55 1   
@<TRIPOS>SUBSTRUCTURE
     1 1NZ         1 TEMP              0 ****  ****    0 ROOT
