@<TRIPOS>MOLECULE
1NZ
   55    44     1     0     0
SMALL
bcc


@<TRIPOS>ATOM
      1 C1          0.3210    5.2080   -4.9480 c1        1 1NZ      0.163000
      2 C2          0.2580    6.0960   -6.0280 c1        1 1NZ     -0.225000
      3 C3          1.1920    7.1210   -6.1410 c1        1 1NZ      0.167000
      4 C4          2.1930    7.2640   -5.1760 c2        1 1NZ     -0.225000
      5 C5          2.2570    6.3790   -4.0980 c1        1 1NZ      0.165000
      6 C6          1.3240    5.3520   -3.9830 c1        1 1NZ     -0.216000
      7 C7          1.3520    4.4040   -2.7290 c3        1 1NZ      0.028000
      8 N8          0.2540    1.4220   -4.8260 n1        1 1NZ     -0.245000
      9 C9          0.7960    2.7050   -4.4680 c1        1 1NZ      0.109000
     10 N10         0.8110    3.1250   -3.0830 n2        1 1NZ     -0.246000
     11 C11         0.2730    2.2410   -2.0420 c1        1 1NZ      0.103000
     12 C12        -0.2470    1.0120   -2.3830 c1        1 1NZ     -0.101500
     13 C13        -0.6230    0.0940   -1.3690 c1        1 1NZ     -0.055500
     14 C14        -0.4670    0.4370   -0.0220 c1        1 1NZ     -0.101500
     15 C15         0.0600    1.6830    0.3270 c1        1 1NZ     -0.055500
     16 C16         0.4320    2.5890   -0.6720 c1        1 1NZ     -0.183000
     17 C17        -0.2620    0.5750   -3.8300 c1        1 1NZ      0.302000
     18 O18        -0.7220   -0.5160   -4.1330 o         1 1NZ     -0.286000
     19 F19        -2.2090   -1.9810    4.3630 f         1 1NZ     -0.154000
     20 O20        -0.9980   -0.1080    1.1950 o         1 1NZ     -0.136000
     21 C21        -0.2330   -1.2150    1.5860 c2        1 1NZ      0.115000
     22 C22         1.0900   -1.3080    1.1990 c2        1 1NZ     -0.178000
     23 C23         1.8980   -2.3070    1.7230 c1        1 1NZ     -0.074000
     24 C24         1.3750   -3.2220    2.6440 c1        1 1NZ     -0.130000
     25 C25         0.0510   -3.1320    3.0350 c1        1 1NZ      0.045000
     26 C26        -0.7590   -2.1370    2.5140 c1        1 1NZ     -0.147000
     27 C27        -2.1930   -1.9890    3.0050 c2        1 1NZ      0.481000
     28 F28         1.2130    7.8920   -7.2470 f         1 1NZ     -0.081000
     29 F29        -2.9370   -3.0310    2.5510 f         1 1NZ     -0.154000
     30 F30        -2.7050   -0.8350    2.5430 f         1 1NZ     -0.154000
     31 F31        -0.6080    4.2360   -4.8180 f         1 1NZ     -0.082000
     32 F32         3.2560    6.4730   -3.2170 f         1 1NZ     -0.083000
     33 C33        -0.5430   -4.1880    3.9890 c1        1 1NZ      0.073000
     34 O34        -0.8920   -5.4320    3.5340 os        1 1NZ     -0.114000
     35 N35        -0.7040   -4.1730    5.3470 n2        1 1NZ     -0.071000
     36 C36        -1.1520   -5.4090    5.7340 c1        1 1NZ     -0.029000
     37 C37        -1.2680   -6.1870    4.6120 c1        1 1NZ     -0.059000
     38 C38        -1.7370   -7.4900    4.7170 c1        1 1NZ     -0.072000
     39 C39        -2.0830   -7.9970    5.9430 c1        1 1NZ     -0.122000
     40 C40        -1.9650   -7.2060    7.0820 c1        1 1NZ     -0.122000
     41 N41        -1.5040   -5.9250    6.9780 n1        1 1NZ     -0.061000
     42 H1         -0.4570    5.9930   -6.7190 ha        1 1NZ      0.180000
     43 H2          2.8530    7.9900   -5.2560 ha        1 1NZ      0.179000
     44 H3          0.8080    4.8050   -1.9980 h1        1 1NZ      0.114000
     45 H4          2.2930    4.2920   -2.4200 h1        1 1NZ      0.114000
     46 H5          1.1530    3.2900   -5.1550 ha        1 1NZ      0.188000
     47 H6         -1.0030   -0.8010   -1.6190 ha        1 1NZ      0.170500
     48 H7          0.1710    1.9270    1.2900 ha        1 1NZ      0.170500
     49 H8          0.8000    3.4550   -0.4300 ha        1 1NZ      0.145000
     50 H9          1.4720   -0.6460    0.5320 ha        1 1NZ      0.160000
     51 H10         2.8230   -2.3720    1.4520 ha        1 1NZ      0.150000
     52 H11         1.9410   -3.9190    3.0090 ha        1 1NZ      0.158000
     53 H12        -1.8200   -8.0450    3.9180 ha        1 1NZ      0.159000
     54 H13        -2.4130   -8.9150    6.0180 ha        1 1NZ      0.160000
     55 H14        -2.2160   -7.5730    7.9700 ha        1 1NZ      0.160000
@<TRIPOS>BOND
     1    1    6 1   
     2    1   31 1   
     3    2    3 1   
     4    2   42 1   
     5    3    4 1   
     6    4    5 1   
     7    4   43 1   
     8    5   32 1   
     9    6    7 1   
    10    7   10 1   
    11    7   44 1   
    12    7   45 1   
    13    8    9 1   
    14    9   46 1   
    15   10   11 1   
    16   11   16 1   
    17   12   13 1   
    18   13   47 1   
    19   14   15 1   
    20   15   48 1   
    21   16   49 1   
    22   17   18 1   
    23   19   27 1   
    24   20   21 1   
    25   21   22 1   
    26   21   26 1   
    27   22   23 1   
    28   22   50 1   
    29   23   51 1   
    30   24   25 1   
    31   24   52 1   
    32   25   26 1   
    33   27   29 1   
    34   27   30 1   
    35   33   34 1   
    36   33   35 1   
    37   34   37 1   
    38   35   36 1   
    39   36   41 1   
    40   37   38 1   
    41   38   53 1   
    42   39   40 1   
    43   39   54 1   
    44   40   55 1   
@<TRIPOS>SUBSTRUCTURE
     1 1NZ         1 TEMP              0 ****  ****    0 ROOT
