@<TRIPOS>MOLECULE
1NZ
   55    60     1     0     0
SMALL
bcc


@<TRIPOS>ATOM
      1 C1          6.8810    0.6960    0.4610 ca        1 1NZ      0.192900
      2 C2          7.3480    1.9800    0.7800 ca        1 1NZ     -0.219500
      3 C3          7.1270    3.0300   -0.1250 ca        1 1NZ      0.194900
      4 C4          6.4580    2.8040   -1.3380 ca        1 1NZ     -0.219500
      5 C5          5.9950    1.5120   -1.6340 ca        1 1NZ      0.192900
      6 C6          6.1830    0.4380   -0.7380 ca        1 1NZ     -0.211300
      7 C7          5.7100   -0.9470   -1.0740 c3        1 1NZ      0.271100
      8 N8          4.2810   -2.9680    1.6810 nc        1 1NZ     -0.669100
      9 C9          5.0680   -2.3610    0.8400 cd        1 1NZ      0.676100
     10 N10         4.6990   -1.4920   -0.1960 na        1 1NZ     -0.641000
     11 C11         3.3310   -1.2180   -0.3610 ca        1 1NZ      0.182600
     12 C12         2.3990   -1.8510    0.5090 ca        1 1NZ     -0.208600
     13 C13         1.0270   -1.6300    0.3590 ca        1 1NZ     -0.060000
     14 C14         0.5770   -0.7640   -0.6360 ca        1 1NZ      0.040100
     15 C15         1.4800   -0.1160   -1.4940 ca        1 1NZ     -0.064000
     16 C16         2.8400   -0.3450   -1.3610 ca        1 1NZ     -0.180000
     17 C17         2.8800   -2.7580    1.5870 c         1 1NZ      0.700100
     18 O18         2.0990   -3.3080    2.3780 o         1 1NZ     -0.522100
     19 F19        -4.4380    0.1300   -2.1510 f         1 1NZ     -0.225633
     20 O20        -0.7800   -0.6130   -0.9270 os        1 1NZ     -0.225200
     21 C21        -1.5870   -0.0910    0.0700 ca        1 1NZ      0.159100
     22 C22        -1.0930    0.4370    1.2710 ca        1 1NZ     -0.178000
     23 C23        -1.9810    0.9560    2.2060 ca        1 1NZ     -0.074000
     24 C24        -3.3520    0.9410    1.9570 ca        1 1NZ     -0.129000
     25 C25        -3.8470    0.4070    0.7600 ca        1 1NZ     -0.038900
     26 C26        -2.9690   -0.0950   -0.2130 ca        1 1NZ     -0.153300
     27 C27        -3.4570   -0.6300   -1.5600 c3        1 1NZ      0.702200
     28 F28         7.5690    4.2720    0.1720 f         1 1NZ     -0.118900
     29 F29        -3.9670   -1.9020   -1.5130 f         1 1NZ     -0.225633
     30 F30        -2.4880   -0.6940   -2.5320 f         1 1NZ     -0.225633
     31 F31         7.1250   -0.3160    1.3260 f         1 1NZ     -0.126900
     32 F32         5.3640    1.3080   -2.8150 f         1 1NZ     -0.126900
     33 C33        -5.2980    0.3820    0.5900 cc        1 1NZ      0.578200
     34 O34        -5.9590    1.5930    0.9700 os        1 1NZ     -0.294700
     35 N35        -6.1070   -0.5920    0.1930 nd        1 1NZ     -0.574700
     36 C36        -7.4240   -0.0460    0.2850 ca        1 1NZ      0.519300
     37 C37        -7.3040    1.3160    0.7700 ca        1 1NZ     -0.079200
     38 C38        -8.4180    2.1220    0.9640 ca        1 1NZ     -0.072000
     39 C39        -9.6410    1.5240    0.6640 ca        1 1NZ     -0.227300
     40 C40        -9.6870    0.1880    0.1970 ca        1 1NZ      0.383200
     41 N41        -8.6260   -0.6130   -0.0010 nb        1 1NZ     -0.585000
     42 H1          7.8820    2.1590    1.7250 ha        1 1NZ      0.177500
     43 H2          6.2970    3.6270   -2.0500 ha        1 1NZ      0.177500
     44 H3          5.3140   -0.9630   -2.1320 h1        1 1NZ      0.081200
     45 H4          6.6090   -1.6330   -1.0350 h1        1 1NZ      0.081200
     46 H5          6.1650   -2.5330    0.9440 h5        1 1NZ      0.061800
     47 H6          0.3200   -2.1470    1.0320 ha        1 1NZ      0.180000
     48 H7          1.0970    0.5550   -2.2800 ha        1 1NZ      0.162000
     49 H8          3.5310    0.1710   -2.0460 ha        1 1NZ      0.151000
     50 H9         -0.0100    0.4380    1.4700 ha        1 1NZ      0.160000
     51 H10        -1.6000    1.3770    3.1500 ha        1 1NZ      0.150000
     52 H11        -4.0570    1.3480    2.7000 ha        1 1NZ      0.159000
     53 H12        -8.3370    3.1540    1.3270 ha        1 1NZ      0.158000
     54 H13       -10.5780    2.0860    0.7860 ha        1 1NZ      0.151000
     55 H14       -10.6620   -0.2770   -0.0390 h4        1 1NZ      0.032100
@<TRIPOS>BOND
     1    1    2 ar  
     2    1    6 ar  
     3    1   31 1   
     4    2    3 ar  
     5    2   42 1   
     6    3    4 ar  
     7    3   28 1   
     8    4    5 ar  
     9    4   43 1   
    10    5    6 ar  
    11    5   32 1   
    12    6    7 1   
    13    7   10 1   
    14    7   44 1   
    15    7   45 1   
    16    8    9 2   
    17    8   17 1   
    18    9   10 1   
    19    9   46 1   
    20   10   11 1   
    21   11   12 ar  
    22   11   16 ar  
    23   12   13 ar  
    24   12   17 1   
    25   13   14 ar  
    26   13   47 1   
    27   14   15 ar  
    28   14   20 1   
    29   15   16 ar  
    30   15   48 1   
    31   16   49 1   
    32   17   18 2   
    33   19   27 1   
    34   20   21 1   
    35   21   22 ar  
    36   21   26 ar  
    37   22   23 ar  
    38   22   50 1   
    39   23   24 ar  
    40   23   51 1   
    41   24   25 ar  
    42   24   52 1   
    43   25   26 ar  
    44   25   33 1   
    45   26   27 1   
    46   27   29 1   
    47   27   30 1   
    48   33   34 1   
    49   33   35 2   
    50   34   37 1   
    51   35   36 1   
    52   36   37 ar  
    53   36   41 ar  
    54   37   38 ar  
    55   38   39 ar  
    56   38   53 1   
    57   39   40 ar  
    58   39   54 1   
    59   40   41 ar  
    60   40   55 1   
@<TRIPOS>SUBSTRUCTURE
     1 1NZ         1 TEMP              0 ****  ****    0 ROOT
