@<TRIPOS>MOLECULE
1O0
   53    57     1     0     0
SMALL
bcc


@<TRIPOS>ATOM
      1 C1         -0.0440   -0.2640   -0.1760 ca        1 1O0      0.192900
      2 C2          1.3430   -0.0580   -0.2380 ca        1 1O0     -0.219500
      3 C3          1.9750    0.6460    0.7990 ca        1 1O0      0.193900
      4 C4          1.2350    1.1500    1.8810 ca        1 1O0     -0.219500
      5 C5         -0.1510    0.9270    1.9250 ca        1 1O0      0.192900
      6 C6         -0.8140    0.2060    0.9090 ca        1 1O0     -0.210300
      7 C7         -2.3010   -0.0060    0.9500 c3        1 1O0      0.272100
      8 N8         -3.5820   -3.2890   -0.1860 nc        1 1O0     -0.671100
      9 C9         -3.1260   -2.0710   -0.1100 cd        1 1O0      0.676100
     10 N10        -2.7340   -1.3810    1.0450 na        1 1O0     -0.641000
     11 C11        -2.8180   -2.0610    2.2720 ca        1 1O0      0.176600
     12 C12        -3.3170   -3.3940    2.2800 ca        1 1O0     -0.204600
     13 C13        -3.4450   -4.0950    3.4820 ca        1 1O0     -0.068000
     14 C14        -3.0580   -3.4880    4.6750 ca        1 1O0      0.050100
     15 C15        -2.5480   -2.1790    4.6880 ca        1 1O0     -0.069000
     16 C16        -2.4350   -1.4730    3.5010 ca        1 1O0     -0.178000
     17 C17        -3.7110   -4.0520    1.0040 c         1 1O0      0.700100
     18 O18        -4.1310   -5.2180    0.9700 o         1 1O0     -0.523100
     19 F19        -4.1540   -5.5320    9.4900 f         1 1O0     -0.231300
     20 O20        -3.2800   -4.0720    5.9220 os        1 1O0     -0.229200
     21 C21        -2.7720   -5.3480    6.1230 ca        1 1O0      0.157100
     22 C22        -1.8000   -5.9290    5.3010 ca        1 1O0     -0.191000
     23 C23        -1.3260   -7.2020    5.6030 ca        1 1O0     -0.071000
     24 C24        -1.8170   -7.8890    6.7090 ca        1 1O0     -0.155000
     25 C25        -2.7910   -7.3100    7.5360 cp        1 1O0     -0.058500
     26 C26        -3.2690   -6.0220    7.2600 ca        1 1O0     -0.160300
     27 C27        -4.3040   -5.3240    8.1400 c3        1 1O0      0.705200
     28 F28         3.3100    0.8490    0.7530 f         1 1O0     -0.118900
     29 F29        -5.6050   -5.6680    7.8750 f         1 1O0     -0.231300
     30 F30        -4.3000   -3.9520    8.0450 f         1 1O0     -0.231300
     31 F31        -0.6480   -0.9190   -1.1940 f         1 1O0     -0.126900
     32 F32        -0.8520    1.4320    2.9670 f         1 1O0     -0.126900
     33 C33        -3.2730   -8.1200    8.6750 cp        1 1O0      0.434800
     34 C34        -2.3250   -8.6140    9.5990 ca        1 1O0     -0.224300
     35 N35        -4.6010   -8.3890    8.7720 nb        1 1O0     -0.640000
     36 C36        -5.0020   -9.1570    9.7990 ca        1 1O0      0.402200
     37 C37        -4.1300   -9.6880   10.7690 ca        1 1O0     -0.236300
     38 C38        -2.7700   -9.4050   10.6600 ca        1 1O0     -0.094000
     39 H1          1.9250   -0.4420   -1.0890 ha        1 1O0      0.177500
     40 H2          1.7320    1.7120    2.6850 ha        1 1O0      0.177500
     41 H3         -2.7380    0.5700    1.8180 h1        1 1O0      0.080700
     42 H4         -2.7320    0.4300   -0.0010 h1        1 1O0      0.080700
     43 H5         -3.0220   -1.4990   -1.0610 h5        1 1O0      0.060800
     44 H6         -3.8490   -5.1220    3.4680 ha        1 1O0      0.180000
     45 H7         -2.2590   -1.7180    5.6460 ha        1 1O0      0.161000
     46 H8         -2.0340   -0.4480    3.5330 ha        1 1O0      0.149000
     47 H9         -1.4200   -5.3840    4.4230 ha        1 1O0      0.156000
     48 H10        -0.5630   -7.6670    4.9600 ha        1 1O0      0.145000
     49 H11        -1.4510   -8.9010    6.9370 ha        1 1O0      0.147000
     50 H12        -1.2610   -8.3690    9.4820 ha        1 1O0      0.147000
     51 H13        -6.0880   -9.3540    9.8440 h4        1 1O0      0.029100
     52 H14        -4.5210  -10.3070   11.5880 ha        1 1O0      0.146000
     53 H15        -2.0540   -9.7960   11.3980 ha        1 1O0      0.141000
@<TRIPOS>BOND
     1    1    2 ar  
     2    1    6 ar  
     3    1   31 1   
     4    2    3 ar  
     5    2   39 1   
     6    3    4 ar  
     7    3   28 1   
     8    4    5 ar  
     9    4   40 1   
    10    5    6 ar  
    11    5   32 1   
    12    6    7 1   
    13    7   10 1   
    14    7   41 1   
    15    7   42 1   
    16    8    9 2   
    17    8   17 1   
    18    9   10 1   
    19    9   43 1   
    20   10   11 1   
    21   11   12 ar  
    22   11   16 ar  
    23   12   13 ar  
    24   12   17 1   
    25   13   14 ar  
    26   13   44 1   
    27   14   15 ar  
    28   14   20 1   
    29   15   16 ar  
    30   15   45 1   
    31   16   46 1   
    32   17   18 2   
    33   19   27 1   
    34   20   21 1   
    35   21   22 ar  
    36   21   26 ar  
    37   22   23 ar  
    38   22   47 1   
    39   23   24 ar  
    40   23   48 1   
    41   24   25 ar  
    42   24   49 1   
    43   25   26 ar  
    44   25   33 1   
    45   26   27 1   
    46   27   29 1   
    47   27   30 1   
    48   33   34 ar  
    49   33   35 ar  
    50   34   38 ar  
    51   34   50 1   
    52   35   36 ar  
    53   36   37 ar  
    54   36   51 1   
    55   37   38 ar  
    56   37   52 1   
    57   38   53 1   
@<TRIPOS>SUBSTRUCTURE
     1 1O0         1 TEMP              0 ****  ****    0 ROOT
