@<TRIPOS>MOLECULE
1O0
   53    57     1     0     0
SMALL
bcc


@<TRIPOS>ATOM
      1 C1          6.2500    0.3790    0.4150 ca        1 1O0      0.192900
      2 C2          6.8400    1.6030    0.7680 ca        1 1O0     -0.219500
      3 C3          6.7120    2.6980   -0.1010 ca        1 1O0      0.193900
      4 C4          6.0140    2.5750   -1.3130 ca        1 1O0     -0.219500
      5 C5          5.4270    1.3430   -1.6430 ca        1 1O0      0.192900
      6 C6          5.5200    0.2280   -0.7840 ca        1 1O0     -0.210300
      7 C7          4.9120   -1.0940   -1.1570 c3        1 1O0      0.272100
      8 N8          3.3240   -3.0590    1.5500 nc        1 1O0     -0.671100
      9 C9          4.1580   -2.5020    0.7190 cd        1 1O0      0.676100
     10 N10         3.8630   -1.5690   -0.2830 na        1 1O0     -0.641000
     11 C11         2.5260   -1.1570   -0.4190 ca        1 1O0      0.176600
     12 C12         1.5460   -1.7250    0.4440 ca        1 1O0     -0.204600
     13 C13         0.2020   -1.3650    0.3220 ca        1 1O0     -0.068000
     14 C14        -0.1730   -0.4260   -0.6370 ca        1 1O0      0.050100
     15 C15         0.7790    0.1580   -1.4880 ca        1 1O0     -0.069000
     16 C16         2.1120   -0.2070   -1.3830 ca        1 1O0     -0.178000
     17 C17         1.9490   -2.7120    1.4830 c         1 1O0      0.700100
     18 O18         1.1270   -3.2130    2.2650 o         1 1O0     -0.523100
     19 F19        -5.2660    0.5630   -1.9230 f         1 1O0     -0.231300
     20 O20        -1.5070   -0.1190   -0.9060 os        1 1O0     -0.229200
     21 C21        -2.2890    0.2970    0.1620 ca        1 1O0      0.157100
     22 C22        -1.7580    0.7350    1.3810 ca        1 1O0     -0.191000
     23 C23        -2.6220    1.1670    2.3820 ca        1 1O0     -0.071000
     24 C24        -3.9980    1.1600    2.1740 ca        1 1O0     -0.155000
     25 C25        -4.5340    0.7230    0.9530 cp        1 1O0     -0.058500
     26 C26        -3.6810    0.3000   -0.0750 ca        1 1O0     -0.160300
     27 C27        -4.2000   -0.1560   -1.4370 c3        1 1O0      0.705200
     28 F28         7.2730    3.8820    0.2300 f         1 1O0     -0.118900
     29 F29        -4.6100   -1.4640   -1.4840 f         1 1O0     -0.231300
     30 F30        -3.2820   -0.0610   -2.4570 f         1 1O0     -0.231300
     31 F31         6.4040   -0.6790    1.2440 f         1 1O0     -0.126900
     32 F32         4.7700    1.2380   -2.8230 f         1 1O0     -0.126900
     33 C33        -6.0070    0.7270    0.8270 cp        1 1O0      0.434800
     34 C34        -6.7000    1.9350    1.0620 ca        1 1O0     -0.224300
     35 N35        -6.6410   -0.4350    0.5250 nb        1 1O0     -0.640000
     36 C36        -7.9820   -0.4060    0.4510 ca        1 1O0      0.402200
     37 C37        -8.7550    0.7520    0.6650 ca        1 1O0     -0.236300
     38 C38        -8.0930    1.9390    0.9740 ca        1 1O0     -0.094000
     39 H1          7.3960    1.6990    1.7120 ha        1 1O0      0.177000
     40 H2          5.9260    3.4330   -1.9970 ha        1 1O0      0.177000
     41 H3          4.5050   -1.0360   -2.2090 h1        1 1O0      0.080700
     42 H4          5.7420   -1.8630   -1.1530 h1        1 1O0      0.080700
     43 H5          5.2340   -2.7820    0.8020 h5        1 1O0      0.060800
     44 H6         -0.5440   -1.8300    0.9900 ha        1 1O0      0.180000
     45 H7          0.4550    0.8900   -2.2440 ha        1 1O0      0.161000
     46 H8          2.8420    0.2620   -2.0600 ha        1 1O0      0.149000
     47 H9         -0.6700    0.7310    1.5440 ha        1 1O0      0.156000
     48 H10        -2.2130    1.5100    3.3450 ha        1 1O0      0.145000
     49 H11        -4.6790    1.4890    2.9740 ha        1 1O0      0.147000
     50 H12        -6.1440    2.8520    1.3020 ha        1 1O0      0.147000
     51 H13        -8.4630   -1.3700    0.2030 h4        1 1O0      0.029100
     52 H14        -9.8490    0.7120    0.5870 ha        1 1O0      0.146000
     53 H15        -8.6570    2.8680    1.1460 ha        1 1O0      0.141000
@<TRIPOS>BOND
     1    1    2 ar  
     2    1    6 ar  
     3    1   31 1   
     4    2    3 ar  
     5    2   39 1   
     6    3    4 ar  
     7    3   28 1   
     8    4    5 ar  
     9    4   40 1   
    10    5    6 ar  
    11    5   32 1   
    12    6    7 1   
    13    7   10 1   
    14    7   41 1   
    15    7   42 1   
    16    8    9 2   
    17    8   17 1   
    18    9   10 1   
    19    9   43 1   
    20   10   11 1   
    21   11   12 ar  
    22   11   16 ar  
    23   12   13 ar  
    24   12   17 1   
    25   13   14 ar  
    26   13   44 1   
    27   14   15 ar  
    28   14   20 1   
    29   15   16 ar  
    30   15   45 1   
    31   16   46 1   
    32   17   18 2   
    33   19   27 1   
    34   20   21 1   
    35   21   22 ar  
    36   21   26 ar  
    37   22   23 ar  
    38   22   47 1   
    39   23   24 ar  
    40   23   48 1   
    41   24   25 ar  
    42   24   49 1   
    43   25   26 ar  
    44   25   33 1   
    45   26   27 1   
    46   27   29 1   
    47   27   30 1   
    48   33   34 ar  
    49   33   35 ar  
    50   34   38 ar  
    51   34   50 1   
    52   35   36 ar  
    53   36   37 ar  
    54   36   51 1   
    55   37   38 ar  
    56   37   52 1   
    57   38   53 1   
@<TRIPOS>SUBSTRUCTURE
     1 1O0         1 TEMP              0 ****  ****    0 ROOT
