@<TRIPOS>MOLECULE
1O0
   53    42     1     0     0
SMALL
bcc


@<TRIPOS>ATOM
      1 C1          0.7080    4.9260   -4.2210 c1        1 1O0      0.163000
      2 C2          0.6510    5.8160   -5.2950 c1        1 1O0     -0.225000
      3 C3          1.6270    6.7850   -5.4430 c1        1 1O0      0.166000
      4 C4          2.6680    6.8720   -4.5210 c2        1 1O0     -0.225000
      5 C5          2.7270    5.9850   -3.4500 c1        1 1O0      0.165000
      6 C6          1.7510    5.0150   -3.2990 c1        1 1O0     -0.215000
      7 C7          1.7620    4.0980   -2.0510 c3        1 1O0      0.029000
      8 N8          0.6690    1.1050   -4.1540 n1        1 1O0     -0.248000
      9 C9          1.2430    2.3640   -3.7920 c1        1 1O0      0.109000
     10 N10         1.2500    2.7880   -2.4050 n2        1 1O0     -0.246000
     11 C11         0.6720    1.9310   -1.3760 c1        1 1O0      0.095000
     12 C12         0.1200    0.7180   -1.7200 c1        1 1O0     -0.184000
     13 C13        -0.3240   -0.1670   -0.7110 c1        1 1O0     -0.061000
     14 C14        -0.2010    0.1900    0.6370 c1        1 1O0      0.003000
     15 C15         0.3580    1.4170    0.9830 c1        1 1O0     -0.068000
     16 C16         0.7960    2.2920   -0.0130 c1        1 1O0     -0.179000
     17 C17         0.1100    0.2770   -3.1650 c1        1 1O0      0.302000
     18 O18        -0.2780   -0.8400   -3.4570 o         1 1O0     -0.288000
     19 F19        -2.6260   -2.3640    4.5130 f         1 1O0     -0.160333
     20 O20        -0.6520   -0.2710    1.9260 o         1 1O0     -0.140000
     21 C21        -0.2210   -1.6310    2.1290 c2        1 1O0      0.114000
     22 C22         1.0660   -2.0140    1.7690 c2        1 1O0     -0.193000
     23 C23         1.5030   -3.3130    2.0240 c1        1 1O0     -0.070000
     24 C24         0.6460   -4.2330    2.6410 c1        1 1O0     -0.156000
     25 C25        -0.6460   -3.8480    3.0020 c1        1 1O0      0.050000
     26 C26        -1.0830   -2.5550    2.7500 c1        1 1O0     -0.155000
     27 C27        -2.4800   -2.1140    3.2050 c2        1 1O0      0.484000
     28 F28         1.5740    7.6340   -6.4690 f         1 1O0     -0.082000
     29 F29        -3.4100   -2.7910    2.5130 f         1 1O0     -0.160333
     30 F30        -2.6240   -0.8050    2.9830 f         1 1O0     -0.160333
     31 F31        -0.3370    4.1380   -3.9610 f         1 1O0     -0.082000
     32 F32         3.7350    6.0710   -2.5590 f         1 1O0     -0.083000
     33 C33        -1.5890   -4.8580    3.6400 c1        1 1O0     -0.001000
     34 C34        -2.1400   -5.8700    2.8700 c1        1 1O0     -0.121250
     35 N35        -1.7820   -4.8480    4.9900 n1        1 1O0     -0.116000
     36 C36        -2.5160   -5.8320    5.5810 c1        1 1O0     -0.121250
     37 C37        -3.0670   -6.8430    4.8120 c1        1 1O0     -0.121250
     38 C38        -2.8750   -6.8560    3.4640 c1        1 1O0     -0.121250
     39 H1         -0.0930    5.7540   -5.9550 ha        1 1O0      0.179000
     40 H2          3.3520    7.5510   -4.6260 ha        1 1O0      0.179000
     41 H3          2.6800    4.0100   -1.7180 h1        1 1O0      0.113000
     42 H4          1.2010    4.4900   -1.3550 h1        1 1O0      0.113000
     43 H5          1.6250    2.9300   -4.4680 ha        1 1O0      0.187000
     44 H6         -0.7180   -1.0320   -0.9550 ha        1 1O0      0.179000
     45 H7          0.4440    1.6700    1.9370 ha        1 1O0      0.161000
     46 H8          1.1940    3.1670    0.2350 ha        1 1O0      0.144000
     47 H9          1.6720   -1.3650    1.3330 ha        1 1O0      0.156000
     48 H10         2.4170   -3.5850    1.7680 ha        1 1O0      0.144000
     49 H11         0.9530   -5.1440    2.8200 ha        1 1O0      0.147000
     50 H12        -2.0030   -5.8780    1.9060 ha        1 1O0      0.150250
     51 H13        -2.6530   -5.8240    6.5430 ha        1 1O0      0.150250
     52 H14        -3.5940   -7.5500    5.2380 ha        1 1O0      0.150250
     53 H15        -3.2620   -7.5650    2.9270 ha        1 1O0      0.150250
@<TRIPOS>BOND
     1    1    6 1   
     2    1   31 1   
     3    2    3 1   
     4    2   39 1   
     5    3    4 1   
     6    4    5 1   
     7    4   40 1   
     8    5   32 1   
     9    6    7 1   
    10    7   10 1   
    11    7   41 1   
    12    7   42 1   
    13    8    9 1   
    14    9   43 1   
    15   10   11 1   
    16   11   16 1   
    17   12   13 1   
    18   12   17 1   
    19   13   44 1   
    20   14   15 1   
    21   15   45 1   
    22   16   46 1   
    23   17   18 1   
    24   19   27 1   
    25   20   21 1   
    26   21   22 1   
    27   21   26 1   
    28   22   23 1   
    29   22   47 1   
    30   23   48 1   
    31   24   25 1   
    32   24   49 1   
    33   25   26 1   
    34   27   29 1   
    35   27   30 1   
    36   33   35 1   
    37   34   38 1   
    38   34   50 1   
    39   36   37 1   
    40   36   51 1   
    41   37   52 1   
    42   38   53 1   
@<TRIPOS>SUBSTRUCTURE
     1 1O0         1 TEMP              0 ****  ****    0 ROOT
