@<TRIPOS>MOLECULE
1O0
   53    57     1     0     0
SMALL
bcc


@<TRIPOS>ATOM
      1 C1         -0.0530   -0.2700   -0.1860 ca        1 1O0      0.192900
      2 C2          1.3340   -0.0690   -0.2570 ca        1 1O0     -0.219500
      3 C3          1.9750    0.6320    0.7760 ca        1 1O0      0.193900
      4 C4          1.2440    1.1380    1.8630 ca        1 1O0     -0.219500
      5 C5         -0.1420    0.9210    1.9160 ca        1 1O0      0.192900
      6 C6         -0.8150    0.2030    0.9040 ca        1 1O0     -0.210300
      7 C7         -2.3020   -0.0020    0.9550 c3        1 1O0      0.272100
      8 N8         -3.6050   -3.2790   -0.1750 nc        1 1O0     -0.671100
      9 C9         -3.1430   -2.0640   -0.1010 cd        1 1O0      0.676100
     10 N10        -2.7410   -1.3760    1.0510 na        1 1O0     -0.641000
     11 C11        -2.8200   -2.0560    2.2790 ca        1 1O0      0.175600
     12 C12        -3.3250   -3.3870    2.2890 ca        1 1O0     -0.204600
     13 C13        -3.4470   -4.0880    3.4920 ca        1 1O0     -0.068000
     14 C14        -3.0500   -3.4830    4.6830 ca        1 1O0      0.050100
     15 C15        -2.5350   -2.1770    4.6930 ca        1 1O0     -0.069000
     16 C16        -2.4260   -1.4710    3.5050 ca        1 1O0     -0.178000
     17 C17        -3.7300   -4.0420    1.0160 c         1 1O0      0.700100
     18 O18        -4.1550   -5.2070    0.9830 o         1 1O0     -0.523100
     19 F19        -4.1320   -5.5280    9.5010 f         1 1O0     -0.231300
     20 O20        -3.2670   -4.0670    5.9310 os        1 1O0     -0.229200
     21 C21        -2.7670   -5.3470    6.1270 ca        1 1O0      0.157100
     22 C22        -1.8030   -5.9320    5.2980 ca        1 1O0     -0.191000
     23 C23        -1.3360   -7.2090    5.5950 ca        1 1O0     -0.071000
     24 C24        -1.8260   -7.8950    6.7030 ca        1 1O0     -0.155000
     25 C25        -2.7910   -7.3110    7.5360 cp        1 1O0     -0.058500
     26 C26        -3.2620   -6.0190    7.2650 ca        1 1O0     -0.160300
     27 C27        -4.2870   -5.3160    8.1520 c3        1 1O0      0.705200
     28 F28         3.3110    0.8290    0.7210 f         1 1O0     -0.118900
     29 F29        -5.5920   -5.6510    7.8930 f         1 1O0     -0.231300
     30 F30        -4.2750   -3.9440    8.0590 f         1 1O0     -0.231300
     31 F31        -0.6670   -0.9210   -1.2010 f         1 1O0     -0.126900
     32 F32        -0.8340    1.4290    2.9630 f         1 1O0     -0.126900
     33 C33        -3.2720   -8.1200    8.6760 cp        1 1O0      0.434800
     34 C34        -2.3230   -8.6220    9.5940 ca        1 1O0     -0.224300
     35 N35        -4.6010   -8.3810    8.7790 nb        1 1O0     -0.640000
     36 C36        -5.0020   -9.1480    9.8070 ca        1 1O0      0.402200
     37 C37        -4.1290   -9.6870   10.7720 ca        1 1O0     -0.236300
     38 C38        -2.7670   -9.4120   10.6560 ca        1 1O0     -0.094000
     39 H1          1.9080   -0.4550   -1.1130 ha        1 1O0      0.177000
     40 H2          1.7490    1.6980    2.6640 ha        1 1O0      0.177000
     41 H3         -2.7380    0.4360    0.0060 h1        1 1O0      0.080700
     42 H4         -2.7310    0.5750    1.8260 h1        1 1O0      0.080700
     43 H5         -3.0420   -1.4910   -1.0530 h5        1 1O0      0.060800
     44 H6         -3.8570   -5.1130    3.4800 ha        1 1O0      0.180000
     45 H7         -2.2370   -1.7180    5.6490 ha        1 1O0      0.161000
     46 H8         -2.0200   -0.4470    3.5350 ha        1 1O0      0.149000
     47 H9         -1.4240   -5.3890    4.4200 ha        1 1O0      0.156000
     48 H10        -0.5800   -7.6780    4.9470 ha        1 1O0      0.145000
     49 H11        -1.4640   -8.9100    6.9270 ha        1 1O0      0.147000
     50 H12        -1.2580   -8.3830    9.4720 ha        1 1O0      0.147000
     51 H13        -6.0900   -9.3380    9.8570 h4        1 1O0      0.029100
     52 H14        -4.5190  -10.3040   11.5910 ha        1 1O0      0.146000
     53 H15        -2.0500   -9.8090   11.3890 ha        1 1O0      0.141000
@<TRIPOS>BOND
     1    1    2 ar  
     2    1    6 ar  
     3    1   31 1   
     4    2    3 ar  
     5    2   39 1   
     6    3    4 ar  
     7    3   28 1   
     8    4    5 ar  
     9    4   40 1   
    10    5    6 ar  
    11    5   32 1   
    12    6    7 1   
    13    7   10 1   
    14    7   41 1   
    15    7   42 1   
    16    8    9 2   
    17    8   17 1   
    18    9   10 1   
    19    9   43 1   
    20   10   11 1   
    21   11   12 ar  
    22   11   16 ar  
    23   12   13 ar  
    24   12   17 1   
    25   13   14 ar  
    26   13   44 1   
    27   14   15 ar  
    28   14   20 1   
    29   15   16 ar  
    30   15   45 1   
    31   16   46 1   
    32   17   18 2   
    33   19   27 1   
    34   20   21 1   
    35   21   22 ar  
    36   21   26 ar  
    37   22   23 ar  
    38   22   47 1   
    39   23   24 ar  
    40   23   48 1   
    41   24   25 ar  
    42   24   49 1   
    43   25   26 ar  
    44   25   33 1   
    45   26   27 1   
    46   27   29 1   
    47   27   30 1   
    48   33   34 ar  
    49   33   35 ar  
    50   34   38 ar  
    51   34   50 1   
    52   35   36 ar  
    53   36   37 ar  
    54   36   51 1   
    55   37   38 ar  
    56   37   52 1   
    57   38   53 1   
@<TRIPOS>SUBSTRUCTURE
     1 1O0         1 TEMP              0 ****  ****    0 ROOT
