@<TRIPOS>MOLECULE
1O1
   45    47     1     0     0
SMALL
bcc


@<TRIPOS>ATOM
      1 C1          3.4950   -1.4510   -0.7250 ca        1 1O1     -0.014500
      2 C2          3.4170   -2.6140   -1.4940 ca        1 1O1     -0.167500
      3 C3          3.1000   -3.8370   -0.8990 ca        1 1O1     -0.038300
      4 C4          2.8610   -3.8840    0.4810 ca        1 1O1     -0.167500
      5 C5          2.9410   -2.7230    1.2400 ca        1 1O1     -0.014500
      6 C6          3.2670   -1.4930    0.6540 ca        1 1O1     -0.364500
      7 S7          3.4000   -0.1160    1.6410 sy        1 1O1      1.483200
      8 O8          2.6790   -0.3790    2.8390 o         1 1O1     -0.677300
      9 O9          4.7820    0.1330    1.8750 o         1 1O1     -0.677300
     10 N10         2.7840    1.0950    0.7910 nh        1 1O1     -0.757500
     11 C11         1.4440    1.2480    0.3780 ca        1 1O1      0.121600
     12 C12         1.1380    1.6670   -0.9440 ca        1 1O1     -0.133600
     13 C13        -0.1960    1.8470   -1.3080 ca        1 1O1     -0.114000
     14 C14        -1.2270    1.6080   -0.3850 ca        1 1O1      0.093100
     15 C15        -0.9330    1.1900    0.9150 ca        1 1O1     -0.177000
     16 C16         0.3940    1.0180    1.2940 ca        1 1O1     -0.158000
     17 C17         2.1930    1.9470   -2.0030 c         1 1O1      0.912200
     18 O18         3.3750    1.4990   -1.8490 o         1 1O1     -0.837800
     19 O19         1.8570    2.6150   -3.0170 o         1 1O1     -0.837800
     20 O20        -2.5080    1.8790   -0.8500 os        1 1O1     -0.262200
     21 C21        -3.5810    1.3670   -0.1160 ca        1 1O1      0.074100
     22 C22        -4.6120    2.2670    0.1880 ca        1 1O1     -0.177000
     23 C23        -5.7770    1.7840    0.7810 ca        1 1O1     -0.098500
     24 C24        -5.9200    0.4250    1.0810 ca        1 1O1     -0.138600
     25 C25        -4.8730   -0.4540    0.7840 ca        1 1O1     -0.098500
     26 C26        -3.7010    0.0050    0.1850 ca        1 1O1     -0.177000
     27 C27        -7.2000   -0.0860    1.7180 c         1 1O1      0.908200
     28 C28         2.9890   -5.0660   -1.7180 c3        1 1O1     -0.054800
     29 O29        -7.2980   -1.3240    1.9600 o         1 1O1     -0.841300
     30 O30        -8.1160    0.7490    1.9750 o         1 1O1     -0.841300
     31 H1          3.7150   -0.4850   -1.2350 ha        1 1O1      0.179500
     32 H2          3.5930   -2.5560   -2.5780 ha        1 1O1      0.127500
     33 H3          2.5990   -4.8380    0.9590 ha        1 1O1      0.127500
     34 H4          2.7310   -2.7600    2.3240 ha        1 1O1      0.179500
     35 H5          3.4030    1.6220    0.1860 hn        1 1O1      0.497800
     36 H6         -0.4280    2.1930   -2.3280 ha        1 1O1      0.169000
     37 H7         -1.7440    0.9970    1.6330 ha        1 1O1      0.147000
     38 H8          0.6160    0.6900    2.3240 ha        1 1O1      0.148000
     39 H10        -4.4950    3.3300   -0.0560 ha        1 1O1      0.126000
     40 H11        -6.6090    2.4620    1.0260 ha        1 1O1      0.148000
     41 H12        -5.0000   -1.5200    1.0320 ha        1 1O1      0.148000
     42 H13        -2.8760   -0.6810   -0.0500 ha        1 1O1      0.126000
     43 H14         1.9330   -5.1910   -2.0690 hc        1 1O1      0.038367
     44 H15         3.6510   -5.0110   -2.6160 hc        1 1O1      0.038367
     45 H16         3.2690   -5.9710   -1.1240 hc        1 1O1      0.038367
@<TRIPOS>BOND
     1    1    2 ar  
     2    1    6 ar  
     3    1   31 1   
     4    2    3 ar  
     5    2   32 1   
     6    3    4 ar  
     7    3   28 1   
     8    4    5 ar  
     9    4   33 1   
    10    5    6 ar  
    11    5   34 1   
    12    6    7 1   
    13    7    8 2   
    14    7    9 2   
    15    7   10 1   
    16   10   11 1   
    17   10   35 1   
    18   11   12 ar  
    19   11   16 ar  
    20   12   13 ar  
    21   12   17 1   
    22   13   14 ar  
    23   13   36 1   
    24   14   15 ar  
    25   14   20 1   
    26   15   16 ar  
    27   15   37 1   
    28   16   38 1   
    29   17   18 1   
    30   17   19 1   
    31   20   21 1   
    32   21   22 ar  
    33   21   26 ar  
    34   22   23 ar  
    35   22   39 1   
    36   23   24 ar  
    37   23   40 1   
    38   24   25 ar  
    39   24   27 1   
    40   25   26 ar  
    41   25   41 1   
    42   26   42 1   
    43   27   29 1   
    44   27   30 1   
    45   28   43 1   
    46   28   44 1   
    47   28   45 1   
@<TRIPOS>SUBSTRUCTURE
     1 1O1         1 TEMP              0 ****  ****    0 ROOT
