@<TRIPOS>MOLECULE
1O1
   45    35     1     0     0
SMALL
bcc


@<TRIPOS>ATOM
      1 C1         -1.3820    3.2370   -3.0900 c1        1 1O1     -0.023000
      2 C2         -1.4600    3.9720   -4.2620 c1        1 1O1     -0.176000
      3 C3         -0.6410    3.6550   -5.3350 c1        1 1O1     -0.033000
      4 C4          0.2550    2.6030   -5.2350 c2        1 1O1     -0.160000
      5 C5          0.3340    1.8680   -4.0630 c1        1 1O1     -0.007000
      6 C6         -0.4850    2.1850   -2.9900 c1        1 1O1     -0.806000
      7 S7         -0.4870    1.1540   -1.5450 s4        1 1O1      2.037800
      8 O8         -1.6750    1.3570   -0.7610 o         1 1O1     -0.564400
      9 O9         -0.6180   -0.2340   -1.8940 o         1 1O1     -0.564400
     10 N10         0.8670    1.4190   -0.6540 n2        1 1O1     -0.808000
     11 C11         1.2070    0.5320    0.4020 c1        1 1O1      0.039000
     12 C12         1.5010   -0.7940    0.1260 c1        1 1O1     -0.032000
     13 C13         1.8410   -1.6570    1.1560 c1        1 1O1     -0.146500
     14 C14         1.8850   -1.1950    2.4620 c1        1 1O1     -0.032000
     15 C15         1.5900    0.1310    2.7380 c1        1 1O1     -0.146500
     16 C16         1.2500    0.9950    1.7080 c1        1 1O1     -0.156000
     17 C17         1.4870   -1.2900   -1.3020 c1        1 1O1      0.361000
     18 O18         0.4980   -1.9390   -1.7330 o         1 1O1     -0.573000
     19 O19         2.4770   -1.0810   -2.0510 o         1 1O1     -0.573000
     20 O20         2.2030   -2.0770    3.5090 o         1 1O1     -0.172000
     21 C21         1.0220   -2.6390    4.0230 c1        1 1O1      0.028000
     22 C22         0.3130   -1.9750    5.0110 c1        1 1O1     -0.140500
     23 C23        -0.8940   -2.4870    5.4610 c1        1 1O1     -0.140500
     24 C24        -1.3920   -3.6630    4.9220 c1        1 1O1     -0.117000
     25 C25        -0.6830   -4.3270    3.9340 c1        1 1O1     -0.101000
     26 C26         0.5240   -3.8150    3.4840 c1        1 1O1     -0.169000
     27 C27        -2.7500   -4.1730    5.3500 c2        1 1O1      0.357000
     28 C28        -0.8020    4.3880   -6.6490 c2        1 1O1     -0.179000
     29 O29        -2.8410   -5.0180    6.2800 o         1 1O1     -0.576000
     30 O30        -3.7910   -3.7400    4.7900 o         1 1O1     -0.576000
     31 H1         -1.9590    3.4610   -2.3340 ha        1 1O1      0.148000
     32 H2         -2.0990    4.7060   -4.3360 ha        1 1O1      0.119000
     33 H3          0.8320    2.3800   -5.9920 ha        1 1O1      0.135000
     34 H4          0.9760    1.1370   -3.9880 ha        1 1O1      0.212000
     35 H5          1.3860    2.1500   -0.8210 hn        1 1O1      0.294000
     36 H6          2.0480   -2.5920    0.9620 ha        1 1O1      0.158500
     37 H7          1.6210    0.4560    3.6570 ha        1 1O1      0.158500
     38 H8          1.0430    1.9280    1.9020 ha        1 1O1      0.148000
     39 H10         0.6770   -1.1620    5.4090 ha        1 1O1      0.139000
     40 H11        -1.3830   -2.0300    6.1700 ha        1 1O1      0.139000
     41 H12        -1.0250   -5.1640    3.5670 ha        1 1O1      0.147000
     42 H13         1.0390   -4.3000    2.8120 ha        1 1O1      0.122000
     43 H14        -0.0090    4.2370   -7.2060 ha        1 1O1      0.077000
     44 H15        -1.5970    4.0540   -7.1150 ha        1 1O1      0.077000
     45 H16        -0.9020    5.3470   -6.4780 ha        1 1O1      0.077000
@<TRIPOS>BOND
     1    1    6 1   
     2    1   31 1   
     3    2    3 1   
     4    2   32 1   
     5    3    4 1   
     6    4    5 1   
     7    4   33 1   
     8    5   34 1   
     9    6    7 1   
    10    7    8 1   
    11    7    9 1   
    12   10   11 1   
    13   10   35 1   
    14   11   16 1   
    15   12   13 1   
    16   13   36 1   
    17   14   15 1   
    18   15   37 1   
    19   16   38 1   
    20   17   18 1   
    21   17   19 1   
    22   20   21 1   
    23   21   26 1   
    24   22   23 1   
    25   22   39 1   
    26   23   40 1   
    27   24   25 1   
    28   24   27 1   
    29   25   41 1   
    30   26   42 1   
    31   27   29 1   
    32   27   30 1   
    33   28   43 1   
    34   28   44 1   
    35   28   45 1   
@<TRIPOS>SUBSTRUCTURE
     1 1O1         1 TEMP              0 ****  ****    0 ROOT
