@<TRIPOS>MOLECULE
1O1
   46    48     1     0     0
SMALL
bcc


@<TRIPOS>ATOM
      1 C1         -0.6260    0.6550    0.1090 ca        1 1O1     -0.008500
      2 C2          0.6360    0.6920   -0.4720 ca        1 1O1     -0.161000
      3 C3          1.7720    0.3840    0.2890 ca        1 1O1     -0.007300
      4 C4          1.6190    0.0480    1.6400 ca        1 1O1     -0.161000
      5 C5          0.3520    0.0140    2.2120 ca        1 1O1     -0.008500
      6 C6         -0.7910    0.3100    1.4570 ca        1 1O1     -0.404500
      7 S7         -2.3170    0.2950    2.1600 sy        1 1O1      1.520200
      8 O8         -2.1910    0.5920    3.5280 o         1 1O1     -0.651300
      9 O9         -3.1800    1.1270    1.4110 o         1 1O1     -0.651300
     10 N10        -2.8220   -1.2400    1.9190 nh        1 1O1     -0.782500
     11 C11        -2.3190   -2.4190    2.4960 ca        1 1O1      0.151600
     12 C12        -2.4470   -3.6590    1.8210 ca        1 1O1     -0.190600
     13 C13        -1.9490   -4.8350    2.3810 ca        1 1O1     -0.099000
     14 C14        -1.2810   -4.7850    3.6130 ca        1 1O1      0.120100
     15 C15        -1.1570   -3.5700    4.3010 ca        1 1O1     -0.129000
     16 C16        -1.6830   -2.4060    3.7580 ca        1 1O1     -0.158000
     17 C17        -3.1280   -3.7410    0.5150 c         1 1O1      0.642700
     18 O18        -4.1180   -4.4050    0.2110 o         1 1O1     -0.483000
     19 O19        -2.6390   -2.9950   -0.5280 oh        1 1O1     -0.596100
     20 O20        -0.8130   -5.9950    4.0910 os        1 1O1     -0.249200
     21 C21         0.1780   -5.9040    5.0840 ca        1 1O1      0.023100
     22 C22        -0.1930   -6.0160    6.4280 ca        1 1O1     -0.157500
     23 C23         0.8090   -6.0390    7.3970 ca        1 1O1     -0.103500
     24 C24         2.1570   -5.9430    7.0340 ca        1 1O1     -0.115600
     25 C25         2.5030   -5.8380    5.6820 ca        1 1O1     -0.103500
     26 C26         1.5200   -5.8150    4.6960 ca        1 1O1     -0.157500
     27 C27         3.2440   -5.9430    8.1040 c         1 1O1      0.907200
     28 C28         3.1200    0.4010   -0.3240 c3        1 1O1     -0.068800
     29 O29         4.4410   -5.8200    7.7210 o         1 1O1     -0.822800
     30 O30         2.8820   -6.0590    9.3070 o         1 1O1     -0.822800
     31 H1         -1.5150    0.9150   -0.4920 ha        1 1O1      0.156000
     32 H2          0.7450    0.9670   -1.5310 ha        1 1O1      0.144500
     33 H3          2.5040   -0.1920    2.2500 ha        1 1O1      0.144500
     34 H4          0.2400   -0.2440    3.2820 ha        1 1O1      0.156000
     35 H5         -1.8010   -2.5860   -0.2730 ho        1 1O1      0.432000
     36 H6         -2.0790   -5.7980    1.8650 ha        1 1O1      0.164000
     37 H7         -0.6450   -3.5470    5.2780 ha        1 1O1      0.175000
     38 H8         -1.6050   -1.4680    4.3370 ha        1 1O1      0.169000
     39 H10        -1.2530   -6.0950    6.7030 ha        1 1O1      0.124000
     40 H11         0.5630   -6.1310    8.4680 ha        1 1O1      0.160500
     41 H12         3.5730   -5.7730    5.4230 ha        1 1O1      0.160500
     42 H13         1.7820   -5.7380    3.6330 ha        1 1O1      0.124000
     43 H14         3.4440   -0.6470   -0.5530 hc        1 1O1      0.053367
     44 H15         3.1260    0.9860   -1.2760 hc        1 1O1      0.053367
     45 H16         3.8670    0.8510    0.3760 hc        1 1O1      0.053367
     46 H102       -3.5660   -1.4050    1.2730 hn        1 1O1      0.459800
@<TRIPOS>BOND
     1    1    2 ar  
     2    1    6 ar  
     3    1   31 1   
     4    2    3 ar  
     5    2   32 1   
     6    3    4 ar  
     7    3   28 1   
     8    4    5 ar  
     9    4   33 1   
    10    5    6 ar  
    11    5   34 1   
    12    6    7 1   
    13    7    8 2   
    14    7    9 2   
    15    7   10 1   
    16   10   11 1   
    17   10   46 1   
    18   11   12 ar  
    19   11   16 ar  
    20   12   13 ar  
    21   12   17 1   
    22   13   14 ar  
    23   13   36 1   
    24   14   15 ar  
    25   14   20 1   
    26   15   16 ar  
    27   15   37 1   
    28   16   38 1   
    29   17   18 2   
    30   17   19 1   
    31   19   35 1   
    32   20   21 1   
    33   21   22 ar  
    34   21   26 ar  
    35   22   23 ar  
    36   22   39 1   
    37   23   24 ar  
    38   23   40 1   
    39   24   25 ar  
    40   24   27 1   
    41   25   26 ar  
    42   25   41 1   
    43   26   42 1   
    44   27   29 1   
    45   27   30 1   
    46   28   43 1   
    47   28   44 1   
    48   28   45 1   
@<TRIPOS>SUBSTRUCTURE
     1 1O1         1 TEMP              0 ****  ****    0 ROOT
