@<TRIPOS>MOLECULE
1O1
   45    47     1     0     0
SMALL
bcc


@<TRIPOS>ATOM
      1 C1         -0.5830   -0.3270    0.0740 ca        1 1O1     -0.014500
      2 C2          0.6180   -0.2160   -0.6280 ca        1 1O1     -0.167500
      3 C3          1.6670    0.5540   -0.1210 ca        1 1O1     -0.038300
      4 C4          1.4990    1.2140    1.1040 ca        1 1O1     -0.167500
      5 C5          0.3010    1.1000    1.7980 ca        1 1O1     -0.014500
      6 C6         -0.7600    0.3380    1.2920 ca        1 1O1     -0.364500
      7 S7         -2.2200    0.2750    2.1600 sy        1 1O1      1.483200
      8 O8         -1.9320    0.6360    3.5050 o         1 1O1     -0.677300
      9 O9         -3.1450    1.1610    1.5390 o         1 1O1     -0.677300
     10 N10        -2.7530   -1.2290    2.0140 nu        1 1O1     -0.757500
     11 C11        -2.1460   -2.3980    2.5180 ca        1 1O1      0.121600
     12 C12        -2.0470   -3.5660    1.7160 ca        1 1O1     -0.133600
     13 C13        -1.4770   -4.7160    2.2570 ca        1 1O1     -0.114000
     14 C14        -0.9970   -4.7220    3.5770 ca        1 1O1      0.093100
     15 C15        -1.0850   -3.5760    4.3700 ca        1 1O1     -0.177000
     16 C16        -1.6630   -2.4250    3.8440 ca        1 1O1     -0.158000
     17 C17        -2.5420   -3.6430    0.2790 c         1 1O1      0.912200
     18 O18        -2.7630   -2.5700   -0.3700 o         1 1O1     -0.837800
     19 O19        -2.7120   -4.7820   -0.2320 o         1 1O1     -0.837800
     20 O20        -0.5050   -5.9450    4.0190 os        1 1O1     -0.262200
     21 C21         0.2720   -5.9440    5.1790 ca        1 1O1      0.074100
     22 C22        -0.0670   -6.8930    6.1550 ca        1 1O1     -0.177000
     23 C23         0.7630   -7.0470    7.2640 ca        1 1O1     -0.098500
     24 C24         1.9110   -6.2630    7.4160 ca        1 1O1     -0.138600
     25 C25         2.2230   -5.3110    6.4400 ca        1 1O1     -0.098500
     26 C26         1.4120   -5.1440    5.3180 ca        1 1O1     -0.177000
     27 C27         2.8100   -6.4510    8.6260 c         1 1O1      0.908200
     28 C28         2.9520    0.6500   -0.8510 c3        1 1O1     -0.054800
     29 O29         3.8480   -5.7340    8.7200 o         1 1O1     -0.841300
     30 O30         2.4820   -7.3200    9.4860 o         1 1O1     -0.841300
     31 H1         -1.3880   -0.9780   -0.3390 ha        1 1O1      0.179500
     32 H2          0.7380   -0.7530   -1.5810 ha        1 1O1      0.127500
     33 H3          2.3220    1.8140    1.5190 ha        1 1O1      0.127500
     34 H4          0.1810    1.6050    2.7720 ha        1 1O1      0.179500
     35 H5         -3.3550   -1.4520    1.2300 hn        1 1O1      0.497800
     36 H6         -1.4210   -5.6260    1.6380 ha        1 1O1      0.169000
     37 H7         -0.7010   -3.5830    5.4000 ha        1 1O1      0.147000
     38 H8         -1.7300   -1.5260    4.4800 ha        1 1O1      0.148000
     39 H10        -0.9660   -7.5080    6.0250 ha        1 1O1      0.126000
     40 H11         0.5300   -7.7880    8.0440 ha        1 1O1      0.148000
     41 H12         3.1290   -4.6990    6.5780 ha        1 1O1      0.148000
     42 H13         1.6520   -4.3980    4.5490 ha        1 1O1      0.126000
     43 H14         2.7980    0.5300   -1.9520 hc        1 1O1      0.038367
     44 H15         3.4470    1.6350   -0.6660 hc        1 1O1      0.038367
     45 H16         3.6440   -0.1600   -0.5050 hc        1 1O1      0.038367
@<TRIPOS>BOND
     1    1    2 ar  
     2    1    6 ar  
     3    1   31 1   
     4    2    3 ar  
     5    2   32 1   
     6    3    4 ar  
     7    3   28 1   
     8    4    5 ar  
     9    4   33 1   
    10    5    6 ar  
    11    5   34 1   
    12    6    7 1   
    13    7    8 2   
    14    7    9 2   
    15    7   10 1   
    16   10   11 1   
    17   10   35 1   
    18   11   12 ar  
    19   11   16 ar  
    20   12   13 ar  
    21   12   17 1   
    22   13   14 ar  
    23   13   36 1   
    24   14   15 ar  
    25   14   20 1   
    26   15   16 ar  
    27   15   37 1   
    28   16   38 1   
    29   17   18 1   
    30   17   19 1   
    31   20   21 1   
    32   21   22 ar  
    33   21   26 ar  
    34   22   23 ar  
    35   22   39 1   
    36   23   24 ar  
    37   23   40 1   
    38   24   25 ar  
    39   24   27 1   
    40   25   26 ar  
    41   25   41 1   
    42   26   42 1   
    43   27   29 1   
    44   27   30 1   
    45   28   43 1   
    46   28   44 1   
    47   28   45 1   
@<TRIPOS>SUBSTRUCTURE
     1 1O1         1 TEMP              0 ****  ****    0 ROOT
