@<TRIPOS>MOLECULE
1O1
   45    47     1     0     0
SMALL
bcc


@<TRIPOS>ATOM
      1 C1         -0.6050   -0.3120    0.0870 ca        1 1O1     -0.014500
      2 C2          0.5880   -0.2010   -0.6280 ca        1 1O1     -0.167500
      3 C3          1.6450    0.5630   -0.1300 ca        1 1O1     -0.038300
      4 C4          1.4940    1.2190    1.0990 ca        1 1O1     -0.167500
      5 C5          0.3040    1.1040    1.8070 ca        1 1O1     -0.014500
      6 C6         -0.7650    0.3470    1.3110 ca        1 1O1     -0.364500
      7 S7         -2.2150    0.2850    2.1960 sy        1 1O1      1.483200
      8 O8         -1.9090    0.6380    3.5390 o         1 1O1     -0.677300
      9 O9         -3.1450    1.1770    1.5910 o         1 1O1     -0.677300
     10 N10        -2.7550   -1.2170    2.0490 nh        1 1O1     -0.758500
     11 C11        -2.1470   -2.3910    2.5420 ca        1 1O1      0.121600
     12 C12        -2.0610   -3.5550    1.7330 ca        1 1O1     -0.133600
     13 C13        -1.4900   -4.7100    2.2640 ca        1 1O1     -0.114000
     14 C14        -0.9950   -4.7240    3.5780 ca        1 1O1      0.093100
     15 C15        -1.0710   -3.5810    4.3770 ca        1 1O1     -0.178000
     16 C16        -1.6490   -2.4250    3.8620 ca        1 1O1     -0.157000
     17 C17        -2.5710   -3.6240    0.3010 c         1 1O1      0.912200
     18 O18        -2.7960   -2.5470   -0.3400 o         1 1O1     -0.838300
     19 O19        -2.7480   -4.7600   -0.2140 o         1 1O1     -0.838300
     20 O20        -0.5040   -5.9510    4.0090 os        1 1O1     -0.262200
     21 C21         0.2820   -5.9590    5.1630 ca        1 1O1      0.074100
     22 C22        -0.0530   -6.9100    6.1370 ca        1 1O1     -0.177000
     23 C23         0.7840   -7.0730    7.2390 ca        1 1O1     -0.098500
     24 C24         1.9380   -6.2960    7.3860 ca        1 1O1     -0.138600
     25 C25         2.2470   -5.3410    6.4110 ca        1 1O1     -0.098500
     26 C26         1.4280   -5.1650    5.2960 ca        1 1O1     -0.177000
     27 C27         2.8460   -6.4930    8.5870 c         1 1O1      0.908200
     28 C28         2.9210    0.6600   -0.8760 c3        1 1O1     -0.054800
     29 O29         3.8880   -5.7820    8.6760 o         1 1O1     -0.841300
     30 O30         2.5200   -7.3640    9.4460 o         1 1O1     -0.841300
     31 H1         -1.4170   -0.9590   -0.3190 ha        1 1O1      0.179500
     32 H2          0.6950   -0.7340   -1.5850 ha        1 1O1      0.127500
     33 H3          2.3230    1.8140    1.5070 ha        1 1O1      0.127500
     34 H4          0.1970    1.6050    2.7860 ha        1 1O1      0.179500
     35 H5         -3.3660   -1.4350    1.2710 hn        1 1O1      0.497800
     36 H6         -1.4440   -5.6180    1.6390 ha        1 1O1      0.169000
     37 H7         -0.6760   -3.5950    5.4030 ha        1 1O1      0.147000
     38 H8         -1.7060   -1.5290    4.5030 ha        1 1O1      0.148000
     39 H10        -0.9560   -7.5210    6.0130 ha        1 1O1      0.126000
     40 H11         0.5540   -7.8170    8.0180 ha        1 1O1      0.148000
     41 H12         3.1570   -4.7340    6.5440 ha        1 1O1      0.148000
     42 H13         1.6660   -4.4170    4.5290 ha        1 1O1      0.126000
     43 H14         2.7520    0.5510   -1.9750 hc        1 1O1      0.038367
     44 H15         3.6130   -0.1570   -0.5460 hc        1 1O1      0.038367
     45 H16         3.4230    1.6400   -0.6880 hc        1 1O1      0.038367
@<TRIPOS>BOND
     1    1    2 ar  
     2    1    6 ar  
     3    1   31 1   
     4    2    3 ar  
     5    2   32 1   
     6    3    4 ar  
     7    3   28 1   
     8    4    5 ar  
     9    4   33 1   
    10    5    6 ar  
    11    5   34 1   
    12    6    7 1   
    13    7    8 2   
    14    7    9 2   
    15    7   10 1   
    16   10   11 1   
    17   10   35 1   
    18   11   12 ar  
    19   11   16 ar  
    20   12   13 ar  
    21   12   17 1   
    22   13   14 ar  
    23   13   36 1   
    24   14   15 ar  
    25   14   20 1   
    26   15   16 ar  
    27   15   37 1   
    28   16   38 1   
    29   17   18 1   
    30   17   19 1   
    31   20   21 1   
    32   21   22 ar  
    33   21   26 ar  
    34   22   23 ar  
    35   22   39 1   
    36   23   24 ar  
    37   23   40 1   
    38   24   25 ar  
    39   24   27 1   
    40   25   26 ar  
    41   25   41 1   
    42   26   42 1   
    43   27   29 1   
    44   27   30 1   
    45   28   43 1   
    46   28   44 1   
    47   28   45 1   
@<TRIPOS>SUBSTRUCTURE
     1 1O1         1 TEMP              0 ****  ****    0 ROOT
