@<TRIPOS>MOLECULE
1O2
  133   132     1     0     0
SMALL
bcc


@<TRIPOS>ATOM
      1 C1          2.3890    6.8130    2.2040 c3        1 1O2      0.145000
      2 O1          1.4140    6.4270    3.2390 os        1 1O2     -0.295000
      3 C2          2.8610    8.1200    2.4920 c3        1 1O2      0.013000
      4 O2          3.3310    8.1520    3.9510 oh        1 1O2     -0.316000
      5 C3          1.8980    9.1430    2.3120 c3        1 1O2     -0.045000
      6 O3          2.5770   10.4710    2.4720 oh        1 1O2     -0.340000
      7 C4          1.2360    9.1080    0.9810 c3        1 1O2     -0.026000
      8 O4          2.1970    9.4100   -0.0040 oh        1 1O2     -0.334000
      9 C5          0.5710    7.7120    0.6240 c3        1 1O2      0.003000
     10 O5          1.7500    6.6910    0.8890 os        1 1O2     -0.277000
     11 C6          0.1910    7.6780   -0.6500 c3        1 1O2     -0.005000
     12 O6          1.2530    7.2060   -1.4430 oh        1 1O2     -0.331000
     13 CAL         1.9590    5.5590    4.2590 c3        1 1O2     -0.011000
     14 CAM         0.9830    4.4100    4.5280 c3        1 1O2     -0.007000
     15 OAN         0.5100    4.4970    5.8430 os        1 1O2     -0.280000
     16 CAO        -0.8330    4.0090    6.0130 c2        1 1O2      0.306000
     17 OAP        -1.6380    4.1300    5.1150 o         1 1O2     -0.345000
     18 CAQ        -1.2220    3.2560    7.2970 c3        1 1O2     -0.155000
     19 CAR        -2.7220    2.9040    7.2530 c3        1 1O2     -0.158000
     20 CAS        -2.9790    1.6470    8.1010 c3        1 1O2     -0.161000
     21 CAT        -4.4240    1.1440    7.8510 c3        1 1O2     -0.157000
     22 CAU        -4.4810   -0.3930    8.0540 c3        1 1O2     -0.158000
     23 CAV        -5.7250   -0.9710    7.3110 c3        1 1O2     -0.157000
     24 CAW        -5.6000   -2.5220    7.2160 c3        1 1O2     -0.158000
     25 CAX        -6.6080   -3.0620    6.1600 c3        1 1O2     -0.157000
     26 CAY        -6.2520   -4.5300    5.8060 c3        1 1O2     -0.158000
     27 CAZ        -7.1300   -5.0040    4.6140 c3        1 1O2     -0.158000
     28 CBA        -6.7340   -6.4590    4.2220 c3        1 1O2     -0.158000
     29 CBB        -7.4770   -6.8650    2.9200 c3        1 1O2     -0.158000
     30 CBC        -6.9520   -8.2520    2.4320 c3        1 1O2     -0.158000
     31 CBD        -7.6170   -8.6120    1.0850 c3        1 1O2     -0.159000
     32 CBE        -7.1560  -10.0080    0.6430 c3        1 1O2     -0.210000
     33 CBF         1.6970    3.0800    4.3340 c3        1 1O2     -0.034000
     34 OBG         0.9530    2.2650    3.3880 os        1 1O2     -0.292000
     35 CBH         1.6970    1.1230    2.8750 c2        1 1O2      0.308000
     36 OBI         2.8070    0.8740    3.3110 o         1 1O2     -0.345000
     37 CBJ         1.0270    0.1550    1.8340 c3        1 1O2     -0.156000
     38 CBK         2.1130   -0.7530    1.1950 c3        1 1O2     -0.158000
     39 CBL         1.5120   -1.4930   -0.0330 c3        1 1O2     -0.157000
     40 CBM         2.6380   -2.2260   -0.7960 c3        1 1O2     -0.158000
     41 CBN         2.2030   -2.4450   -2.2820 c3        1 1O2     -0.158000
     42 CBO         3.4200   -2.9140   -3.1110 c3        1 1O2     -0.156000
     43 CBP         3.2520   -2.4470   -4.5950 c3        1 1O2     -0.131000
     44 CBQ         4.6140   -1.9800   -5.1420 c2        1 1O2     -0.172000
     45 CBR         4.7400   -1.6180   -6.4790 c1        1 1O2     -0.168000
     46 CBS         3.5290   -1.6830   -7.4070 c2        1 1O2     -0.132000
     47 CBT         3.8440   -0.9210   -8.7230 c3        1 1O2     -0.154000
     48 CBU         3.9830   -1.9250   -9.8760 c3        1 1O2     -0.159000
     49 CBV         4.5880   -1.2150  -11.1050 c3        1 1O2     -0.158000
     50 CBW         5.2070   -2.2650  -12.0530 c3        1 1O2     -0.158000
     51 CBX         6.0300   -1.5490  -13.1490 c3        1 1O2     -0.158000
     52 CBZ         6.9720   -2.5700  -13.8410 c3        1 1O2     -0.159000
     53 CCA         7.8130   -1.8490  -14.9220 c3        1 1O2     -0.210000
     54 H1          3.1520    6.1890    2.2400 h2        1 1O2      0.152000
     55 H2          3.6260    8.3080    1.9140 h1        1 1O2      0.106000
     56 HO2         4.0930    8.6000    4.0070 ho        1 1O2      0.220000
     57 H3          1.2130    9.0550    3.0070 h1        1 1O2      0.120000
     58 HO3         2.0470   11.0210    2.9230 ho        1 1O2      0.213000
     59 H4          0.5450    9.7940    0.9610 h1        1 1O2      0.092000
     60 HO4         2.0740   10.2430   -0.2930 ho        1 1O2      0.220000
     61 H5         -0.1820    7.5290    1.2130 h1        1 1O2      0.107000
     62 H6         -0.0570    8.5790   -0.9410 h1        1 1O2      0.103000
     63 H6A        -0.5750    7.0830   -0.7450 h1        1 1O2      0.103000
     64 HO6         0.9240    6.7420   -2.1370 ho        1 1O2      0.213000
     65 HAL         2.0980    6.0770    5.0950 h1        1 1O2      0.113000
     66 HALA        2.8180    5.1940    3.9530 h1        1 1O2      0.113000
     67 HAM         0.2300    4.4700    3.9060 h1        1 1O2      0.148000
     68 HAQ        -1.0420    3.8240    8.0760 hc        1 1O2      0.118500
     69 HAQA       -0.6950    2.4330    7.3650 hc        1 1O2      0.118500
     70 HAR        -2.9880    2.7330    6.3310 hc        1 1O2      0.097500
     71 HARA       -3.2460    3.6540    7.6110 hc        1 1O2      0.097500
     72 HAS        -2.3460    0.9530    7.8530 hc        1 1O2      0.083000
     73 HASA       -2.8700    1.8660    9.0490 hc        1 1O2      0.083000
     74 HAT        -5.0360    1.5800    8.4820 hc        1 1O2      0.081000
     75 HATA       -4.6900    1.3620    6.9330 hc        1 1O2      0.081000
     76 HAU        -4.5500   -0.5930    9.0060 hc        1 1O2      0.080500
     77 HAUA       -3.6700   -0.7990    7.6950 hc        1 1O2      0.080500
     78 HAV        -6.5390   -0.7380    7.8060 hc        1 1O2      0.079000
     79 HAVA       -5.7710   -0.5950    6.4190 hc        1 1O2      0.079000
     80 HAW        -5.7970   -2.9170    8.0850 hc        1 1O2      0.079500
     81 HAWA       -4.6930   -2.7590    6.9510 hc        1 1O2      0.079500
     82 HAX        -6.5610   -2.5150    5.3580 hc        1 1O2      0.078500
     83 HAXA       -7.5140   -3.0250    6.5260 hc        1 1O2      0.078500
     84 HAY        -6.4190   -5.1000    6.5800 hc        1 1O2      0.079000
     85 HAYA       -5.3060   -4.5860    5.5580 hc        1 1O2      0.079000
     86 HAZ        -6.9880   -4.4100    3.8480 hc        1 1O2      0.078500
     87 HAZA       -8.0740   -4.9810    4.8750 hc        1 1O2      0.078500
     88 HBA        -5.7680   -6.5060    4.0750 hc        1 1O2      0.079000
     89 HBAA       -6.9870   -7.0750    4.9510 hc        1 1O2      0.079000
     90 HBB        -7.3130   -6.1930    2.2270 hc        1 1O2      0.078500
     91 HBBA       -8.4440   -6.9240    3.0980 hc        1 1O2      0.078500
     92 HBC        -7.1710   -8.9300    3.0910 hc        1 1O2      0.079000
     93 HBCA       -5.9870   -8.2120    2.3170 hc        1 1O2      0.079000
     94 HBD        -8.5970   -8.6080    1.1900 hc        1 1O2      0.077500
     95 HBDA       -7.3580   -7.9510    0.4050 hc        1 1O2      0.077500
     96 HBE        -7.3630  -10.6570    1.3450 hc        1 1O2      0.071667
     97 HBEA       -7.6210  -10.2600   -0.1820 hc        1 1O2      0.071667
     98 HBEB       -6.1830   -9.9970    0.4820 hc        1 1O2      0.071667
     99 HBF         1.7560    2.6130    5.1920 h1        1 1O2      0.107000
    100 HBFA        2.5930    3.2400    3.9890 h1        1 1O2      0.107000
    101 HBJ         0.3620   -0.4010    2.2870 hc        1 1O2      0.119000
    102 HBJA        0.5930    0.6790    1.1380 hc        1 1O2      0.119000
    103 HBK         2.4190   -1.4120    1.8570 hc        1 1O2      0.097000
    104 HBKA        2.8720   -0.2020    0.9070 hc        1 1O2      0.097000
    105 HBL         0.8500   -2.1410    0.2700 hc        1 1O2      0.081000
    106 HBLA        1.0900   -0.8510   -0.6210 hc        1 1O2      0.081000
    107 HBM         3.4520   -1.6870   -0.7720 hc        1 1O2      0.082000
    108 HBMA        2.8090   -3.0930   -0.3740 hc        1 1O2      0.082000
    109 HBN         1.8660   -1.6140   -2.6450 hc        1 1O2      0.079500
    110 HBNA        1.4980   -3.1300   -2.3190 hc        1 1O2      0.079500
    111 HBO         4.2360   -2.5270   -2.7390 hc        1 1O2      0.082000
    112 HBOA        3.4780   -3.8870   -3.0810 hc        1 1O2      0.082000
    113 HBP         2.6180   -1.7110   -4.6330 hc        1 1O2      0.086500
    114 HBPA        2.9230   -3.1860   -5.1320 hc        1 1O2      0.086500
    115 HBQ         5.3840   -1.9390   -4.5530 ha        1 1O2      0.122000
    116 HBR         5.6020   -1.3230   -6.8240 ha        1 1O2      0.123000
    117 HBS         2.7520   -1.2660   -6.9640 ha        1 1O2      0.086500
    118 HBSA        3.3240   -2.6210   -7.6130 ha        1 1O2      0.086500
    119 HBT         4.6810   -0.4250   -8.6200 hc        1 1O2      0.079500
    120 HBTA        3.1190   -0.2980   -8.9200 hc        1 1O2      0.079500
    121 HBU         3.0970   -2.2830  -10.1070 hc        1 1O2      0.080500
    122 HBUA        4.5700   -2.6580   -9.6010 hc        1 1O2      0.080500
    123 HBV         3.8890   -0.7270  -11.5750 hc        1 1O2      0.078000
    124 HBVA        5.2850   -0.5880  -10.8110 hc        1 1O2      0.078000
    125 HBW         4.4940   -2.7870  -12.4700 hc        1 1O2      0.079000
    126 HBWA        5.7840   -2.8520  -11.5490 hc        1 1O2      0.079000
    127 HBX         5.4230   -1.1630  -13.8150 hc        1 1O2      0.079000
    128 HBXA        6.5640   -0.8360  -12.7430 hc        1 1O2      0.079000
    129 HBZ         6.4390   -3.2730  -14.2590 hc        1 1O2      0.078000
    130 HBZA        7.5710   -2.9680  -13.1710 hc        1 1O2      0.078000
    131 HCA         7.2160   -1.4690  -15.6000 hc        1 1O2      0.072000
    132 HCAA        8.3350   -1.1290  -14.5040 hc        1 1O2      0.072000
    133 HCAB        8.4270   -2.4960  -15.3490 hc        1 1O2      0.072000
@<TRIPOS>BOND
     1    1    2 1   
     2    1    3 1   
     3    1   10 1   
     4    1   54 1   
     5    2   13 1   
     6    3    4 1   
     7    3    5 1   
     8    3   55 1   
     9    4   56 1   
    10    5    6 1   
    11    5    7 1   
    12    5   57 1   
    13    6   58 1   
    14    7    8 1   
    15    7    9 1   
    16    7   59 1   
    17    8   60 1   
    18    9   10 1   
    19    9   11 1   
    20    9   61 1   
    21   11   12 1   
    22   11   62 1   
    23   11   63 1   
    24   12   64 1   
    25   13   14 1   
    26   13   65 1   
    27   13   66 1   
    28   14   15 1   
    29   14   33 1   
    30   14   67 1   
    31   15   16 1   
    32   16   17 1   
    33   16   18 1   
    34   18   19 1   
    35   18   68 1   
    36   18   69 1   
    37   19   20 1   
    38   19   70 1   
    39   19   71 1   
    40   20   21 1   
    41   20   72 1   
    42   20   73 1   
    43   21   22 1   
    44   21   74 1   
    45   21   75 1   
    46   22   23 1   
    47   22   76 1   
    48   22   77 1   
    49   23   24 1   
    50   23   78 1   
    51   23   79 1   
    52   24   25 1   
    53   24   80 1   
    54   24   81 1   
    55   25   26 1   
    56   25   82 1   
    57   25   83 1   
    58   26   27 1   
    59   26   84 1   
    60   26   85 1   
    61   27   28 1   
    62   27   86 1   
    63   27   87 1   
    64   28   29 1   
    65   28   88 1   
    66   28   89 1   
    67   29   30 1   
    68   29   90 1   
    69   29   91 1   
    70   30   31 1   
    71   30   92 1   
    72   30   93 1   
    73   31   32 1   
    74   31   94 1   
    75   31   95 1   
    76   32   96 1   
    77   32   97 1   
    78   32   98 1   
    79   33   34 1   
    80   33   99 1   
    81   33  100 1   
    82   34   35 1   
    83   35   36 1   
    84   35   37 1   
    85   37   38 1   
    86   37  101 1   
    87   37  102 1   
    88   38   39 1   
    89   38  103 1   
    90   38  104 1   
    91   39   40 1   
    92   39  105 1   
    93   39  106 1   
    94   40   41 1   
    95   40  107 1   
    96   40  108 1   
    97   41   42 1   
    98   41  109 1   
    99   41  110 1   
   100   42   43 1   
   101   42  111 1   
   102   42  112 1   
   103   43   44 1   
   104   43  113 1   
   105   43  114 1   
   106   44   45 1   
   107   44  115 1   
   108   45  116 1   
   109   46   47 1   
   110   46  117 1   
   111   46  118 1   
   112   47   48 1   
   113   47  119 1   
   114   47  120 1   
   115   48   49 1   
   116   48  121 1   
   117   48  122 1   
   118   49   50 1   
   119   49  123 1   
   120   49  124 1   
   121   50   51 1   
   122   50  125 1   
   123   50  126 1   
   124   51   52 1   
   125   51  127 1   
   126   51  128 1   
   127   52   53 1   
   128   52  129 1   
   129   52  130 1   
   130   53  131 1   
   131   53  132 1   
   132   53  133 1   
@<TRIPOS>SUBSTRUCTURE
     1 1O2         1 TEMP              0 ****  ****    0 ROOT
