@<TRIPOS>MOLECULE
1O2
  133   133     1     0     0
SMALL
bcc


@<TRIPOS>ATOM
      1 C1         -3.3720   -0.3090   -2.5880 c3        1 1O2      0.306900
      2 O1         -3.3140   -1.6090   -2.0280 os        1 1O2     -0.450600
      3 C2         -2.1100   -0.1360   -3.4530 c3        1 1O2      0.102100
      4 O2         -2.0210   -1.1390   -4.4390 oh        1 1O2     -0.599800
      5 C3         -0.8540   -0.1340   -2.5680 c3        1 1O2      0.075100
      6 O3          0.2920    0.2330   -3.3180 oh        1 1O2     -0.611800
      7 C4         -0.9940    0.8970   -1.4390 c3        1 1O2      0.128100
      8 O4         -1.0300    2.2220   -1.9400 oh        1 1O2     -0.595800
      9 C5         -2.2900    0.6290   -0.6640 c3        1 1O2      0.103100
     10 O5         -3.4440    0.5970   -1.5100 os        1 1O2     -0.436600
     11 C6         -2.5630    1.7390    0.3550 c3        1 1O2      0.141400
     12 O6         -3.6310    1.3850    1.2100 oh        1 1O2     -0.611800
     13 CAL        -4.5580   -2.0760   -1.5140 c3        1 1O2      0.110400
     14 CAM        -4.2720   -3.2250   -0.5450 c3        1 1O2      0.123100
     15 OAN        -3.6450   -2.7140    0.6380 os        1 1O2     -0.420900
     16 CAO        -4.4600   -2.2010    1.6160 c         1 1O2      0.637100
     17 OAP        -5.6810   -2.2650    1.4540 o         1 1O2     -0.552000
     18 CAQ        -3.6830   -1.6020    2.7450 c3        1 1O2     -0.136400
     19 CAR        -4.4040   -1.7850    4.0630 c3        1 1O2     -0.076400
     20 CAS        -3.6870   -1.0440    5.1720 c3        1 1O2     -0.079400
     21 CAT        -4.3920   -1.2360    6.4980 c3        1 1O2     -0.078400
     22 CAU        -3.6800   -0.4930    7.6080 c3        1 1O2     -0.079400
     23 CAV        -4.3840   -0.6850    8.9350 c3        1 1O2     -0.079400
     24 CAW        -3.6730    0.0580   10.0460 c3        1 1O2     -0.079400
     25 CAX        -4.3760   -0.1340   11.3720 c3        1 1O2     -0.079400
     26 CAY        -3.6650    0.6080   12.4830 c3        1 1O2     -0.079400
     27 CAZ        -4.3680    0.4160   13.8100 c3        1 1O2     -0.079400
     28 CBA        -3.6570    1.1590   14.9210 c3        1 1O2     -0.079400
     29 CBB        -4.3600    0.9670   16.2480 c3        1 1O2     -0.079400
     30 CBC        -3.6490    1.7090   17.3590 c3        1 1O2     -0.079400
     31 CBD        -4.3510    1.5180   18.6870 c3        1 1O2     -0.080400
     32 CBE        -3.6470    2.2560   19.7960 c3        1 1O2     -0.092100
     33 CBF        -3.3470   -4.2980   -1.1290 c3        1 1O2      0.140400
     34 OBG        -2.0340   -4.2000   -0.5810 os        1 1O2     -0.413900
     35 CBH        -1.0100   -3.7720   -1.3770 c         1 1O2      0.647100
     36 OBI        -1.2220   -3.5440   -2.5710 o         1 1O2     -0.563000
     37 CBJ         0.2800   -3.6520   -0.6230 c3        1 1O2     -0.128400
     38 CBK         1.4060   -4.3400   -1.3660 c3        1 1O2     -0.079400
     39 CBL         2.7310   -4.1000   -0.6740 c3        1 1O2     -0.079400
     40 CBM         3.8580   -4.8030   -1.3980 c3        1 1O2     -0.079400
     41 CBN         5.1850   -4.5610   -0.7120 c3        1 1O2     -0.079400
     42 CBO         6.3130   -5.2660   -1.4350 c3        1 1O2     -0.077400
     43 CBP         7.6400   -5.0220   -0.7470 c3        1 1O2     -0.048200
     44 CBQ         8.7620   -5.7030   -1.4340 c2        1 1O2     -0.175200
     45 CBR        10.0310   -5.6510   -1.0130 c2        1 1O2     -0.172200
     46 CBS        10.4690   -4.9070    0.1920 c3        1 1O2     -0.049200
     47 CBT        11.9620   -5.0110    0.4200 c3        1 1O2     -0.077400
     48 CBU        12.3800   -4.2420    1.6560 c3        1 1O2     -0.079400
     49 CBV        13.8730   -4.3440    1.8860 c3        1 1O2     -0.079400
     50 CBW        14.2920   -3.5760    3.1220 c3        1 1O2     -0.079400
     51 CBX        15.7840   -3.6780    3.3520 c3        1 1O2     -0.079400
     52 CBZ        16.2040   -2.9100    4.5870 c3        1 1O2     -0.080400
     53 CCA        17.6900   -3.0080    4.8210 c3        1 1O2     -0.092100
     54 H1         -4.3130   -0.1370   -3.1810 h2        1 1O2      0.090700
     55 H2         -2.1840    0.8360   -4.0170 h1        1 1O2      0.103700
     56 HO2        -2.0010   -1.9970   -3.9840 ho        1 1O2      0.439000
     57 H3         -0.7050   -1.1650   -2.1340 h1        1 1O2      0.065700
     58 HO3         0.2500   -0.2630   -4.1480 ho        1 1O2      0.428000
     59 H4         -0.1160    0.7960   -0.7390 h1        1 1O2      0.051700
     60 HO4        -0.2950    2.3010   -2.5650 ho        1 1O2      0.424000
     61 H5         -2.2050   -0.3710   -0.1510 h1        1 1O2      0.071700
     62 H6         -1.6730    1.8610    1.0270 h1        1 1O2      0.066200
     63 H6A        -2.7790    2.7010   -0.1800 h1        1 1O2      0.066200
     64 HO6        -4.4180    1.3020    0.6570 ho        1 1O2      0.415000
     65 HAL        -5.1820   -2.4460   -2.3710 h1        1 1O2      0.054200
     66 HALA       -5.0940   -1.2520   -0.9720 h1        1 1O2      0.054200
     67 HAM        -5.2620   -3.6970   -0.2790 h1        1 1O2      0.084700
     68 HAQ        -2.6610   -2.0630    2.7860 hc        1 1O2      0.091700
     69 HAQA       -3.5590   -0.5060    2.5090 hc        1 1O2      0.091700
     70 HAR        -4.4650   -2.8770    4.3130 hc        1 1O2      0.055200
     71 HARA       -5.4570   -1.4070    3.9680 hc        1 1O2      0.055200
     72 HAS        -2.6310   -1.4130    5.2500 hc        1 1O2      0.043200
     73 HASA       -3.6390    0.0490    4.9250 hc        1 1O2      0.043200
     74 HAT        -5.4490   -0.8700    6.4170 hc        1 1O2      0.041700
     75 HATA       -4.4380   -2.3290    6.7450 hc        1 1O2      0.041700
     76 HAU        -2.6220   -0.8580    7.6870 hc        1 1O2      0.040200
     77 HAUA       -3.6350    0.6000    7.3610 hc        1 1O2      0.040200
     78 HAV        -5.4420   -0.3200    8.8550 hc        1 1O2      0.040200
     79 HAVA       -4.4290   -1.7780    9.1820 hc        1 1O2      0.040200
     80 HAW        -3.6280    1.1510    9.7990 hc        1 1O2      0.039200
     81 HAWA       -2.6150   -0.3070   10.1250 hc        1 1O2      0.039200
     82 HAX        -5.4340    0.2300   11.2930 hc        1 1O2      0.039700
     83 HAXA       -4.4210   -1.2280   11.6200 hc        1 1O2      0.039700
     84 HAY        -2.6070    0.2440   12.5620 hc        1 1O2      0.039700
     85 HAYA       -3.6200    1.7020   12.2360 hc        1 1O2      0.039700
     86 HAZ        -5.4260    0.7810   13.7310 hc        1 1O2      0.039700
     87 HAZA       -4.4130   -0.6770   14.0570 hc        1 1O2      0.039700
     88 HBA        -3.6120    2.2520   14.6740 hc        1 1O2      0.039700
     89 HBAA       -2.5990    0.7950   15.0000 hc        1 1O2      0.039700
     90 HBB        -4.4050   -0.1270   16.4950 hc        1 1O2      0.039700
     91 HBBA       -5.4180    1.3310   16.1690 hc        1 1O2      0.039700
     92 HBC        -3.6050    2.8030   17.1120 hc        1 1O2      0.039700
     93 HBCA       -2.5910    1.3450   17.4380 hc        1 1O2      0.039700
     94 HBD        -4.3960    0.4240   18.9310 hc        1 1O2      0.038700
     95 HBDA       -5.4100    1.8810   18.6050 hc        1 1O2      0.038700
     96 HBE        -2.5980    1.8900   19.9090 hc        1 1O2      0.032700
     97 HBEA       -3.6140    3.3510   19.5820 hc        1 1O2      0.032700
     98 HBEB       -4.1810    2.1010   20.7650 hc        1 1O2      0.032700
     99 HBF        -3.6980   -5.3160   -0.8090 h1        1 1O2      0.074200
    100 HBFA       -3.3330   -4.2160   -2.2480 h1        1 1O2      0.074200
    101 HBJ         0.4980   -2.5550   -0.5130 hc        1 1O2      0.079700
    102 HBJA        0.1620   -4.0870    0.4040 hc        1 1O2      0.079700
    103 HBK         1.4490   -3.9560   -2.4200 hc        1 1O2      0.056700
    104 HBKA        1.2020   -5.4420   -1.4210 hc        1 1O2      0.056700
    105 HBL         2.9400   -2.9980   -0.6320 hc        1 1O2      0.042200
    106 HBLA        2.6750   -4.4680    0.3850 hc        1 1O2      0.042200
    107 HBM         3.6510   -5.9050   -1.4380 hc        1 1O2      0.042700
    108 HBMA        3.9100   -4.4380   -2.4580 hc        1 1O2      0.042700
    109 HBN         5.1330   -4.9240    0.3480 hc        1 1O2      0.040200
    110 HBNA        5.3940   -3.4590   -0.6740 hc        1 1O2      0.040200
    111 HBO         6.1050   -6.3680   -1.4720 hc        1 1O2      0.042200
    112 HBOA        6.3660   -4.9030   -2.4950 hc        1 1O2      0.042200
    113 HBP         7.5830   -5.3780    0.3190 hc        1 1O2      0.047200
    114 HBPA        7.8440   -3.9160   -0.7050 hc        1 1O2      0.047200
    115 HBQ         8.5000   -6.2740   -2.3390 ha        1 1O2      0.122000
    116 HBR        10.8230   -6.1790   -1.5680 ha        1 1O2      0.122000
    117 HBS        10.1780   -3.8250    0.0890 hc        1 1O2      0.047700
    118 HBSA        9.9220   -5.3020    1.0930 hc        1 1O2      0.047700
    119 HBT        12.2520   -6.0890    0.5320 hc        1 1O2      0.041700
    120 HBTA       12.5090   -4.6110   -0.4740 hc        1 1O2      0.041700
    121 HBU        11.8340   -4.6420    2.5500 hc        1 1O2      0.039700
    122 HBUA       12.0900   -3.1640    1.5450 hc        1 1O2      0.039700
    123 HBV        14.4200   -3.9450    0.9920 hc        1 1O2      0.039700
    124 HBVA       14.1640   -5.4220    1.9970 hc        1 1O2      0.039700
    125 HBW        14.0010   -2.4980    3.0110 hc        1 1O2      0.039700
    126 HBWA       13.7450   -3.9750    4.0160 hc        1 1O2      0.039700
    127 HBX        16.3310   -3.2780    2.4580 hc        1 1O2      0.039700
    128 HBXA       16.0750   -4.7550    3.4630 hc        1 1O2      0.039700
    129 HBZ        15.9110   -1.8330    4.4750 hc        1 1O2      0.038700
    130 HBZA       15.6550   -3.3090    5.4810 hc        1 1O2      0.038700
    131 HCA        18.2540   -2.5920    3.9520 hc        1 1O2      0.032700
    132 HCAA       17.9980   -4.0730    4.9600 hc        1 1O2      0.032700
    133 HCAB       17.9780   -2.4360    5.7350 hc        1 1O2      0.032700
@<TRIPOS>BOND
     1    1    2 1   
     2    1    3 1   
     3    1   10 1   
     4    1   54 1   
     5    2   13 1   
     6    3    4 1   
     7    3    5 1   
     8    3   55 1   
     9    4   56 1   
    10    5    6 1   
    11    5    7 1   
    12    5   57 1   
    13    6   58 1   
    14    7    8 1   
    15    7    9 1   
    16    7   59 1   
    17    8   60 1   
    18    9   10 1   
    19    9   11 1   
    20    9   61 1   
    21   11   12 1   
    22   11   62 1   
    23   11   63 1   
    24   12   64 1   
    25   13   14 1   
    26   13   65 1   
    27   13   66 1   
    28   14   15 1   
    29   14   33 1   
    30   14   67 1   
    31   15   16 1   
    32   16   17 2   
    33   16   18 1   
    34   18   19 1   
    35   18   68 1   
    36   18   69 1   
    37   19   20 1   
    38   19   70 1   
    39   19   71 1   
    40   20   21 1   
    41   20   72 1   
    42   20   73 1   
    43   21   22 1   
    44   21   74 1   
    45   21   75 1   
    46   22   23 1   
    47   22   76 1   
    48   22   77 1   
    49   23   24 1   
    50   23   78 1   
    51   23   79 1   
    52   24   25 1   
    53   24   80 1   
    54   24   81 1   
    55   25   26 1   
    56   25   82 1   
    57   25   83 1   
    58   26   27 1   
    59   26   84 1   
    60   26   85 1   
    61   27   28 1   
    62   27   86 1   
    63   27   87 1   
    64   28   29 1   
    65   28   88 1   
    66   28   89 1   
    67   29   30 1   
    68   29   90 1   
    69   29   91 1   
    70   30   31 1   
    71   30   92 1   
    72   30   93 1   
    73   31   32 1   
    74   31   94 1   
    75   31   95 1   
    76   32   96 1   
    77   32   97 1   
    78   32   98 1   
    79   33   34 1   
    80   33   99 1   
    81   33  100 1   
    82   34   35 1   
    83   35   36 2   
    84   35   37 1   
    85   37   38 1   
    86   37  101 1   
    87   37  102 1   
    88   38   39 1   
    89   38  103 1   
    90   38  104 1   
    91   39   40 1   
    92   39  105 1   
    93   39  106 1   
    94   40   41 1   
    95   40  107 1   
    96   40  108 1   
    97   41   42 1   
    98   41  109 1   
    99   41  110 1   
   100   42   43 1   
   101   42  111 1   
   102   42  112 1   
   103   43   44 1   
   104   43  113 1   
   105   43  114 1   
   106   44   45 2   
   107   44  115 1   
   108   45   46 1   
   109   45  116 1   
   110   46   47 1   
   111   46  117 1   
   112   46  118 1   
   113   47   48 1   
   114   47  119 1   
   115   47  120 1   
   116   48   49 1   
   117   48  121 1   
   118   48  122 1   
   119   49   50 1   
   120   49  123 1   
   121   49  124 1   
   122   50   51 1   
   123   50  125 1   
   124   50  126 1   
   125   51   52 1   
   126   51  127 1   
   127   51  128 1   
   128   52   53 1   
   129   52  129 1   
   130   52  130 1   
   131   53  131 1   
   132   53  132 1   
   133   53  133 1   
@<TRIPOS>SUBSTRUCTURE
     1 1O2         1 TEMP              0 ****  ****    0 ROOT
