@<TRIPOS>MOLECULE
1O2
  133   133     1     0     0
SMALL
bcc


@<TRIPOS>ATOM
      1 C1          1.0030    4.9480    2.0340 c3        1 1O2      0.297900
      2 O1          0.0090    5.8850    2.4170 os        1 1O2     -0.442600
      3 C2          0.6630    3.6230    2.7380 c3        1 1O2      0.093100
      4 O2         -0.6240    3.1640    2.3810 oh        1 1O2     -0.612800
      5 C3          0.7710    3.7890    4.2600 c3        1 1O2      0.079100
      6 O3          0.6450    2.5390    4.9180 oh        1 1O2     -0.608800
      7 C4          2.1570    4.3440    4.6280 c3        1 1O2      0.127100
      8 O4          3.1830    3.4190    4.3120 oh        1 1O2     -0.595800
      9 C5          2.4090    5.6440    3.8520 c3        1 1O2      0.106100
     10 O5          2.2360    5.4950    2.4380 os        1 1O2     -0.433600
     11 C6          3.8530    6.1230    4.0330 c3        1 1O2      0.142400
     12 O6          4.0500    7.3820    3.4260 oh        1 1O2     -0.599800
     13 CAL        -0.2210    6.9410    1.4980 c3        1 1O2      0.139400
     14 CAM        -1.4090    6.6580    0.5690 c3        1 1O2      0.087100
     15 OAN        -2.1730    5.5950    1.1510 os        1 1O2     -0.438900
     16 CAO        -3.5420    5.7000    1.1510 c         1 1O2      0.643100
     17 OAP        -4.0550    6.7500    0.7630 o         1 1O2     -0.536000
     18 CAQ        -4.2040    4.4560    1.6570 c3        1 1O2     -0.122400
     19 CAR        -4.8590    3.7140    0.5070 c3        1 1O2     -0.086400
     20 CAS        -5.5250    2.4480    1.0000 c3        1 1O2     -0.076400
     21 CAT        -6.1890    1.7060   -0.1400 c3        1 1O2     -0.079400
     22 CAU        -6.8520    0.4350    0.3460 c3        1 1O2     -0.078400
     23 CAV        -7.5160   -0.3070   -0.7930 c3        1 1O2     -0.079400
     24 CAW        -8.1780   -1.5790   -0.3090 c3        1 1O2     -0.078400
     25 CAX        -8.8430   -2.3210   -1.4480 c3        1 1O2     -0.079400
     26 CAY        -9.5050   -3.5930   -0.9640 c3        1 1O2     -0.079400
     27 CAZ       -10.1690   -4.3360   -2.1040 c3        1 1O2     -0.079400
     28 CBA       -10.8310   -5.6080   -1.6200 c3        1 1O2     -0.078400
     29 CBB       -11.4950   -6.3500   -2.7590 c3        1 1O2     -0.079400
     30 CBC       -12.1560   -7.6220   -2.2750 c3        1 1O2     -0.079400
     31 CBD       -12.8210   -8.3660   -3.4140 c3        1 1O2     -0.080400
     32 CBE       -13.4810   -9.6340   -2.9370 c3        1 1O2     -0.092100
     33 CBF        -1.0020    6.2520   -0.8500 c3        1 1O2      0.112400
     34 OBG        -0.2530    5.0370   -0.8410 os        1 1O2     -0.448900
     35 CBH        -0.8960    3.8650   -1.1560 c         1 1O2      0.646100
     36 OBI        -2.0570    3.9180   -1.5630 o         1 1O2     -0.543000
     37 CBJ        -0.0500    2.6530   -0.9220 c3        1 1O2     -0.136400
     38 CBK         1.3190    2.7690   -1.5550 c3        1 1O2     -0.077400
     39 CBL         2.1530    1.5410   -1.2560 c3        1 1O2     -0.079400
     40 CBM         3.5220    1.6450   -1.8950 c3        1 1O2     -0.079400
     41 CBN         4.3590    0.4190   -1.5960 c3        1 1O2     -0.079400
     42 CBO         5.7250    0.5200   -2.2400 c3        1 1O2     -0.077400
     43 CBP         6.5620   -0.7070   -1.9400 c3        1 1O2     -0.048200
     44 CBQ         7.9050   -0.6370   -2.5620 c2        1 1O2     -0.175200
     45 CBR         8.8200   -1.6070   -2.4620 c2        1 1O2     -0.172200
     46 CBS         8.6030   -2.8700   -1.7190 c3        1 1O2     -0.049200
     47 CBT         9.8170   -3.7750   -1.7550 c3        1 1O2     -0.077400
     48 CBU         9.5670   -5.0560   -0.9880 c3        1 1O2     -0.079400
     49 CBV        10.7790   -5.9620   -1.0230 c3        1 1O2     -0.079400
     50 CBW        10.5300   -7.2430   -0.2560 c3        1 1O2     -0.079400
     51 CBX        11.7420   -8.1490   -0.2900 c3        1 1O2     -0.079400
     52 CBZ        11.4940   -9.4310    0.4760 c3        1 1O2     -0.080400
     53 CCA        12.6980  -10.3360    0.4450 c3        1 1O2     -0.092100
     54 H1          1.0820    4.8200    0.9160 h2        1 1O2      0.112700
     55 H2          1.3770    2.8230    2.3920 h1        1 1O2      0.100700
     56 HO2        -1.2230    3.9270    2.3980 ho        1 1O2      0.434000
     57 H3         -0.0320    4.4890    4.6230 h1        1 1O2      0.063700
     58 HO3        -0.1050    2.0860    4.5100 ho        1 1O2      0.424000
     59 H4          2.1850    4.5620    5.7330 h1        1 1O2      0.056700
     60 HO4         2.9260    2.5770    4.7140 ho        1 1O2      0.422000
     61 H5          1.6810    6.4220    4.2150 h1        1 1O2      0.068700
     62 H6          4.0620    6.2830    5.1230 h1        1 1O2      0.064700
     63 H6A         4.5590    5.3610    3.6100 h1        1 1O2      0.064700
     64 HO6         3.8710    7.2710    2.4830 ho        1 1O2      0.410000
     65 HAL        -0.4650    7.8200    2.1560 h1        1 1O2      0.064200
     66 HALA        0.6960    7.1590    0.8910 h1        1 1O2      0.064200
     67 HAM        -2.0330    7.5950    0.4870 h1        1 1O2      0.094700
     68 HAQ        -3.4460    3.7990    2.1590 hc        1 1O2      0.074700
     69 HAQA       -4.9720    4.7580    2.4170 hc        1 1O2      0.074700
     70 HAR        -5.6180    4.3800    0.0180 hc        1 1O2      0.067200
     71 HARA       -4.0830    3.4630   -0.2680 hc        1 1O2      0.067200
     72 HAS        -4.7630    1.7850    1.4880 hc        1 1O2      0.039700
     73 HASA       -6.2910    2.7020    1.7800 hc        1 1O2      0.039700
     74 HAT        -6.9550    2.3680   -0.6240 hc        1 1O2      0.044700
     75 HATA       -5.4240    1.4580   -0.9220 hc        1 1O2      0.044700
     76 HAU        -6.0860   -0.2270    0.8300 hc        1 1O2      0.038700
     77 HAUA       -7.6160    0.6840    1.1290 hc        1 1O2      0.038700
     78 HAV        -8.2820    0.3550   -1.2770 hc        1 1O2      0.040700
     79 HAVA       -6.7530   -0.5550   -1.5770 hc        1 1O2      0.040700
     80 HAW        -7.4130   -2.2410    0.1750 hc        1 1O2      0.039200
     81 HAWA       -8.9430   -1.3310    0.4740 hc        1 1O2      0.039200
     82 HAX        -9.6090   -1.6590   -1.9320 hc        1 1O2      0.039700
     83 HAXA       -8.0790   -2.5700   -2.2320 hc        1 1O2      0.039700
     84 HAY        -8.7390   -4.2550   -0.4800 hc        1 1O2      0.039700
     85 HAYA      -10.2690   -3.3450   -0.1810 hc        1 1O2      0.039700
     86 HAZ       -10.9350   -3.6740   -2.5880 hc        1 1O2      0.039700
     87 HAZA       -9.4050   -4.5840   -2.8870 hc        1 1O2      0.039700
     88 HBA       -10.0650   -6.2690   -1.1350 hc        1 1O2      0.039700
     89 HBAA      -11.5950   -5.3600   -0.8370 hc        1 1O2      0.039700
     90 HBB       -12.2610   -5.6890   -3.2440 hc        1 1O2      0.039700
     91 HBBA      -10.7300   -6.5980   -3.5420 hc        1 1O2      0.039700
     92 HBC       -11.3910   -8.2840   -1.7910 hc        1 1O2      0.039700
     93 HBCA      -12.9210   -7.3750   -1.4930 hc        1 1O2      0.039700
     94 HBD       -13.5850   -7.7020   -3.8990 hc        1 1O2      0.038700
     95 HBDA      -12.0550   -8.6120   -4.1970 hc        1 1O2      0.038700
     96 HBE       -12.7310  -10.3190   -2.4740 hc        1 1O2      0.032700
     97 HBEA      -14.2650   -9.4070   -2.1750 hc        1 1O2      0.032700
     98 HBEB      -13.9640  -10.1660   -3.7920 hc        1 1O2      0.032700
     99 HBF        -1.9150    6.1590   -1.4970 h1        1 1O2      0.079700
    100 HBFA       -0.2940    7.0120   -1.2760 h1        1 1O2      0.079700
    101 HBJ         0.0440    2.5270    0.1950 hc        1 1O2      0.088200
    102 HBJA       -0.5990    1.7630   -1.3310 hc        1 1O2      0.088200
    103 HBK         1.2140    2.8940   -2.6640 hc        1 1O2      0.053700
    104 HBKA        1.8350    3.6860   -1.1630 hc        1 1O2      0.053700
    105 HBL         2.2640    1.4230   -0.1460 hc        1 1O2      0.042700
    106 HBLA        1.6280    0.6260   -1.6370 hc        1 1O2      0.042700
    107 HBM         3.4110    1.7630   -3.0060 hc        1 1O2      0.042700
    108 HBMA        4.0460    2.5610   -1.5150 hc        1 1O2      0.042700
    109 HBN         4.4740    0.3040   -0.4860 hc        1 1O2      0.040700
    110 HBNA        3.8320   -0.4970   -1.9720 hc        1 1O2      0.040700
    111 HBO         5.6110    0.6340   -3.3500 hc        1 1O2      0.042200
    112 HBOA        6.2520    1.4360   -1.8650 hc        1 1O2      0.042200
    113 HBP         6.6730   -0.8220   -0.8260 hc        1 1O2      0.047700
    114 HBPA        6.0270   -1.6260   -2.3060 hc        1 1O2      0.047700
    115 HBQ         8.1270    0.2810   -3.1300 ha        1 1O2      0.122000
    116 HBR         9.8030   -1.4960   -2.9480 ha        1 1O2      0.122000
    117 HBS         8.3410   -2.6350   -0.6500 hc        1 1O2      0.047700
    118 HBSA        7.7180   -3.4120   -2.1540 hc        1 1O2      0.047700
    119 HBT        10.0740   -4.0180   -2.8200 hc        1 1O2      0.041700
    120 HBTA       10.6990   -3.2390   -1.3150 hc        1 1O2      0.041700
    121 HBU         9.3090   -4.8130    0.0770 hc        1 1O2      0.039700
    122 HBUA        8.6840   -5.5920   -1.4270 hc        1 1O2      0.039700
    123 HBV        11.0370   -6.2050   -2.0870 hc        1 1O2      0.039700
    124 HBVA       11.6620   -5.4260   -0.5840 hc        1 1O2      0.039700
    125 HBW        10.2720   -7.0000    0.8090 hc        1 1O2      0.039700
    126 HBWA        9.6470   -7.7790   -0.6950 hc        1 1O2      0.039700
    127 HBX        12.0000   -8.3920   -1.3550 hc        1 1O2      0.039700
    128 HBXA       12.6240   -7.6130    0.1490 hc        1 1O2      0.039700
    129 HBZ        11.2350   -9.1850    1.5400 hc        1 1O2      0.038700
    130 HBZA       10.6100   -9.9640    0.0360 hc        1 1O2      0.038700
    131 HCA        12.4940  -11.2740    1.0160 hc        1 1O2      0.032700
    132 HCAA       12.9570  -10.6110   -0.6060 hc        1 1O2      0.032700
    133 HCAB       13.5830   -9.8300    0.9020 hc        1 1O2      0.032700
@<TRIPOS>BOND
     1    1    2 1   
     2    1    3 1   
     3    1   10 1   
     4    1   54 1   
     5    2   13 1   
     6    3    4 1   
     7    3    5 1   
     8    3   55 1   
     9    4   56 1   
    10    5    6 1   
    11    5    7 1   
    12    5   57 1   
    13    6   58 1   
    14    7    8 1   
    15    7    9 1   
    16    7   59 1   
    17    8   60 1   
    18    9   10 1   
    19    9   11 1   
    20    9   61 1   
    21   11   12 1   
    22   11   62 1   
    23   11   63 1   
    24   12   64 1   
    25   13   14 1   
    26   13   65 1   
    27   13   66 1   
    28   14   15 1   
    29   14   33 1   
    30   14   67 1   
    31   15   16 1   
    32   16   17 2   
    33   16   18 1   
    34   18   19 1   
    35   18   68 1   
    36   18   69 1   
    37   19   20 1   
    38   19   70 1   
    39   19   71 1   
    40   20   21 1   
    41   20   72 1   
    42   20   73 1   
    43   21   22 1   
    44   21   74 1   
    45   21   75 1   
    46   22   23 1   
    47   22   76 1   
    48   22   77 1   
    49   23   24 1   
    50   23   78 1   
    51   23   79 1   
    52   24   25 1   
    53   24   80 1   
    54   24   81 1   
    55   25   26 1   
    56   25   82 1   
    57   25   83 1   
    58   26   27 1   
    59   26   84 1   
    60   26   85 1   
    61   27   28 1   
    62   27   86 1   
    63   27   87 1   
    64   28   29 1   
    65   28   88 1   
    66   28   89 1   
    67   29   30 1   
    68   29   90 1   
    69   29   91 1   
    70   30   31 1   
    71   30   92 1   
    72   30   93 1   
    73   31   32 1   
    74   31   94 1   
    75   31   95 1   
    76   32   96 1   
    77   32   97 1   
    78   32   98 1   
    79   33   34 1   
    80   33   99 1   
    81   33  100 1   
    82   34   35 1   
    83   35   36 2   
    84   35   37 1   
    85   37   38 1   
    86   37  101 1   
    87   37  102 1   
    88   38   39 1   
    89   38  103 1   
    90   38  104 1   
    91   39   40 1   
    92   39  105 1   
    93   39  106 1   
    94   40   41 1   
    95   40  107 1   
    96   40  108 1   
    97   41   42 1   
    98   41  109 1   
    99   41  110 1   
   100   42   43 1   
   101   42  111 1   
   102   42  112 1   
   103   43   44 1   
   104   43  113 1   
   105   43  114 1   
   106   44   45 2   
   107   44  115 1   
   108   45   46 1   
   109   45  116 1   
   110   46   47 1   
   111   46  117 1   
   112   46  118 1   
   113   47   48 1   
   114   47  119 1   
   115   47  120 1   
   116   48   49 1   
   117   48  121 1   
   118   48  122 1   
   119   49   50 1   
   120   49  123 1   
   121   49  124 1   
   122   50   51 1   
   123   50  125 1   
   124   50  126 1   
   125   51   52 1   
   126   51  127 1   
   127   51  128 1   
   128   52   53 1   
   129   52  129 1   
   130   52  130 1   
   131   53  131 1   
   132   53  132 1   
   133   53  133 1   
@<TRIPOS>SUBSTRUCTURE
     1 1O2         1 TEMP              0 ****  ****    0 ROOT
