@<TRIPOS>MOLECULE
1O2
  133   133     1     0     0
SMALL
bcc


@<TRIPOS>ATOM
      1 C1         -0.4620   -0.4080   -0.1530 c3        1 1O2      0.338900
      2 O1         -0.7320   -1.6910    0.3760 os        1 1O2     -0.425600
      3 C2          1.0380   -0.1040    0.0250 c3        1 1O2      0.135100
      4 O2          1.7750   -1.0630   -0.7050 oh        1 1O2     -0.586800
      5 C3          1.3900   -0.1400    1.5190 c3        1 1O2      0.062100
      6 O3          2.7540    0.2490    1.6150 oh        1 1O2     -0.613800
      7 C4          0.5000    0.8530    2.2830 c3        1 1O2      0.095100
      8 O4          0.7900    2.1980    1.9430 oh        1 1O2     -0.593800
      9 C5         -0.9770    0.5720    1.9780 c3        1 1O2      0.100100
     10 O5         -1.2540    0.5090    0.5740 os        1 1O2     -0.441600
     11 C6         -1.8720    1.6910    2.5190 c3        1 1O2      0.142400
     12 O6         -3.2250    1.2860    2.5480 oh        1 1O2     -0.609800
     13 CAL        -1.9760   -2.2430   -0.0560 c3        1 1O2      0.128400
     14 CAM        -2.5610   -3.1100    1.0600 c3        1 1O2      0.122100
     15 OAN        -2.4940   -2.3280    2.2620 os        1 1O2     -0.432900
     16 CAO        -3.4520   -2.5420    3.2200 c         1 1O2      0.634100
     17 OAP        -4.2670   -3.4490    3.0410 o         1 1O2     -0.549000
     18 CAQ        -3.3250   -1.5790    4.3570 c3        1 1O2     -0.138400
     19 CAR        -4.3870   -1.8230    5.4070 c3        1 1O2     -0.075400
     20 CAS        -4.2580   -0.8290    6.5410 c3        1 1O2     -0.079400
     21 CAT        -5.3190   -1.0660    7.5950 c3        1 1O2     -0.078400
     22 CAU        -5.1950   -0.0730    8.7300 c3        1 1O2     -0.079400
     23 CAV        -6.2570   -0.3090    9.7830 c3        1 1O2     -0.079400
     24 CAW        -6.1350    0.6850   10.9180 c3        1 1O2     -0.078400
     25 CAX        -7.1970    0.4500   11.9700 c3        1 1O2     -0.079400
     26 CAY        -7.0760    1.4440   13.1050 c3        1 1O2     -0.078400
     27 CAZ        -8.1400    1.2100   14.1570 c3        1 1O2     -0.079400
     28 CBA        -8.0200    2.2050   15.2910 c3        1 1O2     -0.078400
     29 CBB        -9.0840    1.9710   16.3420 c3        1 1O2     -0.079400
     30 CBC        -8.9640    2.9660   17.4760 c3        1 1O2     -0.079400
     31 CBD       -10.0290    2.7340   18.5280 c3        1 1O2     -0.080400
     32 CBE        -9.9140    3.7220   19.6590 c3        1 1O2     -0.092100
     33 CBF        -1.8680   -4.4580    1.2540 c3        1 1O2      0.117400
     34 OBG        -0.4470   -4.3510    1.3010 os        1 1O2     -0.426900
     35 CBH         0.2560   -4.5490    0.1400 c         1 1O2      0.648100
     36 OBI        -0.3620   -4.8800   -0.8750 o         1 1O2     -0.558000
     37 CBJ         1.7210   -4.3030    0.3140 c3        1 1O2     -0.133400
     38 CBK         2.5410   -5.2240   -0.5640 c3        1 1O2     -0.078400
     39 CBL         4.0080   -4.8600   -0.5000 c3        1 1O2     -0.077400
     40 CBM         4.8370   -5.7870   -1.3630 c3        1 1O2     -0.079400
     41 CBN         6.3040   -5.4210   -1.3110 c3        1 1O2     -0.079400
     42 CBO         7.1320   -6.3510   -2.1710 c3        1 1O2     -0.077400
     43 CBP         8.6000   -5.9800   -2.1220 c3        1 1O2     -0.048200
     44 CBQ         9.4340   -6.8760   -2.9570 c2        1 1O2     -0.174200
     45 CBR        10.7540   -6.7270   -3.1150 c2        1 1O2     -0.173200
     46 CBS        11.5430   -5.6460   -2.4790 c3        1 1O2     -0.049200
     47 CBT        13.0200   -5.7460   -2.8010 c3        1 1O2     -0.077400
     48 CBU        13.8000   -4.6310   -2.1400 c3        1 1O2     -0.079400
     49 CBV        15.2760   -4.7280   -2.4610 c3        1 1O2     -0.079400
     50 CBW        16.0570   -3.6130   -1.8000 c3        1 1O2     -0.079400
     51 CBX        17.5330   -3.7100   -2.1220 c3        1 1O2     -0.079400
     52 CBZ        18.3160   -2.5950   -1.4620 c3        1 1O2     -0.080400
     53 CCA        19.7860   -2.6880   -1.7800 c3        1 1O2     -0.092100
     54 H1         -0.7810   -0.2980   -1.2250 h2        1 1O2      0.093700
     55 H2          1.2360    0.9300   -0.3780 h1        1 1O2      0.070700
     56 HO2         2.7080   -0.8640   -0.5430 ho        1 1O2      0.420000
     57 H3          1.2410   -1.1820    1.9170 h1        1 1O2      0.085700
     58 HO3         3.0390    0.0540    2.5150 ho        1 1O2      0.414000
     59 H4          0.6720    0.7280    3.3910 h1        1 1O2      0.043700
     60 HO4         1.7410    2.2520    1.7680 ho        1 1O2      0.416000
     61 H5         -1.2580   -0.4210    2.4360 h1        1 1O2      0.090700
     62 H6         -1.7440    2.6150    1.8970 h1        1 1O2      0.065200
     63 H6A        -1.6040    1.9060    3.5870 h1        1 1O2      0.065200
     64 HO6        -3.4760    1.0800    1.6390 ho        1 1O2      0.413000
     65 HAL        -2.7020   -1.4260   -0.3100 h1        1 1O2      0.061200
     66 HALA       -1.7720   -2.8900   -0.9510 h1        1 1O2      0.061200
     67 HAM        -3.6430   -3.3220    0.8130 h1        1 1O2      0.080700
     68 HAQ        -3.4050   -0.5340    3.9410 hc        1 1O2      0.090200
     69 HAQA       -2.2990   -1.6870    4.8000 hc        1 1O2      0.090200
     70 HAR        -5.4030   -1.7390    4.9370 hc        1 1O2      0.056200
     71 HARA       -4.2950   -2.8690    5.8000 hc        1 1O2      0.056200
     72 HAS        -4.3520    0.2150    6.1400 hc        1 1O2      0.041700
     73 HASA       -3.2410   -0.9160    7.0060 hc        1 1O2      0.041700
     74 HAT        -5.2250   -2.1100    7.9950 hc        1 1O2      0.042700
     75 HATA       -6.3360   -0.9810    7.1290 hc        1 1O2      0.042700
     76 HAU        -4.1780   -0.1590    9.1960 hc        1 1O2      0.039700
     77 HAUA       -5.2880    0.9710    8.3290 hc        1 1O2      0.039700
     78 HAV        -7.2740   -0.2240    9.3170 hc        1 1O2      0.040200
     79 HAVA       -6.1640   -1.3520   10.1840 hc        1 1O2      0.040200
     80 HAW        -5.1180    0.5990   11.3850 hc        1 1O2      0.039200
     81 HAWA       -6.2270    1.7280   10.5170 hc        1 1O2      0.039200
     82 HAX        -7.1050   -0.5930   12.3730 hc        1 1O2      0.039700
     83 HAXA       -8.2140    0.5350   11.5030 hc        1 1O2      0.039700
     84 HAY        -7.1680    2.4870   12.7030 hc        1 1O2      0.039200
     85 HAYA       -6.0600    1.3590   13.5730 hc        1 1O2      0.039200
     86 HAZ        -9.1560    1.2940   13.6890 hc        1 1O2      0.039700
     87 HAZA       -8.0480    0.1670   14.5590 hc        1 1O2      0.039700
     88 HBA        -8.1120    3.2480   14.8880 hc        1 1O2      0.039700
     89 HBAA       -7.0040    2.1200   15.7590 hc        1 1O2      0.039700
     90 HBB       -10.1000    2.0550   15.8730 hc        1 1O2      0.039700
     91 HBBA       -8.9920    0.9280   16.7450 hc        1 1O2      0.039700
     92 HBC        -7.9490    2.8820   17.9450 hc        1 1O2      0.039700
     93 HBCA       -9.0570    4.0090   17.0730 hc        1 1O2      0.039700
     94 HBD       -11.0440    2.8170   18.0560 hc        1 1O2      0.038700
     95 HBDA       -9.9360    1.6900   18.9290 hc        1 1O2      0.038700
     96 HBE        -8.9170    3.6380   20.1570 hc        1 1O2      0.032700
     97 HBEA      -10.7070    3.5330   20.4220 hc        1 1O2      0.032700
     98 HBEB      -10.0280    4.7680   19.2830 hc        1 1O2      0.032700
     99 HBF        -2.1870   -5.1590    0.4380 h1        1 1O2      0.080200
    100 HBFA       -2.1400   -4.8750    2.2620 h1        1 1O2      0.080200
    101 HBJ         2.0010   -4.4290    1.3920 hc        1 1O2      0.086200
    102 HBJA        1.8960   -3.2250    0.0330 hc        1 1O2      0.086200
    103 HBK         2.1730   -5.1550   -1.6220 hc        1 1O2      0.056700
    104 HBKA        2.3980   -6.2860   -0.2330 hc        1 1O2      0.056700
    105 HBL         4.3660   -4.9150    0.5620 hc        1 1O2      0.038700
    106 HBLA        4.1490   -3.8010   -0.8430 hc        1 1O2      0.038700
    107 HBM         4.7000   -6.8460   -1.0170 hc        1 1O2      0.043200
    108 HBMA        4.4740   -5.7370   -2.4240 hc        1 1O2      0.043200
    109 HBN         6.6670   -5.4680   -0.2500 hc        1 1O2      0.039200
    110 HBNA        6.4410   -4.3630   -1.6600 hc        1 1O2      0.039200
    111 HBO         6.7680   -6.3060   -3.2320 hc        1 1O2      0.042200
    112 HBOA        6.9990   -7.4080   -1.8190 hc        1 1O2      0.042200
    113 HBP         8.9620   -6.0190   -1.0580 hc        1 1O2      0.046700
    114 HBPA        8.7310   -4.9170   -2.4670 hc        1 1O2      0.046700
    115 HBQ         8.9030   -7.7010   -3.4580 ha        1 1O2      0.122000
    116 HBR        11.3200   -7.4290   -3.7490 ha        1 1O2      0.122000
    117 HBS        11.1510   -4.6480   -2.8210 hc        1 1O2      0.047200
    118 HBSA       11.3980   -5.6840   -1.3640 hc        1 1O2      0.047200
    119 HBT        13.4140   -6.7380   -2.4550 hc        1 1O2      0.041700
    120 HBTA       13.1670   -5.7010   -3.9120 hc        1 1O2      0.041700
    121 HBU        13.6530   -4.6760   -1.0280 hc        1 1O2      0.039700
    122 HBUA       13.4050   -3.6390   -2.4850 hc        1 1O2      0.039700
    123 HBV        15.6710   -5.7200   -2.1150 hc        1 1O2      0.039700
    124 HBVA       15.4230   -4.6840   -3.5720 hc        1 1O2      0.039700
    125 HBW        15.9110   -3.6580   -0.6890 hc        1 1O2      0.039200
    126 HBWA       15.6620   -2.6210   -2.1460 hc        1 1O2      0.039200
    127 HBX        17.6800   -3.6650   -3.2330 hc        1 1O2      0.039700
    128 HBXA       17.9290   -4.7010   -1.7760 hc        1 1O2      0.039700
    129 HBZ        17.9170   -1.6040   -1.8080 hc        1 1O2      0.038200
    130 HBZA       18.1660   -2.6400   -0.3510 hc        1 1O2      0.038200
    131 HCA        20.2060   -3.6580   -1.4210 hc        1 1O2      0.032700
    132 HCAA       20.3430   -1.8570   -1.2840 hc        1 1O2      0.032700
    133 HCAB       19.9560   -2.6190   -2.8810 hc        1 1O2      0.032700
@<TRIPOS>BOND
     1    1    2 1   
     2    1    3 1   
     3    1   10 1   
     4    1   54 1   
     5    2   13 1   
     6    3    4 1   
     7    3    5 1   
     8    3   55 1   
     9    4   56 1   
    10    5    6 1   
    11    5    7 1   
    12    5   57 1   
    13    6   58 1   
    14    7    8 1   
    15    7    9 1   
    16    7   59 1   
    17    8   60 1   
    18    9   10 1   
    19    9   11 1   
    20    9   61 1   
    21   11   12 1   
    22   11   62 1   
    23   11   63 1   
    24   12   64 1   
    25   13   14 1   
    26   13   65 1   
    27   13   66 1   
    28   14   15 1   
    29   14   33 1   
    30   14   67 1   
    31   15   16 1   
    32   16   17 2   
    33   16   18 1   
    34   18   19 1   
    35   18   68 1   
    36   18   69 1   
    37   19   20 1   
    38   19   70 1   
    39   19   71 1   
    40   20   21 1   
    41   20   72 1   
    42   20   73 1   
    43   21   22 1   
    44   21   74 1   
    45   21   75 1   
    46   22   23 1   
    47   22   76 1   
    48   22   77 1   
    49   23   24 1   
    50   23   78 1   
    51   23   79 1   
    52   24   25 1   
    53   24   80 1   
    54   24   81 1   
    55   25   26 1   
    56   25   82 1   
    57   25   83 1   
    58   26   27 1   
    59   26   84 1   
    60   26   85 1   
    61   27   28 1   
    62   27   86 1   
    63   27   87 1   
    64   28   29 1   
    65   28   88 1   
    66   28   89 1   
    67   29   30 1   
    68   29   90 1   
    69   29   91 1   
    70   30   31 1   
    71   30   92 1   
    72   30   93 1   
    73   31   32 1   
    74   31   94 1   
    75   31   95 1   
    76   32   96 1   
    77   32   97 1   
    78   32   98 1   
    79   33   34 1   
    80   33   99 1   
    81   33  100 1   
    82   34   35 1   
    83   35   36 2   
    84   35   37 1   
    85   37   38 1   
    86   37  101 1   
    87   37  102 1   
    88   38   39 1   
    89   38  103 1   
    90   38  104 1   
    91   39   40 1   
    92   39  105 1   
    93   39  106 1   
    94   40   41 1   
    95   40  107 1   
    96   40  108 1   
    97   41   42 1   
    98   41  109 1   
    99   41  110 1   
   100   42   43 1   
   101   42  111 1   
   102   42  112 1   
   103   43   44 1   
   104   43  113 1   
   105   43  114 1   
   106   44   45 2   
   107   44  115 1   
   108   45   46 1   
   109   45  116 1   
   110   46   47 1   
   111   46  117 1   
   112   46  118 1   
   113   47   48 1   
   114   47  119 1   
   115   47  120 1   
   116   48   49 1   
   117   48  121 1   
   118   48  122 1   
   119   49   50 1   
   120   49  123 1   
   121   49  124 1   
   122   50   51 1   
   123   50  125 1   
   124   50  126 1   
   125   51   52 1   
   126   51  127 1   
   127   51  128 1   
   128   52   53 1   
   129   52  129 1   
   130   52  130 1   
   131   53  131 1   
   132   53  132 1   
   133   53  133 1   
@<TRIPOS>SUBSTRUCTURE
     1 1O2         1 TEMP              0 ****  ****    0 ROOT
