@<TRIPOS>MOLECULE
1O3
   41    43     1     0     0
SMALL
bcc


@<TRIPOS>ATOM
      1 C1         -0.0650   -0.9510   -0.2000 ca        1 1O3      0.256900
      2 C2          1.2830   -1.3680   -0.2050 ca        1 1O3     -0.172000
      3 C3          2.0460   -1.2410    0.9520 ca        1 1O3      0.059100
      4 C4          1.4730   -0.7070    2.1140 ca        1 1O3     -0.144000
      5 C5          0.1460   -0.3030    2.1040 ca        1 1O3     -0.005000
      6 C6         -0.6610   -0.4090    0.9580 ca        1 1O3     -0.414500
      7 S7         -2.2770    0.0840    1.0980 sy        1 1O3      1.517200
      8 O8         -2.6200    0.0690    2.4650 o         1 1O3     -0.635300
      9 O9         -3.0760   -0.6700    0.2290 o         1 1O3     -0.635300
     10 N10        -2.2200    1.6630    0.6560 nh        1 1O3     -0.772500
     11 C11        -2.2610    2.2480   -0.6160 ca        1 1O3      0.192600
     12 C12        -1.9410    3.6200   -0.7840 ca        1 1O3     -0.205600
     13 C13        -1.9590    4.2140   -2.0470 ca        1 1O3     -0.070000
     14 C14        -2.3130    3.4470   -3.1620 ca        1 1O3      0.077100
     15 C15        -2.6440    2.0940   -3.0190 ca        1 1O3     -0.112000
     16 C16        -2.6200    1.5020   -1.7640 ca        1 1O3     -0.166000
     17 C17        -1.5590    4.4580    0.3700 c         1 1O3      0.637700
     18 O18        -0.4910    5.0330    0.5660 o         1 1O3     -0.465000
     19 O19        -2.4660    4.6250    1.3850 oh        1 1O3     -0.590100
     20 O20        -2.2110    4.0860   -4.3920 os        1 1O3     -0.243200
     21 C21        -3.1270    3.7050   -5.3720 ca        1 1O3      0.096100
     22 C22        -2.6480    3.7400   -6.6900 ca        1 1O3     -0.155000
     23 C23        -3.5340    3.4740   -7.7310 ca        1 1O3     -0.107000
     24 C24        -4.8700    3.1690   -7.4640 ca        1 1O3     -0.145000
     25 C25        -5.3310    3.1340   -6.1480 ca        1 1O3     -0.107000
     26 C26        -4.4640    3.4030   -5.0900 ca        1 1O3     -0.155000
     27 F27        -0.7770   -1.0840   -1.3390 f         1 1O3     -0.114900
     28 BR1         3.8350   -1.7880    0.9540 br        1 1O3     -0.050100
     29 H1          1.7060   -1.7870   -1.1310 ha        1 1O3      0.173000
     30 H2          2.0690   -0.6060    3.0350 ha        1 1O3      0.164000
     31 H3         -0.3010    0.1000    3.0340 ha        1 1O3      0.171000
     32 H4         -3.3350    4.2990    1.1110 ho        1 1O3      0.434000
     33 H5         -1.6810    5.2730   -2.1700 ha        1 1O3      0.170000
     34 H6         -2.9260    1.5010   -3.9040 ha        1 1O3      0.162000
     35 H7         -2.8820    0.4300   -1.6830 ha        1 1O3      0.183000
     36 H9         -1.5940    3.9860   -6.8830 ha        1 1O3      0.148500
     37 H10        -3.1740    3.5030   -8.7710 ha        1 1O3      0.138000
     38 H11        -5.5600    2.9570   -8.2940 ha        1 1O3      0.137000
     39 H12        -6.3850    2.8960   -5.9400 ha        1 1O3      0.138000
     40 H13        -4.8190    3.3800   -4.0500 ha        1 1O3      0.148500
     41 H102       -2.0860    2.3290    1.3910 hn        1 1O3      0.459800
@<TRIPOS>BOND
     1    1    2 ar  
     2    1    6 ar  
     3    1   27 1   
     4    2    3 ar  
     5    2   29 1   
     6    3    4 ar  
     7    3   28 1   
     8    4    5 ar  
     9    4   30 1   
    10    5    6 ar  
    11    5   31 1   
    12    6    7 1   
    13    7    8 2   
    14    7    9 2   
    15    7   10 1   
    16   10   11 1   
    17   10   41 1   
    18   11   12 ar  
    19   11   16 ar  
    20   12   13 ar  
    21   12   17 1   
    22   13   14 ar  
    23   13   33 1   
    24   14   15 ar  
    25   14   20 1   
    26   15   16 ar  
    27   15   34 1   
    28   16   35 1   
    29   17   18 2   
    30   17   19 1   
    31   19   32 1   
    32   20   21 1   
    33   21   22 ar  
    34   21   26 ar  
    35   22   23 ar  
    36   22   36 1   
    37   23   24 ar  
    38   23   37 1   
    39   24   25 ar  
    40   24   38 1   
    41   25   26 ar  
    42   25   39 1   
    43   26   40 1   
@<TRIPOS>SUBSTRUCTURE
     1 1O3         1 TEMP              0 ****  ****    0 ROOT
