@<TRIPOS>MOLECULE
1O3
   40    30     1     0     0
SMALL
bcc


@<TRIPOS>ATOM
      1 C1          4.5720    1.2080    1.8700 c1        1 1O3      0.227000
      2 C2          5.8490    1.7440    1.8060 c1        1 1O3     -0.172000
      3 C3          6.7940    1.1840    0.9610 c1        1 1O3     -0.091000
      4 C4          6.4620    0.0880    0.1810 c2        1 1O3     -0.160000
      5 C5          5.1860   -0.4480    0.2450 c1        1 1O3     -0.009000
      6 C6          4.2410    0.1120    1.0900 c1        1 1O3     -0.818000
      7 S7          2.6460   -0.6470    1.2610 s4        1 1O3      2.052800
      8 O8          2.1200   -0.4610    2.5850 o         1 1O3     -0.550900
      9 O9          2.7410   -2.0780    1.1960 o         1 1O3     -0.550900
     10 N10         1.6130   -0.0650    0.1220 n2        1 1O3     -0.836000
     11 C11         0.2080   -0.2140    0.2930 c1        1 1O3      0.090000
     12 C12        -0.6140    0.9030    0.2790 c1        1 1O3     -0.066500
     13 C13        -1.9890    0.7540    0.3770 c1        1 1O3     -0.112000
     14 C14        -2.5420   -0.5130    0.4900 c1        1 1O3     -0.066500
     15 C15        -1.7210   -1.6290    0.5040 c1        1 1O3     -0.112000
     16 C16        -0.3460   -1.4800    0.4060 c1        1 1O3     -0.186000
     17 C17        -0.0060    2.2880    0.2200 c1        1 1O3      0.360000
     18 O18         0.3300    2.8730    1.2830 o         1 1O3     -0.551000
     19 O19         0.1420    2.8630   -0.8900 o         1 1O3     -0.551000
     20 O20        -3.9250   -0.6580    0.6900 o         1 1O3     -0.166000
     21 C21        -4.5800   -0.6640   -0.5530 c1        1 1O3      0.091000
     22 C22        -4.8380   -1.8660   -1.1920 c1        1 1O3     -0.138750
     23 C23        -5.5670   -1.8810   -2.3710 c1        1 1O3     -0.138750
     24 C24        -6.0370   -0.6950   -2.9100 c1        1 1O3     -0.138750
     25 C25        -5.7780    0.5070   -2.2710 c1        1 1O3     -0.138750
     26 C26        -5.0500    0.5230   -1.0920 c1        1 1O3     -0.182000
     27 F27         3.6650    1.7400    2.6970 f         1 1O3     -0.064000
     28 BR1         8.5780    1.8690    0.9370 br        1 1O3      0.043000
     29 H1          6.0820    2.5160    2.3550 ha        1 1O3      0.166000
     30 H2          7.1310   -0.3130   -0.4070 ha        1 1O3      0.146000
     31 H3          4.9530   -1.2190   -0.3050 ha        1 1O3      0.168000
     32 H4          1.9410    0.3280   -0.6330 hn        1 1O3      0.319000
     33 H5         -2.5670    1.5410    0.3770 ha        1 1O3      0.152000
     34 H6         -2.1090   -2.5200    0.5990 ha        1 1O3      0.152000
     35 H7          0.2340   -2.2640    0.4440 ha        1 1O3      0.156000
     36 H9         -4.5070   -2.7020   -0.8130 ha        1 1O3      0.127000
     37 H10        -5.7530   -2.7280   -2.8190 ha        1 1O3      0.127000
     38 H11        -6.5500   -0.7050   -3.7400 ha        1 1O3      0.127000
     39 H12        -6.1230    1.3410   -2.6420 ha        1 1O3      0.127000
     40 H13        -4.8880    1.3670   -0.6300 ha        1 1O3      0.166000
@<TRIPOS>BOND
     1    1    6 1   
     2    1   27 1   
     3    2    3 1   
     4    2   29 1   
     5    3    4 1   
     6    4    5 1   
     7    4   30 1   
     8    5   31 1   
     9    6    7 1   
    10    7    8 1   
    11    7    9 1   
    12   10   11 1   
    13   10   32 1   
    14   11   16 1   
    15   12   13 1   
    16   13   33 1   
    17   14   15 1   
    18   15   34 1   
    19   16   35 1   
    20   17   18 1   
    21   17   19 1   
    22   20   21 1   
    23   21   26 1   
    24   22   23 1   
    25   22   36 1   
    26   23   37 1   
    27   24   25 1   
    28   24   38 1   
    29   25   39 1   
    30   26   40 1   
@<TRIPOS>SUBSTRUCTURE
     1 1O3         1 TEMP              0 ****  ****    0 ROOT
