@<TRIPOS>MOLECULE
1O3
   40    42     1     0     0
SMALL
bcc


@<TRIPOS>ATOM
      1 C1          3.1580    0.8700    1.7360 ca        1 1O3      0.233900
      2 C2          4.0500   -0.2040    1.5500 ca        1 1O3     -0.192000
      3 C3          4.1290   -0.8190    0.3020 ca        1 1O3      0.045100
      4 C4          3.3310   -0.3710   -0.7500 ca        1 1O3     -0.144000
      5 C5          2.4510    0.6930   -0.5510 ca        1 1O3     -0.007000
      6 C6          2.3360    1.3370    0.6860 ca        1 1O3     -0.370500
      7 S7          1.2680    2.6740    0.8710 sy        1 1O3      1.492200
      8 O8          0.8760    2.7240    2.2280 o         1 1O3     -0.656800
      9 O9          1.9470    3.8260    0.4100 o         1 1O3     -0.656800
     10 N10         0.0310    2.3630   -0.1050 nh        1 1O3     -0.768500
     11 C11        -0.9790    1.3980    0.0570 ca        1 1O3      0.168600
     12 C12        -1.4540    0.6580   -1.0560 ca        1 1O3     -0.153600
     13 C13        -2.4810   -0.2700   -0.8710 ca        1 1O3     -0.096000
     14 C14        -3.0290   -0.4700    0.3970 ca        1 1O3      0.033100
     15 C15        -2.5720    0.2550    1.5030 ca        1 1O3     -0.120000
     16 C16        -1.5540    1.1830    1.3330 ca        1 1O3     -0.182000
     17 C17        -0.9180    0.8220   -2.4740 c         1 1O3      0.914200
     18 O18        -1.6250    0.3810   -3.4180 o         1 1O3     -0.824800
     19 O19         0.2090    1.3810   -2.6530 o         1 1O3     -0.824800
     20 O20        -3.9590   -1.4890    0.6330 os        1 1O3     -0.256200
     21 C21        -5.2430   -1.2810    0.1550 ca        1 1O3      0.136100
     22 C22        -6.1690   -2.2800    0.5080 ca        1 1O3     -0.174500
     23 C23        -7.4850   -2.1660    0.0720 ca        1 1O3     -0.104500
     24 C24        -7.8830   -1.0770   -0.7040 ca        1 1O3     -0.177000
     25 C25        -6.9570   -0.0930   -1.0500 ca        1 1O3     -0.104500
     26 C26        -5.6330   -0.1850   -0.6260 ca        1 1O3     -0.174500
     27 F27         3.1200    1.4510    2.9570 f         1 1O3     -0.121900
     28 BR1         5.3170   -2.2510    0.0500 br        1 1O3     -0.103100
     29 H1          4.6680   -0.5380    2.3960 ha        1 1O3      0.154000
     30 H2          3.3780   -0.8500   -1.7410 ha        1 1O3      0.161000
     31 H3          1.8220    1.0040   -1.4210 ha        1 1O3      0.224000
     32 H4          0.0950    2.6540   -1.0760 hn        1 1O3      0.503800
     33 H5         -2.8480   -0.8310   -1.7480 ha        1 1O3      0.175000
     34 H6         -3.0110    0.0830    2.4960 ha        1 1O3      0.135000
     35 H7         -1.1960    1.7490    2.2100 ha        1 1O3      0.160000
     36 H9         -5.8390   -3.1330    1.1160 ha        1 1O3      0.152500
     37 H10        -8.2140   -2.9440    0.3420 ha        1 1O3      0.124500
     38 H11        -8.9250   -0.9960   -1.0440 ha        1 1O3      0.121000
     39 H12        -7.2680    0.7620   -1.6670 ha        1 1O3      0.124500
     40 H13        -4.8980    0.5840   -0.9090 ha        1 1O3      0.152500
@<TRIPOS>BOND
     1    1    2 ar  
     2    1    6 ar  
     3    1   27 1   
     4    2    3 ar  
     5    2   29 1   
     6    3    4 ar  
     7    3   28 1   
     8    4    5 ar  
     9    4   30 1   
    10    5    6 ar  
    11    5   31 1   
    12    6    7 1   
    13    7    8 2   
    14    7    9 2   
    15    7   10 1   
    16   10   11 1   
    17   10   32 1   
    18   11   12 ar  
    19   11   16 ar  
    20   12   13 ar  
    21   12   17 1   
    22   13   14 ar  
    23   13   33 1   
    24   14   15 ar  
    25   14   20 1   
    26   15   16 ar  
    27   15   34 1   
    28   16   35 1   
    29   17   18 1   
    30   17   19 1   
    31   20   21 1   
    32   21   22 ar  
    33   21   26 ar  
    34   22   23 ar  
    35   22   36 1   
    36   23   24 ar  
    37   23   37 1   
    38   24   25 ar  
    39   24   38 1   
    40   25   26 ar  
    41   25   39 1   
    42   26   40 1   
@<TRIPOS>SUBSTRUCTURE
     1 1O3         1 TEMP              0 ****  ****    0 ROOT
