@<TRIPOS>MOLECULE
1O3
   40    42     1     0     0
SMALL
bcc


@<TRIPOS>ATOM
      1 C1          0.2270   -1.4960    1.0310 ca        1 1O3      0.233900
      2 C2          1.6310   -1.4350    1.1260 ca        1 1O3     -0.192000
      3 C3          2.2490   -0.2060    1.3440 ca        1 1O3      0.045100
      4 C4          1.4800    0.9510    1.4680 ca        1 1O3     -0.144000
      5 C5          0.0900    0.8760    1.3700 ca        1 1O3     -0.007000
      6 C6         -0.5720   -0.3370    1.1480 ca        1 1O3     -0.370500
      7 S7         -2.2910   -0.3860    1.0790 sy        1 1O3      1.492200
      8 O8         -2.6550   -1.4870    0.2710 o         1 1O3     -0.656800
      9 O9         -2.7680   -0.4490    2.4090 o         1 1O3     -0.656800
     10 N10        -2.7260    1.0150    0.4260 nu        1 1O3     -0.768500
     11 C11        -2.5790    1.4310   -0.9100 ca        1 1O3      0.168600
     12 C12        -2.2040    2.7660   -1.2100 ca        1 1O3     -0.153600
     13 C13        -2.0970    3.1610   -2.5460 ca        1 1O3     -0.096000
     14 C14        -2.3510    2.2480   -3.5720 ca        1 1O3      0.033100
     15 C15        -2.7240    0.9300   -3.2890 ca        1 1O3     -0.120000
     16 C16        -2.8370    0.5250   -1.9660 ca        1 1O3     -0.182000
     17 C17        -1.9190    3.8260   -0.1520 c         1 1O3      0.914200
     18 O18        -1.9330    5.0310   -0.5160 o         1 1O3     -0.824800
     19 O19        -1.6730    3.4650    1.0410 o         1 1O3     -0.824800
     20 O20        -2.1170    2.5800   -4.9110 os        1 1O3     -0.256200
     21 C21        -3.0240    3.4420   -5.5060 ca        1 1O3      0.136100
     22 C22        -2.8090    3.6620   -6.8790 ca        1 1O3     -0.174500
     23 C23        -3.6640    4.5170   -7.5670 ca        1 1O3     -0.104500
     24 C24        -4.7210    5.1470   -6.9080 ca        1 1O3     -0.177000
     25 C25        -4.9230    4.9230   -5.5460 ca        1 1O3     -0.104500
     26 C26        -4.0800    4.0720   -4.8350 ca        1 1O3     -0.174500
     27 F27        -0.3370   -2.7100    0.8330 f         1 1O3     -0.121900
     28 Br1         4.1200   -0.1210    1.4720 br        1 1O3     -0.103100
     29 H1          2.2130   -2.3630    1.0240 ha        1 1O3      0.154000
     30 H2          1.9530    1.9310    1.6360 ha        1 1O3      0.161000
     31 H3         -0.4800    1.8320    1.4610 ha        1 1O3      0.224000
     32 H4         -2.8560    1.8150    1.0380 hn        1 1O3      0.503800
     33 H5         -1.8150    4.2050   -2.7660 ha        1 1O3      0.174000
     34 H6         -2.9160    0.2230   -4.1080 ha        1 1O3      0.135000
     35 H7         -3.1280   -0.5170   -1.7500 ha        1 1O3      0.160000
     36 H9         -1.9720    3.1620   -7.3830 ha        1 1O3      0.152500
     37 H10        -3.5020    4.6960   -8.6400 ha        1 1O3      0.124500
     38 H11        -5.3890    5.8210   -7.4600 ha        1 1O3      0.121000
     39 H12        -5.7500    5.4250   -5.0230 ha        1 1O3      0.124500
     40 H13        -4.2310    3.9050   -3.7570 ha        1 1O3      0.152500
@<TRIPOS>BOND
     1    1    2 ar  
     2    1    6 ar  
     3    1   27 1   
     4    2    3 ar  
     5    2   29 1   
     6    3    4 ar  
     7    3   28 1   
     8    4    5 ar  
     9    4   30 1   
    10    5    6 ar  
    11    5   31 1   
    12    6    7 1   
    13    7    8 2   
    14    7    9 2   
    15    7   10 1   
    16   10   11 1   
    17   10   32 1   
    18   11   12 ar  
    19   11   16 ar  
    20   12   13 ar  
    21   12   17 1   
    22   13   14 ar  
    23   13   33 1   
    24   14   15 ar  
    25   14   20 1   
    26   15   16 ar  
    27   15   34 1   
    28   16   35 1   
    29   17   18 1   
    30   17   19 1   
    31   20   21 1   
    32   21   22 ar  
    33   21   26 ar  
    34   22   23 ar  
    35   22   36 1   
    36   23   24 ar  
    37   23   37 1   
    38   24   25 ar  
    39   24   38 1   
    40   25   26 ar  
    41   25   39 1   
    42   26   40 1   
@<TRIPOS>SUBSTRUCTURE
     1 1O3         1 TEMP              0 ****  ****    0 ROOT
