@<TRIPOS>MOLECULE
1O5
   51    54     1     0     0
SMALL
bcc


@<TRIPOS>ATOM
      1 O3          0.0050    0.2280    0.3870 o         1 1O5     -0.571800
      2 S           1.3400    0.0970    0.0700 sy        1 1O5      1.494200
      3 O2          2.1840   -0.6220    0.8880 o         1 1O5     -0.571800
      4 N3          1.1850   -1.1520   -1.4030 n4        1 1O5     -0.783500
      5 C12         1.9790    1.3000   -0.7600 ca        1 1O5     -0.558500
      6 C11         1.0880    2.2420   -1.3370 ca        1 1O5     -0.009000
      7 C13         3.3710    1.5260   -0.9080 ca        1 1O5      0.082700
      8 C14         4.3670    0.5950   -0.3270 c3        1 1O5     -0.104800
      9 C15         3.8220    2.6500   -1.6050 ca        1 1O5     -0.159000
     10 C16         2.9290    3.5550   -2.1690 ca        1 1O5      0.007000
     11 C10         1.5400    3.3530   -2.0400 ca        1 1O5     -0.064900
     12 C7          0.6080    4.2830   -2.6410 cc        1 1O5      0.316500
     13 N2         -0.5920    3.9020   -3.1840 nd        1 1O5     -0.498100
     14 N1         -1.1950    4.9800   -3.6570 na        1 1O5      0.019900
     15 C8          0.7680    5.7250   -2.7790 ca        1 1O5     -0.158900
     16 C9          1.7190    6.6780   -2.4120 ca        1 1O5     -0.181000
     17 C3          1.4770    8.0120   -2.7260 ca        1 1O5      0.143100
     18 O1          2.3500    9.0280   -2.4080 os        1 1O5     -0.318900
     19 C2          3.5600    8.6570   -1.7310 c3        1 1O5      0.127400
     20 C1          4.3190    9.9470   -1.5180 c3        1 1O5     -0.104100
     21 C6         -0.4330    6.1460   -3.4510 ca        1 1O5     -0.077200
     22 C5         -0.6690    7.4910   -3.7680 ca        1 1O5     -0.119000
     23 C4          0.2860    8.4390   -3.4140 ca        1 1O5      0.059000
     24 C17         0.0600    9.8180   -3.7430 cc        1 1O5     -0.241300
     25 C20         0.6460   11.0050   -3.1450 cc        1 1O5      0.345200
     26 N5          0.1540   12.1200   -3.7320 nd        1 1O5     -0.505800
     27 N4         -0.7160   11.7160   -4.6780 na        1 1O5      0.099400
     28 C19        -1.4480   12.6230   -5.5300 c3        1 1O5      0.035600
     29 C18        -0.8160   10.3270   -4.7290 cd        1 1O5     -0.121300
     30 H1          1.7300   -1.9910   -1.2170 hn        1 1O5      0.452800
     31 H2          0.2140   -1.4310   -1.5230 hn        1 1O5      0.452800
     32 H3         -0.0030    2.0950   -1.2060 ha        1 1O5      0.180000
     33 H4          4.1650   -0.4610   -0.6380 hc        1 1O5      0.079033
     34 H5          4.3310    0.6330    0.7950 hc        1 1O5      0.079033
     35 H6          5.4050    0.8590   -0.6480 hc        1 1O5      0.079033
     36 H7          4.9070    2.8220   -1.7100 ha        1 1O5      0.170000
     37 H8          3.3000    4.4330   -2.7280 ha        1 1O5      0.176000
     38 H10         2.6250    6.3700   -1.8750 ha        1 1O5      0.138000
     39 H11         4.1410    7.9430   -2.3720 h1        1 1O5      0.035700
     40 H12         3.3040    8.1680   -0.7540 h1        1 1O5      0.035700
     41 H13         3.7010   10.6710   -0.9340 hc        1 1O5      0.056700
     42 H14         4.5750   10.4160   -2.4980 hc        1 1O5      0.056700
     43 H15         5.2580    9.7290   -0.9580 hc        1 1O5      0.056700
     44 H16        -1.5940    7.7950   -4.2790 ha        1 1O5      0.150000
     45 H17         1.3850   11.0460   -2.3410 h4        1 1O5      0.061100
     46 H18        -2.0940   13.2980   -4.9060 h1        1 1O5      0.064700
     47 H19        -2.0900   12.0250   -6.2260 h1        1 1O5      0.064700
     48 H20        -0.7320   13.2520   -6.1250 h1        1 1O5      0.064700
     49 H21        -1.4640    9.8150   -5.4390 h4        1 1O5      0.175000
     50 H9         -2.0830    4.9130   -4.1000 hn        1 1O5      0.338700
     51 H33         1.5080   -0.7530   -2.2780 hn        1 1O5      0.452800
@<TRIPOS>BOND
     1    1    2 2   
     2    2    3 2   
     3    2    4 1   
     4    2    5 1   
     5    4   30 1   
     6    4   31 1   
     7    4   51 1   
     8    5    6 ar  
     9    5    7 ar  
    10    6   11 ar  
    11    6   32 1   
    12    7    8 1   
    13    7    9 ar  
    14    8   33 1   
    15    8   34 1   
    16    8   35 1   
    17    9   10 ar  
    18    9   36 1   
    19   10   11 ar  
    20   10   37 1   
    21   11   12 1   
    22   12   13 2   
    23   12   15 1   
    24   13   14 1   
    25   14   21 1   
    26   14   50 1   
    27   15   16 ar  
    28   15   21 ar  
    29   16   17 ar  
    30   16   38 1   
    31   17   18 1   
    32   17   23 ar  
    33   18   19 1   
    34   19   20 1   
    35   19   39 1   
    36   19   40 1   
    37   20   41 1   
    38   20   42 1   
    39   20   43 1   
    40   21   22 ar  
    41   22   23 ar  
    42   22   44 1   
    43   23   24 1   
    44   24   25 1   
    45   24   29 2   
    46   25   26 2   
    47   25   45 1   
    48   26   27 1   
    49   27   28 1   
    50   27   29 1   
    51   28   46 1   
    52   28   47 1   
    53   28   48 1   
    54   29   49 1   
@<TRIPOS>SUBSTRUCTURE
     1 1O5         1 TEMP              0 ****  ****    0 ROOT
