@<TRIPOS>MOLECULE
1O5
   51    54     1     0     0
SMALL
bcc


@<TRIPOS>ATOM
      1 O3         -0.0060    0.2340    0.3930 o         1 1O5     -0.571800
      2 S           1.3290    0.0990    0.0740 sy        1 1O5      1.494200
      3 O2          2.1720   -0.6220    0.8910 o         1 1O5     -0.571800
      4 N3          1.1680   -1.1510   -1.3980 nz        1 1O5     -0.783500
      5 C12         1.9690    1.2990   -0.7580 ca        1 1O5     -0.558500
      6 C11         1.0800    2.2440   -1.3330 ca        1 1O5     -0.009000
      7 C13         3.3620    1.5220   -0.9090 ca        1 1O5      0.082700
      8 C14         4.3560    0.5880   -0.3290 c3        1 1O5     -0.104800
      9 C15         3.8140    2.6440   -1.6070 ca        1 1O5     -0.159000
     10 C16         2.9230    3.5510   -2.1700 ca        1 1O5      0.007000
     11 C10         1.5340    3.3530   -2.0380 ca        1 1O5     -0.064900
     12 C7          0.6030    4.2860   -2.6380 cc        1 1O5      0.316500
     13 N2         -0.5990    3.9080   -3.1790 nd        1 1O5     -0.498100
     14 N1         -1.2000    4.9870   -3.6510 na        1 1O5      0.019900
     15 C8          0.7670    5.7260   -2.7770 ca        1 1O5     -0.158900
     16 C9          1.7210    6.6780   -2.4130 ca        1 1O5     -0.181000
     17 C3          1.4820    8.0120   -2.7270 ca        1 1O5      0.143100
     18 O1          2.3590    9.0250   -2.4120 os        1 1O5     -0.318900
     19 C2          3.5690    8.6510   -1.7360 c3        1 1O5      0.127400
     20 C1          4.3310    9.9390   -1.5250 c3        1 1O5     -0.104100
     21 C6         -0.4340    6.1510   -3.4480 ca        1 1O5     -0.077200
     22 C5         -0.6670    7.4960   -3.7660 ca        1 1O5     -0.119000
     23 C4          0.2920    8.4420   -3.4140 ca        1 1O5      0.059000
     24 C17         0.0690    9.8210   -3.7430 cc        1 1O5     -0.241300
     25 C20         0.6600   11.0060   -3.1480 cc        1 1O5      0.345200
     26 N5          0.1700   12.1230   -3.7340 nd        1 1O5     -0.505800
     27 N4         -0.7040   11.7210   -4.6780 na        1 1O5      0.099400
     28 C19        -1.4340   12.6290   -5.5300 c3        1 1O5      0.035600
     29 C18        -0.8080   10.3320   -4.7280 cd        1 1O5     -0.121300
     30 H1          1.7110   -1.9910   -1.2120 hn        1 1O5      0.452800
     31 H2          0.1950   -1.4270   -1.5160 hn        1 1O5      0.452800
     32 H3         -0.0110    2.1000   -1.2000 ha        1 1O5      0.180000
     33 H4          4.1500   -0.4680   -0.6390 hc        1 1O5      0.079033
     34 H5          4.3220    0.6270    0.7930 hc        1 1O5      0.079033
     35 H6          5.3950    0.8490   -0.6520 hc        1 1O5      0.079033
     36 H7          4.9000    2.8130   -1.7150 ha        1 1O5      0.170000
     37 H8          3.2960    4.4280   -2.7300 ha        1 1O5      0.176000
     38 H10         2.6280    6.3670   -1.8780 ha        1 1O5      0.138000
     39 H11         4.1470    7.9360   -2.3770 h1        1 1O5      0.035700
     40 H12         3.3130    8.1650   -0.7580 h1        1 1O5      0.035700
     41 H13         3.7160   10.6650   -0.9410 hc        1 1O5      0.056700
     42 H14         4.5880   10.4070   -2.5060 hc        1 1O5      0.056700
     43 H15         5.2710    9.7190   -0.9650 hc        1 1O5      0.056700
     44 H16        -1.5920    7.8020   -4.2750 ha        1 1O5      0.150000
     45 H17         1.4000   11.0460   -2.3450 h4        1 1O5      0.061100
     46 H18        -2.0710   13.3120   -4.9060 h1        1 1O5      0.064700
     47 H19        -2.0850   12.0320   -6.2200 h1        1 1O5      0.064700
     48 H20        -0.7170   13.2500   -6.1320 h1        1 1O5      0.064700
     49 H21        -1.4590    9.8210   -5.4360 h4        1 1O5      0.175000
     50 H9         -2.0880    4.9220   -4.0930 hn        1 1O5      0.338700
     51 H33         1.4900   -0.7530   -2.2740 hn        1 1O5      0.452800
@<TRIPOS>BOND
     1    1    2 2   
     2    2    3 2   
     3    2    4 1   
     4    2    5 1   
     5    4   30 1   
     6    4   31 1   
     7    4   51 1   
     8    5    6 ar  
     9    5    7 ar  
    10    6   11 ar  
    11    6   32 1   
    12    7    8 1   
    13    7    9 ar  
    14    8   33 1   
    15    8   34 1   
    16    8   35 1   
    17    9   10 ar  
    18    9   36 1   
    19   10   11 ar  
    20   10   37 1   
    21   11   12 1   
    22   12   13 2   
    23   12   15 1   
    24   13   14 1   
    25   14   21 1   
    26   14   50 1   
    27   15   16 ar  
    28   15   21 ar  
    29   16   17 ar  
    30   16   38 1   
    31   17   18 1   
    32   17   23 ar  
    33   18   19 1   
    34   19   20 1   
    35   19   39 1   
    36   19   40 1   
    37   20   41 1   
    38   20   42 1   
    39   20   43 1   
    40   21   22 ar  
    41   22   23 ar  
    42   22   44 1   
    43   23   24 1   
    44   24   25 1   
    45   24   29 2   
    46   25   26 2   
    47   25   45 1   
    48   26   27 1   
    49   27   28 1   
    50   27   29 1   
    51   28   46 1   
    52   28   47 1   
    53   28   48 1   
    54   29   49 1   
@<TRIPOS>SUBSTRUCTURE
     1 1O5         1 TEMP              0 ****  ****    0 ROOT
