@<TRIPOS>MOLECULE
1O5
   50    53     1     0     0
SMALL
bcc


@<TRIPOS>ATOM
      1 O3          5.3110   -1.6230    1.5500 o         1 1O5     -0.659800
      2 S           5.7300   -0.5550    0.7260 sy        1 1O5      1.526200
      3 O2          6.4610    0.4770    1.3510 o         1 1O5     -0.659800
      4 N3          6.5830   -1.1350   -0.4990 n3        1 1O5     -1.025700
      5 C12         4.3610    0.0980   -0.0350 ca        1 1O5     -0.385500
      6 C11         3.1830   -0.6610   -0.0100 ca        1 1O5     -0.001000
      7 C13         4.3430    1.3530   -0.6660 ca        1 1O5      0.052700
      8 C14         5.5520    2.2110   -0.7150 c3        1 1O5     -0.088800
      9 C15         3.1600    1.8190   -1.2550 ca        1 1O5     -0.167000
     10 C16         2.0000    1.0550   -1.2250 ca        1 1O5     -0.054000
     11 C10         2.0010   -0.1980   -0.5950 ca        1 1O5     -0.117900
     12 C7          0.7890   -0.9980   -0.5590 cc        1 1O5      0.382500
     13 N2          0.7530   -2.3480   -0.7110 nd        1 1O5     -0.501100
     14 N1         -0.5220   -2.7490   -0.6990 na        1 1O5     -0.004100
     15 C8         -0.5720   -0.4940   -0.3630 ca        1 1O5     -0.167900
     16 C9         -1.1600    0.7480   -0.1390 ca        1 1O5     -0.154000
     17 C3         -2.5440    0.8080    0.0130 ca        1 1O5      0.118100
     18 O1         -3.2230    1.9890    0.2470 os        1 1O5     -0.329900
     19 C2         -2.4290    3.1820    0.2970 c3        1 1O5      0.126400
     20 C1         -3.4030    4.3120    0.5420 c3        1 1O5     -0.101100
     21 C6         -1.3950   -1.6730   -0.4260 ca        1 1O5     -0.084200
     22 C5         -2.7840   -1.6030   -0.2840 ca        1 1O5     -0.118000
     23 C4         -3.3740   -0.3570   -0.0650 ca        1 1O5      0.033000
     24 C17        -4.8030   -0.2810    0.0770 cc        1 1O5     -0.214300
     25 C20        -5.5980    0.7450    0.7290 cc        1 1O5      0.339200
     26 N5         -6.9150    0.4390    0.6600 nd        1 1O5     -0.517800
     27 N4         -7.0110   -0.7290   -0.0040 na        1 1O5      0.086400
     28 C19        -8.2610   -1.3870   -0.2890 c3        1 1O5      0.041600
     29 C18        -5.7560   -1.2140   -0.3820 cd        1 1O5     -0.133300
     30 H1          6.4560   -2.0410   -0.8740 hn        1 1O5      0.447300
     31 H2          7.3030   -0.6310   -0.9510 hn        1 1O5      0.447300
     32 H3          3.1880   -1.6450    0.4990 ha        1 1O5      0.172000
     33 H4          6.4060    1.6630   -1.1880 hc        1 1O5      0.063700
     34 H5          5.3660    3.1420   -1.3040 hc        1 1O5      0.063700
     35 H6          5.8620    2.5020    0.3240 hc        1 1O5      0.063700
     36 H7          3.1510    2.8020   -1.7500 ha        1 1O5      0.139000
     37 H8          1.0780    1.4270   -1.7000 ha        1 1O5      0.142000
     38 H10        -0.5290    1.6450   -0.0790 ha        1 1O5      0.146000
     39 H11        -1.6850    3.1000    1.1330 h1        1 1O5      0.039200
     40 H12        -1.8900    3.3150   -0.6780 h1        1 1O5      0.039200
     41 H13        -4.1290    4.3930   -0.3020 hc        1 1O5      0.050367
     42 H14        -3.9770    4.1350    1.4830 hc        1 1O5      0.050367
     43 H15        -2.8360    5.2690    0.6320 hc        1 1O5      0.050367
     44 H16        -3.4030   -2.5090   -0.3370 ha        1 1O5      0.140000
     45 H17        -5.2310    1.6540    1.2120 h4        1 1O5      0.060100
     46 H18        -8.9120   -0.7220   -0.9170 h1        1 1O5      0.057700
     47 H19        -8.0500   -2.3370   -0.8450 h1        1 1O5      0.057700
     48 H20        -8.8000   -1.6230    0.6670 h1        1 1O5      0.057700
     49 H21        -5.6340   -2.1420   -0.9380 h4        1 1O5      0.173000
     50 H9         -0.7230   -3.7040   -0.5110 hn        1 1O5      0.317700
@<TRIPOS>BOND
     1    1    2 2   
     2    2    3 2   
     3    2    4 1   
     4    2    5 1   
     5    4   30 1   
     6    4   31 1   
     7    5    6 ar  
     8    5    7 ar  
     9    6   11 ar  
    10    6   32 1   
    11    7    8 1   
    12    7    9 ar  
    13    8   33 1   
    14    8   34 1   
    15    8   35 1   
    16    9   10 ar  
    17    9   36 1   
    18   10   11 ar  
    19   10   37 1   
    20   11   12 1   
    21   12   13 2   
    22   12   15 1   
    23   13   14 1   
    24   14   21 1   
    25   14   50 1   
    26   15   16 ar  
    27   15   21 ar  
    28   16   17 ar  
    29   16   38 1   
    30   17   18 1   
    31   17   23 ar  
    32   18   19 1   
    33   19   20 1   
    34   19   39 1   
    35   19   40 1   
    36   20   41 1   
    37   20   42 1   
    38   20   43 1   
    39   21   22 ar  
    40   22   23 ar  
    41   22   44 1   
    42   23   24 1   
    43   24   25 1   
    44   24   29 2   
    45   25   26 2   
    46   25   45 1   
    47   26   27 1   
    48   27   28 1   
    49   27   29 1   
    50   28   46 1   
    51   28   47 1   
    52   28   48 1   
    53   29   49 1   
@<TRIPOS>SUBSTRUCTURE
     1 1O5         1 TEMP              0 ****  ****    0 ROOT
