@<TRIPOS>MOLECULE
1O5
   51    54     1     0     0
SMALL
bcc


@<TRIPOS>ATOM
      1 O3          0.0020    0.2360    0.4020 o         1 1O5     -0.571800
      2 S           1.3360    0.1010    0.0790 sy        1 1O5      1.494200
      3 O2          2.1810   -0.6190    0.8950 o         1 1O5     -0.571800
      4 N3          1.1710   -1.1500   -1.3910 n4        1 1O5     -0.783500
      5 C12         1.9740    1.3010   -0.7550 ca        1 1O5     -0.558500
      6 C11         1.0830    2.2450   -1.3300 ca        1 1O5     -0.009000
      7 C13         3.3660    1.5230   -0.9090 ca        1 1O5      0.082700
      8 C14         4.3620    0.5900   -0.3300 c3        1 1O5     -0.104800
      9 C15         3.8170    2.6460   -1.6090 ca        1 1O5     -0.159000
     10 C16         2.9240    3.5510   -2.1710 ca        1 1O5      0.007000
     11 C10         1.5360    3.3540   -2.0360 ca        1 1O5     -0.064900
     12 C7          0.6030    4.2850   -2.6350 cc        1 1O5      0.316500
     13 N2         -0.6000    3.9060   -3.1740 nd        1 1O5     -0.498100
     14 N1         -1.2020    4.9850   -3.6450 na        1 1O5      0.019900
     15 C8          0.7660    5.7260   -2.7760 ca        1 1O5     -0.158900
     16 C9          1.7210    6.6780   -2.4140 ca        1 1O5     -0.181000
     17 C3          1.4810    8.0110   -2.7290 ca        1 1O5      0.143100
     18 O1          2.3580    9.0260   -2.4170 os        1 1O5     -0.318900
     19 C2          3.5700    8.6520   -1.7440 c3        1 1O5      0.127400
     20 C1          4.3330    9.9410   -1.5360 c3        1 1O5     -0.104100
     21 C6         -0.4370    6.1490   -3.4450 ca        1 1O5     -0.077200
     22 C5         -0.6700    7.4940   -3.7630 ca        1 1O5     -0.119000
     23 C4          0.2890    8.4410   -3.4140 ca        1 1O5      0.059000
     24 C17         0.0650    9.8190   -3.7430 cc        1 1O5     -0.241300
     25 C20         0.6560   11.0050   -3.1500 cc        1 1O5      0.345200
     26 N5          0.1650   12.1210   -3.7360 nd        1 1O5     -0.505800
     27 N4         -0.7100   11.7180   -4.6780 na        1 1O5      0.099400
     28 C19        -1.4440   12.6260   -5.5290 c3        1 1O5      0.035600
     29 C18        -0.8140   10.3290   -4.7270 cd        1 1O5     -0.121300
     30 H1          1.4910   -0.7530   -2.2680 hn        1 1O5      0.452800
     31 H2          0.1980   -1.4260   -1.5070 hn        1 1O5      0.452800
     32 H3         -0.0070    2.1010   -1.1940 ha        1 1O5      0.180000
     33 H4          4.3310    0.6310    0.7910 hc        1 1O5      0.079367
     34 H5          5.4000    0.8510   -0.6560 hc        1 1O5      0.079367
     35 H6          4.1560   -0.4660   -0.6390 hc        1 1O5      0.079367
     36 H7          4.9020    2.8140   -1.7200 ha        1 1O5      0.170000
     37 H8          3.2960    4.4280   -2.7330 ha        1 1O5      0.176000
     38 H10         2.6290    6.3670   -1.8810 ha        1 1O5      0.138000
     39 H11         4.1470    7.9360   -2.3860 h1        1 1O5      0.035700
     40 H12         3.3170    8.1670   -0.7650 h1        1 1O5      0.035700
     41 H13         4.5870   10.4070   -2.5180 hc        1 1O5      0.056700
     42 H14         3.7190   10.6670   -0.9520 hc        1 1O5      0.056700
     43 H15         5.2740    9.7210   -0.9790 hc        1 1O5      0.056700
     44 H16        -1.5970    7.8000   -4.2700 ha        1 1O5      0.150000
     45 H17         1.3980   11.0460   -2.3490 h4        1 1O5      0.061100
     46 H18        -0.7300   13.2600   -6.1190 h1        1 1O5      0.064367
     47 H19        -2.0940   13.2950   -4.9030 h1        1 1O5      0.064367
     48 H20        -2.0830   12.0270   -6.2280 h1        1 1O5      0.064367
     49 H21        -1.4660    9.8180   -5.4340 h4        1 1O5      0.175000
     50 H9         -2.0910    4.9190   -4.0850 hn        1 1O5      0.338700
     51 H33         1.7140   -1.9900   -1.2050 hn        1 1O5      0.452800
@<TRIPOS>BOND
     1    1    2 2   
     2    2    3 2   
     3    2    4 1   
     4    2    5 1   
     5    4   30 1   
     6    4   31 1   
     7    4   51 1   
     8    5    6 ar  
     9    5    7 ar  
    10    6   11 ar  
    11    6   32 1   
    12    7    8 1   
    13    7    9 ar  
    14    8   33 1   
    15    8   34 1   
    16    8   35 1   
    17    9   10 ar  
    18    9   36 1   
    19   10   11 ar  
    20   10   37 1   
    21   11   12 1   
    22   12   13 2   
    23   12   15 1   
    24   13   14 1   
    25   14   21 1   
    26   14   50 1   
    27   15   16 ar  
    28   15   21 ar  
    29   16   17 ar  
    30   16   38 1   
    31   17   18 1   
    32   17   23 ar  
    33   18   19 1   
    34   19   20 1   
    35   19   39 1   
    36   19   40 1   
    37   20   41 1   
    38   20   42 1   
    39   20   43 1   
    40   21   22 ar  
    41   22   23 ar  
    42   22   44 1   
    43   23   24 1   
    44   24   25 1   
    45   24   29 2   
    46   25   26 2   
    47   25   45 1   
    48   26   27 1   
    49   27   28 1   
    50   27   29 1   
    51   28   46 1   
    52   28   47 1   
    53   28   48 1   
    54   29   49 1   
@<TRIPOS>SUBSTRUCTURE
     1 1O5         1 TEMP              0 ****  ****    0 ROOT
