@<TRIPOS>MOLECULE
1O5
   50    39     1     0     0
SMALL
bcc


@<TRIPOS>ATOM
      1 O3         -0.4060   -4.3190    4.1250 o         1 1O5     -0.939000
      2 S           0.3740   -5.2130    3.2400 ss        1 1O5      2.865000
      3 O2          1.5560   -5.4240    4.0300 o         1 1O5     -0.939000
      4 N3         -0.4350   -6.6500    2.9630 n2        1 1O5     -0.952000
      5 C12         0.7680   -4.3980    1.6610 c1        1 1O5     -0.830000
      6 C11        -0.0870   -3.4230    1.1450 c1        1 1O5      0.000000
      7 C13         1.9360   -4.7500    0.9630 c1        1 1O5      0.061000
      8 C14         2.9970   -5.7430    1.6330 c3        1 1O5     -0.214000
      9 C15         2.2370   -4.1290   -0.2370 c1        1 1O5     -0.109500
     10 C16         1.3800   -3.1520   -0.7550 c1        1 1O5     -0.109500
     11 C10         0.2160   -2.8000   -0.0620 c1        1 1O5     -0.035000
     12 C7         -0.6550   -1.6800   -0.5720 c1        1 1O5     -0.075500
     13 N2         -1.7720   -2.1900   -1.1920 n2        1 1O5     -0.107250
     14 N1         -2.5010   -1.1280   -1.7070 n2        1 1O5     -0.107250
     15 C8         -0.6860   -0.2870   -0.7010 c1        1 1O5     -0.137500
     16 C9          0.1970    0.7270   -0.2540 c1        1 1O5     -0.113000
     17 C3         -0.0820    2.0610   -0.5200 c1        1 1O5      0.038500
     18 O1          0.9310    2.9330    0.0750 o         1 1O5     -0.236000
     19 C2          2.1810    2.9310   -0.6300 c3        1 1O5     -0.021000
     20 C1          3.0810    4.0830   -0.0990 c3        1 1O5     -0.217000
     21 C6         -1.8230    0.0480   -1.4000 c1        1 1O5     -0.075500
     22 C5         -2.1090    1.4000   -1.6710 c1        1 1O5     -0.113000
     23 C4         -1.2320    2.4050   -1.2270 c1        1 1O5      0.038500
     24 C17        -1.6940    3.8510   -1.4700 c1        1 1O5     -0.137500
     25 C20        -1.3700    4.6230   -2.5330 c1        1 1O5     -0.075500
     26 N5         -1.9300    5.8250   -2.3550 n2        1 1O5     -0.107250
     27 N4         -2.6050    5.8060   -1.1780 n2        1 1O5     -0.107250
     28 C19        -3.2930    6.9410   -0.5680 c2        1 1O5     -0.058000
     29 C18        -2.4590    4.5930   -0.6350 c1        1 1O5     -0.075500
     30 H1         -1.2870   -6.6400    2.5750 hn        1 1O5      0.242500
     31 H2         -0.0580   -7.4710    3.2580 hn        1 1O5      0.242500
     32 H3         -0.9100   -3.1760    1.6360 ha        1 1O5      0.173000
     33 H4          2.5630   -6.6470    1.7860 hc        1 1O5      0.103000
     34 H5          3.7850   -5.8480    1.0270 hc        1 1O5      0.103000
     35 H6          3.2990   -5.3660    2.5070 hc        1 1O5      0.103000
     36 H7          3.0380   -4.3690   -0.7150 ha        1 1O5      0.140000
     37 H8          1.6000   -2.7020   -1.6320 ha        1 1O5      0.140000
     38 H10         1.0380    0.4780    0.2540 ha        1 1O5      0.146500
     39 H11         2.6300    2.0790   -0.4920 h1        1 1O5      0.075500
     40 H12         2.0130    3.0600   -1.5920 h1        1 1O5      0.075500
     41 H13         2.6520    4.9660   -0.3050 hc        1 1O5      0.085333
     42 H14         3.9670    4.0380   -0.5370 hc        1 1O5      0.085333
     43 H15         3.1940    3.9890    0.9080 hc        1 1O5      0.085333
     44 H16        -2.9380    1.6440   -2.1780 ha        1 1O5      0.146500
     45 H17        -0.8280    4.3540   -3.2920 DU        1 1O5      0.215667
     46 H18        -2.8650    7.1650    0.2660 ha        1 1O5      0.098000
     47 H19        -4.2250    6.7060   -0.4030 ha        1 1O5      0.098000
     48 H20        -3.2550    7.6870   -1.1540 ha        1 1O5      0.098000
     49 H21        -2.8280    4.3040    0.1900 DU        1 1O5      0.215667
     50 H9         -3.3000   -1.1910   -2.1760 DU        1 1O5      0.215667
@<TRIPOS>BOND
     1    1    2 1   
     2    2    3 1   
     3    4   30 1   
     4    4   31 1   
     5    5    7 1   
     6    6   11 1   
     7    6   32 1   
     8    7    8 1   
     9    8   33 1   
    10    8   34 1   
    11    8   35 1   
    12    9   10 1   
    13    9   36 1   
    14   10   37 1   
    15   12   13 1   
    16   12   15 1   
    17   13   14 1   
    18   14   21 1   
    19   15   21 1   
    20   16   17 1   
    21   16   38 1   
    22   17   23 1   
    23   18   19 1   
    24   19   20 1   
    25   19   39 1   
    26   19   40 1   
    27   20   41 1   
    28   20   42 1   
    29   20   43 1   
    30   22   23 1   
    31   22   44 1   
    32   24   25 1   
    33   24   29 1   
    34   25   26 1   
    35   26   27 1   
    36   27   29 1   
    37   28   46 1   
    38   28   47 1   
    39   28   48 1   
@<TRIPOS>SUBSTRUCTURE
     1 1O5         1 TEMP              0 ****  ****    0 ROOT
