@<TRIPOS>MOLECULE
1O6
   58    60     1     0     0
SMALL
bcc


@<TRIPOS>ATOM
      1 C1          0.0980    0.2680   -0.6290 c3        1 1O6     -0.074400
      2 C2          1.4870    0.7760   -0.3070 c3        1 1O6     -0.073400
      3 C3          1.6770    0.9660    1.1910 c3        1 1O6     -0.068700
      4 C4          1.3870   -0.3320    1.9290 c3        1 1O6     -0.073400
      5 C5         -0.0040   -0.8450    1.6200 c3        1 1O6     -0.074400
      6 C6         -0.1880   -1.0290    0.1190 c3        1 1O6     -0.104700
      7 C7         -1.6050   -1.4620   -0.1590 c         1 1O6      0.672100
      8 O8         -2.6590   -0.8950    0.1090 o         1 1O6     -0.515000
      9 C9         -1.9950   -4.8730    2.1440 c3        1 1O6      0.174500
     10 N10        -2.4980   -3.5380    1.8140 nh        1 1O6     -0.714600
     11 C11        -3.8020   -3.4680    1.2390 ca        1 1O6      0.113600
     12 C12        -3.9380   -3.3460   -0.1640 ca        1 1O6     -0.101600
     13 C13        -5.2000   -3.2240   -0.7510 ca        1 1O6     -0.086000
     14 C14        -6.3380   -3.1900    0.0650 ca        1 1O6      0.096100
     15 C15        -6.2280   -3.2980    1.4560 ca        1 1O6     -0.138000
     16 C16        -4.9710   -3.4430    2.0300 ca        1 1O6     -0.147000
     17 C17        -2.7760   -3.3980   -1.0700 c         1 1O6      0.683700
     18 O18        -2.6500   -4.1380   -2.0460 o         1 1O6     -0.480000
     19 O19        -1.6380   -2.6330   -0.8850 os        1 1O6     -0.461200
     20 O20        -7.5410   -2.9460   -0.5880 os        1 1O6     -0.244200
     21 C21        -8.6730   -3.5630   -0.0610 ca        1 1O6      0.100100
     22 C22        -9.8680   -2.8360   -0.1780 ca        1 1O6     -0.156000
     23 C23       -11.0580   -3.4320    0.2310 ca        1 1O6     -0.108500
     24 C24       -11.0580   -4.7250    0.7570 ca        1 1O6     -0.147000
     25 C25        -9.8630   -5.4350    0.8720 ca        1 1O6     -0.108500
     26 C26        -8.6600   -4.8610    0.4630 ca        1 1O6     -0.156000
     27 C28         3.0790    1.4480    1.4920 c3        1 1O6     -0.090100
     28 C29        -2.5730   -5.4730    3.4270 c3        1 1O6     -0.116100
     29 C30        -2.1490   -5.8860    1.0140 c3        1 1O6     -0.116100
     30 H1          0.0070    0.0900   -1.7320 hc        1 1O6      0.054950
     31 H2         -0.6670    1.0370   -0.3420 hc        1 1O6      0.054950
     32 H3          1.6540    1.7530   -0.8310 hc        1 1O6      0.044700
     33 H4          2.2530    0.0520   -0.6910 hc        1 1O6      0.044700
     34 H5          0.9440    1.7460    1.5440 hc        1 1O6      0.051700
     35 H6          2.1480   -1.1040    1.6390 hc        1 1O6      0.044700
     36 H7          1.4820   -0.1630    3.0340 hc        1 1O6      0.044700
     37 H8         -0.1710   -1.8250    2.1380 hc        1 1O6      0.054950
     38 H9         -0.7720   -0.1210    2.0000 hc        1 1O6      0.054950
     39 H10         0.5150   -1.8290   -0.2470 hc        1 1O6      0.088700
     40 H11        -0.8850   -4.7090    2.3110 h1        1 1O6      0.059700
     41 H12        -5.3020   -3.1430   -1.8450 ha        1 1O6      0.168000
     42 H13        -7.1320   -3.2710    2.0830 ha        1 1O6      0.152000
     43 H14        -4.8900   -3.5290    3.1250 ha        1 1O6      0.139000
     44 H16        -9.8500   -1.8210   -0.5990 ha        1 1O6      0.149500
     45 H17       -12.0030   -2.8760    0.1400 ha        1 1O6      0.136000
     46 H18       -12.0030   -5.1850    1.0800 ha        1 1O6      0.135000
     47 H19        -9.8660   -6.4560    1.2820 ha        1 1O6      0.136000
     48 H20        -7.7140   -5.4140    0.5450 ha        1 1O6      0.149500
     49 H21         3.2790    2.4130    0.9670 hc        1 1O6      0.035033
     50 H22         3.2060    1.6080    2.5900 hc        1 1O6      0.035033
     51 H23         3.8350    0.6990    1.1550 hc        1 1O6      0.035033
     52 H24        -2.0880   -6.4580    3.6270 hc        1 1O6      0.044533
     53 H25        -3.6740   -5.6320    3.3290 hc        1 1O6      0.044533
     54 H26        -2.3860   -4.8030    4.3010 hc        1 1O6      0.044533
     55 H27        -1.7640   -5.4730    0.0490 hc        1 1O6      0.044533
     56 H28        -3.2200   -6.1690    0.8760 hc        1 1O6      0.044533
     57 H29        -1.5670   -6.8030    1.2680 hc        1 1O6      0.044533
     58 H101       -2.4730   -2.9650    2.6410 hn        1 1O6      0.374800
@<TRIPOS>BOND
     1    1    2 1   
     2    1    6 1   
     3    1   30 1   
     4    1   31 1   
     5    2    3 1   
     6    2   32 1   
     7    2   33 1   
     8    3    4 1   
     9    3   27 1   
    10    3   34 1   
    11    4    5 1   
    12    4   35 1   
    13    4   36 1   
    14    5    6 1   
    15    5   37 1   
    16    5   38 1   
    17    6    7 1   
    18    6   39 1   
    19    7    8 2   
    20    7   19 1   
    21    9   10 1   
    22    9   28 1   
    23    9   29 1   
    24    9   40 1   
    25   10   11 1   
    26   10   58 1   
    27   11   12 ar  
    28   11   16 ar  
    29   12   13 ar  
    30   12   17 1   
    31   13   14 ar  
    32   13   41 1   
    33   14   15 ar  
    34   14   20 1   
    35   15   16 ar  
    36   15   42 1   
    37   16   43 1   
    38   17   18 2   
    39   17   19 1   
    40   20   21 1   
    41   21   22 ar  
    42   21   26 ar  
    43   22   23 ar  
    44   22   44 1   
    45   23   24 ar  
    46   23   45 1   
    47   24   25 ar  
    48   24   46 1   
    49   25   26 ar  
    50   25   47 1   
    51   26   48 1   
    52   27   49 1   
    53   27   50 1   
    54   27   51 1   
    55   28   52 1   
    56   28   53 1   
    57   28   54 1   
    58   29   55 1   
    59   29   56 1   
    60   29   57 1   
@<TRIPOS>SUBSTRUCTURE
     1 1O6         1 TEMP              0 ****  ****    0 ROOT
