@<TRIPOS>MOLECULE
1O6
   57    59     1     0     0
SMALL
bcc


@<TRIPOS>ATOM
      1 C1         -0.2560   -0.3880    0.0110 c3        1 1O6     -0.080900
      2 C2          1.2180   -0.2790   -0.3090 c3        1 1O6     -0.067900
      3 C3          2.0180    0.1850    0.9000 c3        1 1O6     -0.069700
      4 C4          1.7860   -0.7510    2.0780 c3        1 1O6     -0.067900
      5 C5          0.3140   -0.8680    2.4100 c3        1 1O6     -0.080900
      6 C6         -0.4850   -1.3180    1.1970 c3        1 1O6     -0.121700
      7 C7         -1.9770   -1.3030    1.5290 c         1 1O6      0.706100
      8 O8         -2.5690   -0.2140    1.6640 o         1 1O6     -0.606100
      9 C9         -1.9670   -3.7690    1.9130 c3        1 1O6      0.123700
     10 N10        -2.6660   -2.5020    1.7510 n         1 1O6     -0.390000
     11 C11        -4.0560   -2.5490    1.4240 ca        1 1O6      0.061600
     12 C12        -4.5100   -2.7530    0.1020 ca        1 1O6     -0.104600
     13 C13        -5.8840   -2.7850   -0.1560 ca        1 1O6     -0.120000
     14 C14        -6.7950   -2.6180    0.8870 ca        1 1O6      0.054100
     15 C15        -6.3620   -2.4180    2.2040 ca        1 1O6     -0.157000
     16 C16        -4.9980   -2.3780    2.4630 ca        1 1O6     -0.121000
     17 C17        -3.5740   -2.9860   -1.0800 c         1 1O6      0.913200
     18 O18        -3.8290   -3.9770   -1.8200 o         1 1O6     -0.825800
     19 O19        -2.6060   -2.1960   -1.2600 o         1 1O6     -0.825800
     20 O20        -8.1720   -2.5200    0.6470 os        1 1O6     -0.258200
     21 C21        -8.8210   -3.6780    0.2550 ca        1 1O6      0.139100
     22 C22       -10.2180   -3.5510    0.1300 ca        1 1O6     -0.176500
     23 C23       -10.9660   -4.6560   -0.2630 ca        1 1O6     -0.105000
     24 C24       -10.3420   -5.8760   -0.5290 ca        1 1O6     -0.180000
     25 C25        -8.9580   -5.9900   -0.4050 ca        1 1O6     -0.105000
     26 C26        -8.1870   -4.8980   -0.0130 ca        1 1O6     -0.176500
     27 C28         3.4910    0.2690    0.5690 c3        1 1O6     -0.087100
     28 C29        -2.7000   -4.7090    2.8780 c3        1 1O6     -0.118600
     29 C30        -1.6820   -4.5350    0.6210 c3        1 1O6     -0.118600
     30 H1         -0.6750    0.6250    0.2490 hc        1 1O6      0.063700
     31 H2         -0.8250   -0.7930   -0.8720 hc        1 1O6      0.063700
     32 H3          1.6060   -1.2740   -0.6520 hc        1 1O6      0.031950
     33 H4          1.3630    0.4470   -1.1510 hc        1 1O6      0.031950
     34 H5          1.6530    1.2110    1.1900 hc        1 1O6      0.045700
     35 H6          2.1980   -1.7650    1.8310 hc        1 1O6      0.031950
     36 H7          2.3430   -0.3690    2.9730 hc        1 1O6      0.031950
     37 H8         -0.0790    0.1240    2.7590 hc        1 1O6      0.063700
     38 H9          0.1760   -1.6020    3.2460 hc        1 1O6      0.063700
     39 H10        -0.1460   -2.3450    0.8890 hc        1 1O6      0.068700
     40 H11        -0.9730   -3.5180    2.3990 h1        1 1O6      0.031700
     41 H12        -6.2280   -2.9580   -1.1880 ha        1 1O6      0.160000
     42 H13        -7.0950   -2.2770    3.0090 ha        1 1O6      0.127000
     43 H14        -4.6530   -2.2030    3.4940 ha        1 1O6      0.127000
     44 H16       -10.6940   -2.5840    0.3390 ha        1 1O6      0.154500
     45 H17       -12.0560   -4.5640   -0.3640 ha        1 1O6      0.123000
     46 H18       -10.9410   -6.7420   -0.8400 ha        1 1O6      0.119000
     47 H19        -8.4630   -6.9480   -0.6230 ha        1 1O6      0.123000
     48 H20        -7.0920   -4.9850    0.0700 ha        1 1O6      0.154500
     49 H21         4.0700    0.6300    1.4530 hc        1 1O6      0.025700
     50 H22         3.6580    0.9770   -0.2780 hc        1 1O6      0.025700
     51 H23         3.8860   -0.7330    0.2740 hc        1 1O6      0.025700
     52 H24        -2.0800   -5.6250    3.0230 hc        1 1O6      0.045867
     53 H25        -3.6920   -5.0080    2.4610 hc        1 1O6      0.045867
     54 H26        -2.8630   -4.2210    3.8680 hc        1 1O6      0.045867
     55 H27        -1.2440   -3.8650   -0.1600 hc        1 1O6      0.045867
     56 H28        -0.9750   -5.3690    0.8400 hc        1 1O6      0.045867
     57 H29        -2.6260   -4.9550    0.1910 hc        1 1O6      0.045867
@<TRIPOS>BOND
     1    1    2 1   
     2    1    6 1   
     3    1   30 1   
     4    1   31 1   
     5    2    3 1   
     6    2   32 1   
     7    2   33 1   
     8    3    4 1   
     9    3   27 1   
    10    3   34 1   
    11    4    5 1   
    12    4   35 1   
    13    4   36 1   
    14    5    6 1   
    15    5   37 1   
    16    5   38 1   
    17    6    7 1   
    18    6   39 1   
    19    7    8 2   
    20    7   10 1   
    21    9   10 1   
    22    9   28 1   
    23    9   29 1   
    24    9   40 1   
    25   10   11 1   
    26   11   12 ar  
    27   11   16 ar  
    28   12   13 ar  
    29   12   17 1   
    30   13   14 ar  
    31   13   41 1   
    32   14   15 ar  
    33   14   20 1   
    34   15   16 ar  
    35   15   42 1   
    36   16   43 1   
    37   17   18 1   
    38   17   19 1   
    39   20   21 1   
    40   21   22 ar  
    41   21   26 ar  
    42   22   23 ar  
    43   22   44 1   
    44   23   24 ar  
    45   23   45 1   
    46   24   25 ar  
    47   24   46 1   
    48   25   26 ar  
    49   25   47 1   
    50   26   48 1   
    51   27   49 1   
    52   27   50 1   
    53   27   51 1   
    54   28   52 1   
    55   28   53 1   
    56   28   54 1   
    57   29   55 1   
    58   29   56 1   
    59   29   57 1   
@<TRIPOS>SUBSTRUCTURE
     1 1O6         1 TEMP              0 ****  ****    0 ROOT
