@<TRIPOS>MOLECULE
1O6
   57    50     1     0     0
SMALL
bcc


@<TRIPOS>ATOM
      1 C1          0.5070   -3.7010    1.0730 c3        1 1O6     -0.147000
      2 C2          1.9730   -3.5500    1.4550 c3        1 1O6     -0.154000
      3 C3          2.1760   -3.3480    2.9290 c3        1 1O6     -0.099000
      4 C4          1.3380   -2.2410    3.4940 c3        1 1O6     -0.154000
      5 C5         -0.1370   -2.3750    3.1400 c3        1 1O6     -0.147000
      6 C6         -0.3870   -2.5430    1.6100 c3        1 1O6     -0.107000
      7 C7         -0.1750   -1.2220    0.8280 c2        1 1O6      0.358000
      8 O8          0.7500   -0.5020    1.1060 o         1 1O6     -0.368000
      9 C9         -2.2500   -1.6740   -0.5750 c3        1 1O6      0.041000
     10 N10        -1.1910   -0.7730   -0.1640 n         1 1O6     -0.291000
     11 C11        -1.0620    0.5490   -0.8010 c1        1 1O6      0.070000
     12 C12        -1.2120    1.7070   -0.0390 c1        1 1O6     -0.044000
     13 C13        -1.1110    2.9610   -0.6470 c1        1 1O6     -0.134500
     14 C14        -0.8610    3.0560   -2.0140 c1        1 1O6     -0.044000
     15 C15        -0.7110    1.8990   -2.7760 c1        1 1O6     -0.134500
     16 C16        -0.8120    0.6420   -2.1680 c1        1 1O6     -0.125000
     17 C17        -1.5320    1.6060    1.4320 c1        1 1O6      0.360000
     18 O18        -0.6080    1.4580    2.2650 os        1 1O6     -0.569000
     19 O19        -2.7320    1.6990    1.8280 o         1 1O6     -0.551000
     20 O20        -0.8460    4.3330   -2.6480 o         1 1O6     -0.169000
     21 C21         0.5110    4.8090   -2.7390 c1        1 1O6      0.094000
     22 C22         0.9300    5.8750   -1.9470 c1        1 1O6     -0.140000
     23 C23         2.2160    6.3850   -2.0920 c1        1 1O6     -0.140000
     24 C24         3.0840    5.8290   -3.0270 c1        1 1O6     -0.140000
     25 C25         2.6650    4.7630   -3.8180 c1        1 1O6     -0.140000
     26 C26         1.3800    4.2540   -3.6740 c1        1 1O6     -0.182000
     27 C28         1.8200   -4.6610    3.6620 c3        1 1O6     -0.204000
     28 C29        -3.5680   -1.2530    0.0890 c3        1 1O6     -0.236000
     29 C30        -2.4050   -1.6200   -2.0910 c3        1 1O6     -0.236000
     30 H1          0.4380   -3.7240    0.0980 hc        1 1O6      0.088250
     31 H2          0.1690   -4.5610    1.4370 hc        1 1O6      0.088250
     32 H3          2.4600   -4.3610    1.1760 hc        1 1O6      0.084250
     33 H4          2.3390   -2.7890    0.9850 hc        1 1O6      0.084250
     34 H5          3.1200   -3.1430    3.0920 hc        1 1O6      0.069000
     35 H6          1.4300   -2.2420    4.4750 hc        1 1O6      0.084250
     36 H7          1.6680   -1.3920    3.1480 hc        1 1O6      0.084250
     37 H8         -0.5030   -3.1570    3.6070 hc        1 1O6      0.088250
     38 H9         -0.6100   -1.5720    3.4510 hc        1 1O6      0.088250
     39 H10        -1.3380   -2.7210    1.4280 hc        1 1O6      0.112000
     40 H11        -2.0260   -2.5860   -0.3030 h1        1 1O6      0.073000
     41 H12        -1.2160    3.7700   -0.1150 ha        1 1O6      0.144500
     42 H13        -0.5340    1.9650   -3.7410 ha        1 1O6      0.144500
     43 H14        -0.7070   -0.1690   -2.7020 ha        1 1O6      0.126000
     44 H16         0.3180    6.2670   -1.2880 ha        1 1O6      0.126250
     45 H17         2.5120    7.1360   -1.5340 ha        1 1O6      0.126250
     46 H18         4.0010    6.1650   -3.1040 ha        1 1O6      0.126250
     47 H19         3.2750    4.3720   -4.4760 ha        1 1O6      0.126250
     48 H20         1.0850    3.5020   -4.2330 ha        1 1O6      0.168000
     49 H21         1.8780   -4.5200    4.6320 hc        1 1O6      0.064000
     50 H22         2.4460   -5.3620    3.3970 hc        1 1O6      0.064000
     51 H23         0.9150   -4.9280    3.4270 hc        1 1O6      0.064000
     52 H24        -3.4060   -1.0430    1.0430 hc        1 1O6      0.084167
     53 H25        -4.2180   -1.9870    0.0210 hc        1 1O6      0.084167
     54 H26        -3.9240   -0.4620   -0.3650 hc        1 1O6      0.084167
     55 H27        -2.7790   -0.7490   -2.3510 hc        1 1O6      0.084167
     56 H28        -3.0070   -2.3350   -2.3830 hc        1 1O6      0.084167
     57 H29        -1.5330   -1.7370   -2.5110 hc        1 1O6      0.084167
@<TRIPOS>BOND
     1    1    2 1   
     2    1    6 1   
     3    1   30 1   
     4    1   31 1   
     5    2    3 1   
     6    2   32 1   
     7    2   33 1   
     8    3    4 1   
     9    3   27 1   
    10    3   34 1   
    11    4    5 1   
    12    4   35 1   
    13    4   36 1   
    14    5    6 1   
    15    5   37 1   
    16    5   38 1   
    17    6    7 1   
    18    6   39 1   
    19    7    8 1   
    20    7   10 1   
    21    9   10 1   
    22    9   28 1   
    23    9   29 1   
    24    9   40 1   
    25   10   11 1   
    26   11   16 1   
    27   12   13 1   
    28   13   41 1   
    29   14   15 1   
    30   15   42 1   
    31   16   43 1   
    32   17   19 1   
    33   20   21 1   
    34   21   26 1   
    35   22   23 1   
    36   22   44 1   
    37   23   45 1   
    38   24   25 1   
    39   24   46 1   
    40   25   47 1   
    41   26   48 1   
    42   27   49 1   
    43   27   50 1   
    44   27   51 1   
    45   28   52 1   
    46   28   53 1   
    47   28   54 1   
    48   29   55 1   
    49   29   56 1   
    50   29   57 1   
@<TRIPOS>SUBSTRUCTURE
     1 1O6         1 TEMP              0 ****  ****    0 ROOT
