@<TRIPOS>MOLECULE
1O6
   57    59     1     0     0
SMALL
bcc


@<TRIPOS>ATOM
      1 C1         -4.0620    1.0380   -0.5460 c3        1 1O6     -0.080900
      2 C2         -5.4520    1.3380   -0.0300 c3        1 1O6     -0.067900
      3 C3         -6.4560    0.2910   -0.4950 c3        1 1O6     -0.069700
      4 C4         -6.0070   -1.0990   -0.0680 c3        1 1O6     -0.067900
      5 C5         -4.6160   -1.4120   -0.5800 c3        1 1O6     -0.080900
      6 C6         -3.6180   -0.3580   -0.1260 c3        1 1O6     -0.121700
      7 C7         -2.2560   -0.6330   -0.7630 c         1 1O6      0.706100
      8 O8         -2.0920   -0.4330   -1.9820 o         1 1O6     -0.606100
      9 C9         -1.4380   -1.7110    1.3350 c3        1 1O6      0.123700
     10 N10        -1.2130   -1.1720    0.0000 n         1 1O6     -0.390000
     11 C11         0.1280   -0.8370   -0.3610 ca        1 1O6      0.061600
     12 C12         0.7280    0.3830    0.0270 ca        1 1O6     -0.104600
     13 C13         2.0420    0.6570   -0.3610 ca        1 1O6     -0.120000
     14 C14         2.7540   -0.2700   -1.1240 ca        1 1O6      0.054100
     15 C15         2.1760   -1.4840   -1.5140 ca        1 1O6     -0.157000
     16 C16         0.8670   -1.7580   -1.1370 ca        1 1O6     -0.121000
     17 C17         0.0260    1.4230    0.8960 c         1 1O6      0.913200
     18 O18         0.6680    1.8540    1.8950 o         1 1O6     -0.825800
     19 O19        -1.1390    1.7960    0.5860 o         1 1O6     -0.825800
     20 O20         4.0250    0.0240   -1.6340 os        1 1O6     -0.258200
     21 C21         5.0650    0.0860   -0.7220 ca        1 1O6      0.139100
     22 C22         6.3350    0.2800   -1.2970 ca        1 1O6     -0.176500
     23 C23         7.4480    0.3590   -0.4670 ca        1 1O6     -0.105000
     24 C24         7.3110    0.2460    0.9170 ca        1 1O6     -0.180000
     25 C25         6.0480    0.0570    1.4770 ca        1 1O6     -0.105000
     26 C26         4.9170   -0.0250    0.6670 ca        1 1O6     -0.176500
     27 C28        -7.8360    0.5940    0.0450 c3        1 1O6     -0.087100
     28 C29        -0.5030   -2.8860    1.6430 c3        1 1O6     -0.118600
     29 C30        -1.3350   -0.7020    2.4790 c3        1 1O6     -0.118600
     30 H1         -4.0420    1.1120   -1.6650 hc        1 1O6      0.063700
     31 H2         -3.3210    1.7830   -0.1420 hc        1 1O6      0.063700
     32 H3         -5.4410    1.3710    1.0910 hc        1 1O6      0.032200
     33 H4         -5.7740    2.3480   -0.3940 hc        1 1O6      0.032200
     34 H5         -6.4960    0.3170   -1.6210 hc        1 1O6      0.045700
     35 H6         -6.0190   -1.1630    1.0520 hc        1 1O6      0.032200
     36 H7         -6.7300   -1.8610   -0.4580 hc        1 1O6      0.032200
     37 H8         -4.2980   -2.4190   -0.2050 hc        1 1O6      0.063700
     38 H9         -4.6230   -1.4510   -1.7010 hc        1 1O6      0.063700
     39 H10        -3.5530   -0.3660    0.9970 hc        1 1O6      0.068700
     40 H11        -2.4920   -2.1300    1.3290 h1        1 1O6      0.031700
     41 H12         2.5050    1.6040   -0.0420 ha        1 1O6      0.160000
     42 H13         2.7480   -2.1960   -2.1230 ha        1 1O6      0.127000
     43 H14         0.4030   -2.7030   -1.4570 ha        1 1O6      0.127000
     44 H16         6.4270    0.3700   -2.3880 ha        1 1O6      0.154500
     45 H17         8.4430    0.5130   -0.9090 ha        1 1O6      0.123000
     46 H18         8.1960    0.3120    1.5640 ha        1 1O6      0.119000
     47 H19         5.9350   -0.0230    2.5680 ha        1 1O6      0.123000
     48 H20         3.9180   -0.1610    1.1100 ha        1 1O6      0.154500
     49 H21        -8.1710    1.6040   -0.2920 hc        1 1O6      0.025700
     50 H22        -8.5720   -0.1640   -0.3160 hc        1 1O6      0.025700
     51 H23        -7.8330    0.5790    1.1620 hc        1 1O6      0.025700
     52 H24        -0.7750   -3.3050    2.6410 hc        1 1O6      0.045867
     53 H25        -0.6000   -3.6900    0.8750 hc        1 1O6      0.045867
     54 H26         0.5600   -2.5490    1.6730 hc        1 1O6      0.045867
     55 H27        -0.2730   -0.3870    2.6360 hc        1 1O6      0.045867
     56 H28        -1.9160    0.2270    2.2540 hc        1 1O6      0.045867
     57 H29        -1.7220   -1.1700    3.4140 hc        1 1O6      0.045867
@<TRIPOS>BOND
     1    1    2 1   
     2    1    6 1   
     3    1   30 1   
     4    1   31 1   
     5    2    3 1   
     6    2   32 1   
     7    2   33 1   
     8    3    4 1   
     9    3   27 1   
    10    3   34 1   
    11    4    5 1   
    12    4   35 1   
    13    4   36 1   
    14    5    6 1   
    15    5   37 1   
    16    5   38 1   
    17    6    7 1   
    18    6   39 1   
    19    7    8 2   
    20    7   10 1   
    21    9   10 1   
    22    9   28 1   
    23    9   29 1   
    24    9   40 1   
    25   10   11 1   
    26   11   12 ar  
    27   11   16 ar  
    28   12   13 ar  
    29   12   17 1   
    30   13   14 ar  
    31   13   41 1   
    32   14   15 ar  
    33   14   20 1   
    34   15   16 ar  
    35   15   42 1   
    36   16   43 1   
    37   17   18 1   
    38   17   19 1   
    39   20   21 1   
    40   21   22 ar  
    41   21   26 ar  
    42   22   23 ar  
    43   22   44 1   
    44   23   24 ar  
    45   23   45 1   
    46   24   25 ar  
    47   24   46 1   
    48   25   26 ar  
    49   25   47 1   
    50   26   48 1   
    51   27   49 1   
    52   27   50 1   
    53   27   51 1   
    54   28   52 1   
    55   28   53 1   
    56   28   54 1   
    57   29   55 1   
    58   29   56 1   
    59   29   57 1   
@<TRIPOS>SUBSTRUCTURE
     1 1O6         1 TEMP              0 ****  ****    0 ROOT
