@<TRIPOS>MOLECULE
1O6
   57    59     1     0     0
SMALL
bcc


@<TRIPOS>ATOM
      1 C1         -0.2550   -0.3950   -0.0030 c3        1 1O6     -0.080900
      2 C2          1.2190   -0.2890   -0.3240 c3        1 1O6     -0.067900
      3 C3          2.0190    0.1830    0.8820 c3        1 1O6     -0.069700
      4 C4          1.7870   -0.7460    2.0660 c3        1 1O6     -0.067900
      5 C5          0.3140   -0.8600    2.3990 c3        1 1O6     -0.080900
      6 C6         -0.4850   -1.3170    1.1880 c3        1 1O6     -0.121700
      7 C7         -1.9760   -1.2990    1.5210 c         1 1O6      0.706100
      8 O8         -2.5680   -0.2090    1.6480 o         1 1O6     -0.606100
      9 C9         -1.9680   -3.7630    1.9230 c3        1 1O6      0.123700
     10 N10        -2.6660   -2.4960    1.7510 n         1 1O6     -0.390000
     11 C11        -4.0560   -2.5450    1.4250 ca        1 1O6      0.061600
     12 C12        -4.5100   -2.7580    0.1040 ca        1 1O6     -0.104600
     13 C13        -5.8840   -2.7910   -0.1540 ca        1 1O6     -0.120000
     14 C14        -6.7950   -2.6160    0.8880 ca        1 1O6      0.054100
     15 C15        -6.3620   -2.4070    2.2030 ca        1 1O6     -0.157000
     16 C16        -4.9980   -2.3660    2.4630 ca        1 1O6     -0.121000
     17 C17        -3.5730   -2.9990   -1.0770 c         1 1O6      0.913200
     18 O18        -3.8300   -3.9950   -1.8100 o         1 1O6     -0.825800
     19 O19        -2.6050   -2.2120   -1.2610 o         1 1O6     -0.825800
     20 O20        -8.1720   -2.5190    0.6470 os        1 1O6     -0.258200
     21 C21        -8.8220   -3.6790    0.2610 ca        1 1O6      0.139100
     22 C22       -10.2180   -3.5510    0.1330 ca        1 1O6     -0.176500
     23 C23       -10.9660   -4.6580   -0.2540 ca        1 1O6     -0.105000
     24 C24       -10.3430   -5.8800   -0.5110 ca        1 1O6     -0.180000
     25 C25        -8.9590   -5.9950   -0.3850 ca        1 1O6     -0.105000
     26 C26        -8.1880   -4.9010    0.0010 ca        1 1O6     -0.176500
     27 C28         3.4920    0.2640    0.5510 c3        1 1O6     -0.087100
     28 C29        -2.7010   -4.6940    2.8950 c3        1 1O6     -0.118600
     29 C30        -1.6840   -4.5380    0.6370 c3        1 1O6     -0.118600
     30 H1         -0.8240   -0.8060   -0.8840 hc        1 1O6      0.063700
     31 H2         -0.6740    0.6200    0.2280 hc        1 1O6      0.063700
     32 H3          1.3640    0.4320   -1.1710 hc        1 1O6      0.032200
     33 H4          1.6060   -1.2860   -0.6610 hc        1 1O6      0.032200
     34 H5          1.6550    1.2110    1.1660 hc        1 1O6      0.045700
     35 H6          2.1980   -1.7620    1.8250 hc        1 1O6      0.032200
     36 H7          2.3450   -0.3590    2.9590 hc        1 1O6      0.032200
     37 H8         -0.0770    0.1340    2.7420 hc        1 1O6      0.063700
     38 H9          0.1760   -1.5890    3.2400 hc        1 1O6      0.063700
     39 H10        -0.1460   -2.3470    0.8870 hc        1 1O6      0.068700
     40 H11        -0.9740   -3.5090    2.4070 h1        1 1O6      0.031700
     41 H12        -6.2280   -2.9710   -1.1850 ha        1 1O6      0.160000
     42 H13        -7.0950   -2.2610    3.0070 ha        1 1O6      0.127000
     43 H14        -4.6540   -2.1840    3.4920 ha        1 1O6      0.127000
     44 H16       -10.6930   -2.5830    0.3360 ha        1 1O6      0.154500
     45 H17       -12.0560   -4.5660   -0.3570 ha        1 1O6      0.123000
     46 H18       -10.9420   -6.7480   -0.8180 ha        1 1O6      0.119000
     47 H19        -8.4650   -6.9550   -0.5960 ha        1 1O6      0.123000
     48 H20        -7.0930   -4.9890    0.0860 ha        1 1O6      0.154500
     49 H21         3.8870   -0.7400    0.2620 hc        1 1O6      0.025700
     50 H22         4.0720    0.6310    1.4320 hc        1 1O6      0.025700
     51 H23         3.6590    0.9660   -0.3010 hc        1 1O6      0.025700
     52 H24        -2.0820   -5.6100    3.0470 hc        1 1O6      0.045867
     53 H25        -2.8630   -4.1990    3.8820 hc        1 1O6      0.045867
     54 H26        -3.6930   -4.9950    2.4820 hc        1 1O6      0.045867
     55 H27        -0.9780   -5.3720    0.8610 hc        1 1O6      0.045867
     56 H28        -2.6290   -4.9600    0.2100 hc        1 1O6      0.045867
     57 H29        -1.2450   -3.8740   -0.1500 hc        1 1O6      0.045867
@<TRIPOS>BOND
     1    1    2 1   
     2    1    6 1   
     3    1   30 1   
     4    1   31 1   
     5    2    3 1   
     6    2   32 1   
     7    2   33 1   
     8    3    4 1   
     9    3   27 1   
    10    3   34 1   
    11    4    5 1   
    12    4   35 1   
    13    4   36 1   
    14    5    6 1   
    15    5   37 1   
    16    5   38 1   
    17    6    7 1   
    18    6   39 1   
    19    7    8 2   
    20    7   10 1   
    21    9   10 1   
    22    9   28 1   
    23    9   29 1   
    24    9   40 1   
    25   10   11 1   
    26   11   12 ar  
    27   11   16 ar  
    28   12   13 ar  
    29   12   17 1   
    30   13   14 ar  
    31   13   41 1   
    32   14   15 ar  
    33   14   20 1   
    34   15   16 ar  
    35   15   42 1   
    36   16   43 1   
    37   17   18 1   
    38   17   19 1   
    39   20   21 1   
    40   21   22 ar  
    41   21   26 ar  
    42   22   23 ar  
    43   22   44 1   
    44   23   24 ar  
    45   23   45 1   
    46   24   25 ar  
    47   24   46 1   
    48   25   26 ar  
    49   25   47 1   
    50   26   48 1   
    51   27   49 1   
    52   27   50 1   
    53   27   51 1   
    54   28   52 1   
    55   28   53 1   
    56   28   54 1   
    57   29   55 1   
    58   29   56 1   
    59   29   57 1   
@<TRIPOS>SUBSTRUCTURE
     1 1O6         1 TEMP              0 ****  ****    0 ROOT
