@<TRIPOS>MOLECULE
1O8
   43    44     1     0     0
SMALL
bcc


@<TRIPOS>ATOM
      1 C2'         0.0340    0.1900    0.2620 c3        1 1O8     -0.035200
      2 C1'         1.5450    0.2910    0.3030 c3        1 1O8     -0.073400
      3 C18         2.0640    0.1020    1.7110 c3        1 1O8     -0.032100
      4 C5          1.4240   -1.0380    2.4240 ca        1 1O8     -0.069300
      5 C4          2.0340   -1.5140    3.5910 ca        1 1O8     -0.137000
      6 C3          1.4600   -2.5470    4.3250 ca        1 1O8     -0.137000
      7 C2          0.2580   -3.1100    3.8990 ca        1 1O8     -0.134000
      8 C1         -0.3550   -2.6470    2.7390 ca        1 1O8     -0.123000
      9 C6          0.2200   -1.6170    1.9760 ca        1 1O8     -0.022800
     10 C7         -0.4180   -1.1470    0.7450 ce        1 1O8     -0.089400
     11 C8         -1.3250   -1.8900    0.0770 cf        1 1O8     -0.074000
     12 C9         -2.0530   -1.4940   -1.1170 cf        1 1O8     -0.156200
     13 C19        -2.7920   -0.2040   -1.0820 c3        1 1O8     -0.042900
     14 C10        -2.1270   -2.2830   -2.2140 ce        1 1O8     -0.065000
     15 C11        -1.4800   -3.5580   -2.3710 ce        1 1O8     -0.230000
     16 C12        -1.6160   -4.3030   -3.4890 cf        1 1O8     -0.034000
     17 C13        -1.0050   -5.5980   -3.7160 cf        1 1O8     -0.161200
     18 C20        -0.1820   -6.1750   -2.6250 c3        1 1O8     -0.048900
     19 C14        -1.1970   -6.2320   -4.8920 ce        1 1O8     -0.126200
     20 C15        -0.5940   -7.5520   -5.3210 c         1 1O8      0.892800
     21 O1         -0.6430   -8.5440   -4.5400 o         1 1O8     -0.827800
     22 O2         -0.0900   -7.5850   -6.4800 o         1 1O8     -0.827800
     23 H1         -0.3180    0.3660   -0.7900 hc        1 1O8      0.047700
     24 H2         -0.4180    0.9900    0.9090 hc        1 1O8      0.047700
     25 H3          1.8670    1.2920   -0.0830 hc        1 1O8      0.044200
     26 H4          1.9870   -0.4890   -0.3710 hc        1 1O8      0.044200
     27 H5          3.1760   -0.0490    1.6810 hc        1 1O8      0.042200
     28 H6          1.8730    1.0380    2.3070 hc        1 1O8      0.042200
     29 H7          2.9800   -1.0630    3.9260 ha        1 1O8      0.122000
     30 H8          1.9520   -2.9160    5.2360 ha        1 1O8      0.123000
     31 H9         -0.2050   -3.9230    4.4760 ha        1 1O8      0.126000
     32 H10        -1.3090   -3.0970    2.4220 ha        1 1O8      0.136000
     33 H11        -1.5620   -2.9140    0.4220 ha        1 1O8      0.128000
     34 H12        -2.4690    0.4590   -1.9230 hc        1 1O8      0.031367
     35 H13        -3.8910   -0.3860   -1.1860 hc        1 1O8      0.031367
     36 H14        -2.6160    0.3370   -0.1200 hc        1 1O8      0.031367
     37 H15        -2.7270   -1.9330   -3.0750 ha        1 1O8      0.109000
     38 H16        -0.8560   -3.9110   -1.5330 ha        1 1O8      0.131000
     39 H17        -2.2390   -3.9220   -4.3200 ha        1 1O8      0.102000
     40 H18         0.7130   -5.5340   -2.4310 hc        1 1O8      0.039367
     41 H19        -0.7790   -6.2370   -1.6800 hc        1 1O8      0.039367
     42 H20         0.1570   -7.2080   -2.8980 hc        1 1O8      0.039367
     43 H21        -1.8190   -5.7660   -5.6750 ha        1 1O8      0.097000
@<TRIPOS>BOND
     1    1    2 1   
     2    1   10 1   
     3    1   23 1   
     4    1   24 1   
     5    2    3 1   
     6    2   25 1   
     7    2   26 1   
     8    3    4 1   
     9    3   27 1   
    10    3   28 1   
    11    4    5 ar  
    12    4    9 ar  
    13    5    6 ar  
    14    5   29 1   
    15    6    7 ar  
    16    6   30 1   
    17    7    8 ar  
    18    7   31 1   
    19    8    9 ar  
    20    8   32 1   
    21    9   10 1   
    22   10   11 2   
    23   11   12 1   
    24   11   33 1   
    25   12   13 1   
    26   12   14 2   
    27   13   34 1   
    28   13   35 1   
    29   13   36 1   
    30   14   15 1   
    31   14   37 1   
    32   15   16 2   
    33   15   38 1   
    34   16   17 1   
    35   16   39 1   
    36   17   18 1   
    37   17   19 2   
    38   18   40 1   
    39   18   41 1   
    40   18   42 1   
    41   19   20 1   
    42   19   43 1   
    43   20   21 1   
    44   20   22 1   
@<TRIPOS>SUBSTRUCTURE
     1 1O8         1 TEMP              0 ****  ****    0 ROOT
