@<TRIPOS>MOLECULE
1O8
   43    44     1     0     0
SMALL
bcc


@<TRIPOS>ATOM
      1 C2'        -2.7520   -1.6560   -1.0330 c3        1 1O8     -0.036200
      2 C1'        -2.9400   -0.8050   -2.2720 c3        1 1O8     -0.074400
      3 C18        -4.0330    0.2210   -2.0670 c3        1 1O8     -0.033100
      4 C5         -3.9430    0.9190   -0.7550 ca        1 1O8     -0.067300
      5 C4         -4.6790    2.0970   -0.5810 ca        1 1O8     -0.136000
      6 C3         -4.6700    2.7710    0.6370 ca        1 1O8     -0.136000
      7 C2         -3.9250    2.2620    1.6990 ca        1 1O8     -0.136000
      8 C1         -3.1860    1.0940    1.5360 ca        1 1O8     -0.123000
      9 C6         -3.1710    0.4120    0.3090 ca        1 1O8     -0.023800
     10 C7         -2.3770   -0.8060    0.1370 ce        1 1O8     -0.083400
     11 C8         -1.3530   -1.1230    0.9540 cf        1 1O8     -0.078000
     12 C9         -0.5500   -2.3370    0.8840 cf        1 1O8     -0.157200
     13 C19        -1.2580   -3.6150    1.1490 c3        1 1O8     -0.041900
     14 C10         0.7830   -2.3130    0.6660 ce        1 1O8     -0.067000
     15 C11         1.5640   -1.1240    0.4380 ce        1 1O8     -0.228000
     16 C12         2.8960   -1.1640    0.2260 cf        1 1O8     -0.037000
     17 C13         3.7470   -0.0120   -0.0020 cf        1 1O8     -0.160200
     18 C20         3.1160    1.3300    0.0340 c3        1 1O8     -0.048900
     19 C14         5.0640   -0.1890   -0.2350 ce        1 1O8     -0.128200
     20 C15         6.0830    0.8860   -0.5480 c         1 1O8      0.892800
     21 O1          6.1360    1.9240    0.1680 o         1 1O8     -0.828300
     22 O2          6.8580    0.6540   -1.5200 o         1 1O8     -0.828300
     23 H1         -3.7030   -2.2060   -0.8010 hc        1 1O8      0.048700
     24 H2         -1.9550   -2.4220   -1.2280 hc        1 1O8      0.048700
     25 H3         -1.9750   -0.2880   -2.5170 hc        1 1O8      0.046200
     26 H4         -3.2020   -1.4610   -3.1430 hc        1 1O8      0.046200
     27 H5         -3.9960    0.9750   -2.8990 hc        1 1O8      0.042700
     28 H6         -5.0350   -0.2860   -2.1240 hc        1 1O8      0.042700
     29 H7         -5.2690    2.4920   -1.4210 ha        1 1O8      0.123000
     30 H8         -5.2470    3.6980    0.7590 ha        1 1O8      0.123000
     31 H9         -3.9160    2.7850    2.6670 ha        1 1O8      0.125000
     32 H10        -2.6100    0.7030    2.3880 ha        1 1O8      0.134000
     33 H11        -1.0440   -0.4300    1.7580 ha        1 1O8      0.127000
     34 H12        -2.2630   -3.6240    0.6570 hc        1 1O8      0.031033
     35 H13        -0.6720   -4.4890    0.7740 hc        1 1O8      0.031033
     36 H14        -1.4120   -3.7420    2.2500 hc        1 1O8      0.031033
     37 H15         1.3390   -3.2680    0.6530 ha        1 1O8      0.110000
     38 H16         1.0220   -0.1640    0.4430 ha        1 1O8      0.131000
     39 H17         3.4130   -2.1430    0.2170 ha        1 1O8      0.101000
     40 H18         2.5810    1.4820    1.0040 hc        1 1O8      0.039033
     41 H19         3.8950    2.1290   -0.0700 hc        1 1O8      0.039033
     42 H20         2.3720    1.4330   -0.7950 hc        1 1O8      0.039033
     43 H21         5.4910   -1.2060   -0.2500 ha        1 1O8      0.097000
@<TRIPOS>BOND
     1    1    2 1   
     2    1   10 1   
     3    1   23 1   
     4    1   24 1   
     5    2    3 1   
     6    2   25 1   
     7    2   26 1   
     8    3    4 1   
     9    3   27 1   
    10    3   28 1   
    11    4    5 ar  
    12    4    9 ar  
    13    5    6 ar  
    14    5   29 1   
    15    6    7 ar  
    16    6   30 1   
    17    7    8 ar  
    18    7   31 1   
    19    8    9 ar  
    20    8   32 1   
    21    9   10 1   
    22   10   11 2   
    23   11   12 1   
    24   11   33 1   
    25   12   13 1   
    26   12   14 2   
    27   13   34 1   
    28   13   35 1   
    29   13   36 1   
    30   14   15 1   
    31   14   37 1   
    32   15   16 2   
    33   15   38 1   
    34   16   17 1   
    35   16   39 1   
    36   17   18 1   
    37   17   19 2   
    38   18   40 1   
    39   18   41 1   
    40   18   42 1   
    41   19   20 1   
    42   19   43 1   
    43   20   21 1   
    44   20   22 1   
@<TRIPOS>SUBSTRUCTURE
     1 1O8         1 TEMP              0 ****  ****    0 ROOT
