@<TRIPOS>MOLECULE
1O8
   43    44     1     0     0
SMALL
bcc


@<TRIPOS>ATOM
      1 C2'         0.8140   -0.4880    0.2290 c3        1 1O8     -0.036200
      2 C1'         2.1790   -0.7500    0.8320 c3        1 1O8     -0.073400
      3 C18         2.1710   -0.5040    2.3250 c3        1 1O8     -0.033100
      4 C5          0.9890   -1.0960    3.0100 ca        1 1O8     -0.070300
      5 C4          1.0310   -1.2300    4.4030 ca        1 1O8     -0.137000
      6 C3         -0.0620   -1.7310    5.1050 ca        1 1O8     -0.140000
      7 C2         -1.2150   -2.0960    4.4120 ca        1 1O8     -0.137000
      8 C1         -1.2660   -1.9720    3.0270 ca        1 1O8     -0.126000
      9 C6         -0.1660   -1.4860    2.3020 ca        1 1O8     -0.019800
     10 C7         -0.2150   -1.3770    0.8440 ce        1 1O8     -0.093400
     11 C8         -1.1080   -2.0570    0.0980 cf        1 1O8     -0.071000
     12 C9         -1.2520   -1.9710   -1.3510 cf        1 1O8     -0.156200
     13 C19        -1.7240   -0.6710   -1.8900 c3        1 1O8     -0.043900
     14 C10        -1.0450   -3.0280   -2.1650 ce        1 1O8     -0.070000
     15 C11        -0.6050   -4.3280   -1.7190 ce        1 1O8     -0.207000
     16 C12        -0.5570   -5.4350   -2.4830 cf        1 1O8     -0.053000
     17 C13        -0.9700   -5.5780   -3.8690 cf        1 1O8     -0.163200
     18 C20        -0.0800   -6.4350   -4.6950 c3        1 1O8     -0.047900
     19 C14        -2.0900   -5.0140   -4.3570 ce        1 1O8     -0.143200
     20 C15        -2.5720   -5.0710   -5.7900 c         1 1O8      0.894800
     21 O1         -2.6670   -6.1870   -6.3750 o         1 1O8     -0.832300
     22 O2         -2.8800   -3.9640   -6.3200 o         1 1O8     -0.832300
     23 H1          0.8610   -0.6570   -0.8800 hc        1 1O8      0.052700
     24 H2          0.5240    0.5840    0.3970 hc        1 1O8      0.052700
     25 H3          2.9390   -0.0830    0.3480 hc        1 1O8      0.043200
     26 H4          2.4800   -1.8100    0.6240 hc        1 1O8      0.043200
     27 H5          2.1660    0.6050    2.5190 hc        1 1O8      0.041700
     28 H6          3.1140   -0.9140    2.7760 hc        1 1O8      0.041700
     29 H7          1.9400   -0.9340    4.9460 ha        1 1O8      0.122000
     30 H8         -0.0160   -1.8350    6.1980 ha        1 1O8      0.121000
     31 H9         -2.0870   -2.4840    4.9590 ha        1 1O8      0.124000
     32 H10        -2.1900   -2.2530    2.4980 ha        1 1O8      0.136000
     33 H11        -1.8120   -2.7640    0.5740 ha        1 1O8      0.122000
     34 H12        -1.1560    0.1780   -1.4340 hc        1 1O8      0.036367
     35 H13        -2.8080   -0.5320   -1.6490 hc        1 1O8      0.036367
     36 H14        -1.6050   -0.6270   -3.0010 hc        1 1O8      0.036367
     37 H15        -1.2040   -2.9170   -3.2560 ha        1 1O8      0.156000
     38 H16        -0.2690   -4.3860   -0.6680 ha        1 1O8      0.106000
     39 H17        -0.1440   -6.3590   -2.0360 ha        1 1O8      0.102000
     40 H18        -0.5470   -6.6280   -5.6960 hc        1 1O8      0.037033
     41 H19         0.9090   -5.9360   -4.8440 hc        1 1O8      0.037033
     42 H20         0.0970   -7.4170   -4.1890 hc        1 1O8      0.037033
     43 H21        -2.7450   -4.4190   -3.6990 ha        1 1O8      0.104000
@<TRIPOS>BOND
     1    1    2 1   
     2    1   10 1   
     3    1   23 1   
     4    1   24 1   
     5    2    3 1   
     6    2   25 1   
     7    2   26 1   
     8    3    4 1   
     9    3   27 1   
    10    3   28 1   
    11    4    5 ar  
    12    4    9 ar  
    13    5    6 ar  
    14    5   29 1   
    15    6    7 ar  
    16    6   30 1   
    17    7    8 ar  
    18    7   31 1   
    19    8    9 ar  
    20    8   32 1   
    21    9   10 1   
    22   10   11 2   
    23   11   12 1   
    24   11   33 1   
    25   12   13 1   
    26   12   14 2   
    27   13   34 1   
    28   13   35 1   
    29   13   36 1   
    30   14   15 1   
    31   14   37 1   
    32   15   16 2   
    33   15   38 1   
    34   16   17 1   
    35   16   39 1   
    36   17   18 1   
    37   17   19 2   
    38   18   40 1   
    39   18   41 1   
    40   18   42 1   
    41   19   20 1   
    42   19   43 1   
    43   20   21 1   
    44   20   22 1   
@<TRIPOS>SUBSTRUCTURE
     1 1O8         1 TEMP              0 ****  ****    0 ROOT
