@<TRIPOS>MOLECULE
1O8
   43    36     1     0     0
SMALL
bcc


@<TRIPOS>ATOM
      1 C2'         0.6590    2.3970    0.4530 c3        1 1O8     -0.116000
      2 C1'         2.1350    2.4010    0.4660 c3        1 1O8     -0.152000
      3 C18         2.7790    2.3910    1.7510 c3        1 1O8     -0.118000
      4 C5          2.1260    1.5120    2.8610 c2        1 1O8     -0.065000
      5 C4          2.7400    1.3210    4.0940 c2        1 1O8     -0.137000
      6 C3          2.1190    0.5420    5.0730 c1        1 1O8     -0.140000
      7 C2          0.8400   -0.0660    4.8080 c1        1 1O8     -0.130750
      8 C1          0.2160    0.1270    3.5590 c1        1 1O8     -0.130750
      9 C6          0.8340    0.9010    2.5870 c1        1 1O8     -0.006000
     10 C7          0.0890    1.3040    1.2560 c1        1 1O8     -0.108000
     11 C8         -0.8530    0.4670    0.7210 c1        1 1O8     -0.063000
     12 C9         -1.3120    0.6550   -0.6900 c1        1 1O8     -0.171000
     13 C19        -2.0550    1.9390   -1.0930 c2        1 1O8     -0.162000
     14 C10        -1.0670   -0.3520   -1.6540 c1        1 1O8     -0.048000
     15 C11        -0.3290   -1.6350   -1.2510 c1        1 1O8     -0.130750
     16 C12        -0.6260   -2.8270   -1.8770 c1        1 1O8     -0.130750
     17 C13        -1.7250   -2.8720   -3.0020 c1        1 1O8     -0.165000
     18 C20        -3.2280   -2.7940   -2.6230 c3        1 1O8     -0.166000
     19 C14        -1.3390   -2.9720   -4.3700 c1        1 1O8     -0.118000
     20 C15         0.1700   -3.0360   -4.7510 c1        1 1O8      0.342000
     21 O1          0.8220   -1.9670   -4.9250 o         1 1O8     -0.564000
     22 O2          0.7440   -4.1360   -4.8490 o         1 1O8     -0.564000
     23 H1          0.2990    2.3820   -0.4580 hc        1 1O8      0.087000
     24 H2          0.3200    3.2760    0.7700 hc        1 1O8      0.087000
     25 H3          2.4280    3.2150   -0.0010 hc        1 1O8      0.083500
     26 H4          2.4370    1.5940   -0.0210 hc        1 1O8      0.083500
     27 H5          2.7910    3.2890    2.0710 hc        1 1O8      0.081000
     28 H6          3.7340    2.0450    1.6130 hc        1 1O8      0.081000
     29 H7          3.5940    1.7240    4.2720 ha        1 1O8      0.121000
     30 H8          2.5640    0.4060    5.9610 ha        1 1O8      0.121000
     31 H9          0.3630   -0.6120    5.5470 ha        1 1O8      0.139250
     32 H10        -0.6190   -0.2690    3.3840 ha        1 1O8      0.139250
     33 H11        -1.2300   -0.2630    1.2670 ha        1 1O8      0.126000
     34 H12        -2.7790    1.7190   -1.6650 ha        1 1O8      0.068667
     35 H13        -1.4170    2.5630   -1.5800 ha        1 1O8      0.068667
     36 H14        -2.4050    2.3940   -0.2750 ha        1 1O8      0.068667
     37 H15        -1.3590   -0.2330   -2.5500 ha        1 1O8      0.122000
     38 H16         0.3690   -1.6070   -0.5370 ha        1 1O8      0.139250
     39 H17        -0.1540   -3.6450   -1.6190 ha        1 1O8      0.139250
     40 H18        -3.7380   -3.3640   -3.2060 hc        1 1O8      0.061000
     41 H19        -3.3450   -3.0830   -1.7060 hc        1 1O8      0.061000
     42 H20        -3.5500   -1.8300   -2.7210 hc        1 1O8      0.061000
     43 H21        -2.0420   -3.0030   -5.0910 ha        1 1O8      0.102000
@<TRIPOS>BOND
     1    1    2 1   
     2    1   10 1   
     3    1   23 1   
     4    1   24 1   
     5    2    3 1   
     6    2   25 1   
     7    2   26 1   
     8    3    4 1   
     9    3   27 1   
    10    3   28 1   
    11    4    5 1   
    12    4    9 1   
    13    5    6 1   
    14    5   29 1   
    15    6   30 1   
    16    7    8 1   
    17    7   31 1   
    18    8   32 1   
    19   10   11 1   
    20   11   33 1   
    21   12   14 1   
    22   13   34 1   
    23   13   35 1   
    24   13   36 1   
    25   14   37 1   
    26   15   16 1   
    27   15   38 1   
    28   16   39 1   
    29   17   18 1   
    30   17   19 1   
    31   18   40 1   
    32   18   41 1   
    33   18   42 1   
    34   19   43 1   
    35   20   21 1   
    36   20   22 1   
@<TRIPOS>SUBSTRUCTURE
     1 1O8         1 TEMP              0 ****  ****    0 ROOT
