@<TRIPOS>MOLECULE
1O9
   66    70     1     0     0
SMALL
bcc


@<TRIPOS>ATOM
      1 N1         -0.0600   -0.0130    0.1930 n         1 1O9     -0.455800
      2 C2          1.4060    0.0920    0.1770 c3        1 1O9      0.013400
      3 C3          1.7990    0.6310    1.5850 c3        1 1O9     -0.082400
      4 C4          0.5190    0.6520    2.4250 c3        1 1O9     -0.114000
      5 C5         -0.5640   -0.0730    1.5660 c3        1 1O9      0.127400
      6 C6          2.0900   -1.3130    0.0370 c         1 1O9      0.749600
      7 O7          2.9830   -1.4990   -0.8130 o         1 1O9     -0.739500
      8 O8          1.7550   -2.2280    0.8850 os        1 1O9     -0.459900
      9 C9          1.9700    1.0080   -0.9190 c3        1 1O9     -0.076400
     10 C10         1.4860    2.4530   -0.8740 c3        1 1O9     -0.065700
     11 C11         2.6510    3.4100   -0.7070 c3        1 1O9     -0.088600
     12 C12         0.7120    2.8030   -2.1300 c3        1 1O9     -0.088600
     13 C13        -0.8580   -0.2060   -0.9130 c         1 1O9      0.683700
     14 O14        -0.3990   -0.3100   -2.0710 o         1 1O9     -0.608100
     15 C15        -2.3450   -0.2330   -0.7200 ca        1 1O9     -0.110600
     16 C16        -3.0490   -1.4160   -0.9470 ca        1 1O9     -0.092500
     17 C17        -4.4400   -1.4350   -0.8360 ca        1 1O9     -0.132500
     18 C18        -5.1480   -0.2750   -0.5050 ca        1 1O9     -0.064300
     19 C19        -4.4280    0.9110   -0.2900 ca        1 1O9     -0.132500
     20 C20        -3.0410    0.9340   -0.3930 ca        1 1O9     -0.092500
     21 C21        -0.8620   -1.4750    2.0200 c2        1 1O9      0.328600
     22 S22         0.0190   -2.8520    1.5460 s4        1 1O9     -0.156500
     23 C23        -1.0060   -3.8390    2.3740 c2        1 1O9     -0.205300
     24 C24        -1.9900   -3.0910    3.0340 ce        1 1O9     -0.047400
     25 N25        -1.9200   -1.7380    2.8260 ne        1 1O9     -0.558300
     26 C26         0.7040    0.0840    3.7980 ca        1 1O9      0.331300
     27 N27         0.1880    0.7550    4.8580 nb        1 1O9     -0.641000
     28 C28         0.3980    0.2180    6.0770 ca        1 1O9      0.268900
     29 C29         1.1310   -0.9770    6.2590 ca        1 1O9      0.261900
     30 N30         1.6540   -1.6530    5.2130 nb        1 1O9     -0.637000
     31 C31         1.4370   -1.1320    3.9930 ca        1 1O9      0.299900
     32 C32        -6.6470   -0.2580   -0.3660 c3        1 1O9     -0.006700
     33 C33        -7.2710   -1.6230   -0.6280 c3        1 1O9     -0.084767
     34 C34        -7.0160    0.1700    1.0520 c3        1 1O9     -0.084767
     35 C35        -7.2390    0.7350   -1.3630 c3        1 1O9     -0.084767
     36 H1          2.2240    1.6620    1.5060 hc        1 1O9      0.056700
     37 H2          2.5850   -0.0280    2.0300 hc        1 1O9      0.056700
     38 H3          0.1810    1.7250    2.5160 hc        1 1O9      0.064700
     39 H4         -1.5180    0.5340    1.6190 h1        1 1O9      0.074700
     40 H6          3.0870    0.9700   -0.8100 hc        1 1O9      0.076200
     41 H7          1.7300    0.5440   -1.9140 hc        1 1O9      0.076200
     42 H8          0.7980    2.5910    0.0080 hc        1 1O9      0.041700
     43 H9          3.3670    3.3060   -1.5570 hc        1 1O9      0.027533
     44 H10         2.2850    4.4650   -0.6800 hc        1 1O9      0.027533
     45 H11         3.1990    3.2000    0.2420 hc        1 1O9      0.027533
     46 H12        -0.1170    2.0700   -2.2850 hc        1 1O9      0.027533
     47 H13         0.2810    3.8300   -2.0490 hc        1 1O9      0.027533
     48 H14         1.3810    2.7690   -3.0230 hc        1 1O9      0.027533
     49 H15        -2.5030   -2.3350   -1.2100 ha        1 1O9      0.142000
     50 H16        -4.9630   -2.3870   -1.0080 ha        1 1O9      0.126000
     51 H17        -4.9630    1.8360   -0.0280 ha        1 1O9      0.126000
     52 H18        -2.4910    1.8710   -0.2170 ha        1 1O9      0.142000
     53 H19        -0.9330   -4.9200    2.4470 h4        1 1O9      0.142000
     54 H20        -2.7770   -3.4850    3.6820 h4        1 1O9      0.137000
     55 H21        -0.0350    0.7630    6.9310 h4        1 1O9      0.014100
     56 H22         1.3000   -1.4030    7.2600 h4        1 1O9      0.015100
     57 H23         1.8310   -1.7010    3.1200 h4        1 1O9      0.084100
     58 H24        -8.3810   -1.5580   -0.5130 hc        1 1O9      0.034144
     59 H25        -7.0440   -1.9670   -1.6650 hc        1 1O9      0.034144
     60 H26        -6.8850   -2.3760    0.1000 hc        1 1O9      0.034144
     61 H27        -8.1260    0.1680    1.1750 hc        1 1O9      0.034144
     62 H28        -6.6370    1.1980    1.2640 hc        1 1O9      0.034144
     63 H29        -6.5700   -0.5340    1.7940 hc        1 1O9      0.034144
     64 H30        -6.8470    1.7630   -1.1740 hc        1 1O9      0.034144
     65 H31        -6.9750    0.4390   -2.4050 hc        1 1O9      0.034144
     66 H32        -8.3510    0.7560   -1.2660 hc        1 1O9      0.034144
@<TRIPOS>BOND
     1    1    2 1   
     2    1    5 1   
     3    1   13 1   
     4    2    3 1   
     5    2    6 1   
     6    2    9 1   
     7    3    4 1   
     8    3   36 1   
     9    3   37 1   
    10    4    5 1   
    11    4   26 1   
    12    4   38 1   
    13    5   21 1   
    14    5   39 1   
    15    6    7 2   
    16    6    8 1   
    17    8   22 1   
    18    9   10 1   
    19    9   40 1   
    20    9   41 1   
    21   10   11 1   
    22   10   12 1   
    23   10   42 1   
    24   11   43 1   
    25   11   44 1   
    26   11   45 1   
    27   12   46 1   
    28   12   47 1   
    29   12   48 1   
    30   13   14 2   
    31   13   15 1   
    32   15   16 ar  
    33   15   20 ar  
    34   16   17 ar  
    35   16   49 1   
    36   17   18 ar  
    37   17   50 1   
    38   18   19 ar  
    39   18   32 1   
    40   19   20 ar  
    41   19   51 1   
    42   20   52 1   
    43   21   22 1   
    44   21   25 2   
    45   22   23 1   
    46   23   24 2   
    47   23   53 1   
    48   24   25 1   
    49   24   54 1   
    50   26   27 ar  
    51   26   31 ar  
    52   27   28 ar  
    53   28   29 ar  
    54   28   55 1   
    55   29   30 ar  
    56   29   56 1   
    57   30   31 ar  
    58   31   57 1   
    59   32   33 1   
    60   32   34 1   
    61   32   35 1   
    62   33   58 1   
    63   33   59 1   
    64   33   60 1   
    65   34   61 1   
    66   34   62 1   
    67   34   63 1   
    68   35   64 1   
    69   35   65 1   
    70   35   66 1   
@<TRIPOS>SUBSTRUCTURE
     1 1O9         1 TEMP              0 ****  ****    0 ROOT
