@<TRIPOS>MOLECULE
1O9
   66    70     1     0     0
SMALL
bcc


@<TRIPOS>ATOM
      1 N1         -0.0630   -0.0130    0.1830 n         1 1O9     -0.455800
      2 C2          1.4020    0.1010    0.1540 c3        1 1O9      0.013400
      3 C3          1.8010    0.6690    1.5480 c3        1 1O9     -0.082400
      4 C4          0.5270    0.6980    2.3970 c3        1 1O9     -0.114000
      5 C5         -0.5570   -0.0510    1.5610 c3        1 1O9      0.127400
      6 C6          2.0940   -1.3030    0.0370 c         1 1O9      0.749600
      7 O7          2.9820   -1.4990   -0.8170 o         1 1O9     -0.739500
      8 O8          1.7720   -2.2030    0.9040 os        1 1O9     -0.459900
      9 C9          1.9510    0.9990   -0.9640 c3        1 1O9     -0.076400
     10 C10         1.4580    2.4410   -0.9430 c3        1 1O9     -0.065700
     11 C11         2.6180    3.4090   -0.8030 c3        1 1O9     -0.088600
     12 C12         0.6720    2.7620   -2.1990 c3        1 1O9     -0.088600
     13 C13        -0.8680   -0.2330   -0.9130 c         1 1O9      0.683700
     14 O14        -0.4160   -0.3570   -2.0720 o         1 1O9     -0.608100
     15 C15        -2.3530   -0.2660   -0.7090 ca        1 1O9     -0.110600
     16 C16        -3.0510   -1.4580   -0.9070 ca        1 1O9     -0.092500
     17 C17        -4.4410   -1.4840   -0.7850 ca        1 1O9     -0.132500
     18 C18        -5.1540   -0.3220   -0.4730 ca        1 1O9     -0.064300
     19 C19        -4.4410    0.8730   -0.2860 ca        1 1O9     -0.132500
     20 C20        -3.0540    0.9030   -0.4000 ca        1 1O9     -0.092500
     21 C21        -0.8420   -1.4460    2.0440 c2        1 1O9      0.328600
     22 S22         0.0450   -2.8260    1.5900 s4        1 1O9     -0.156500
     23 C23        -0.9680   -3.8030    2.4440 c2        1 1O9     -0.205300
     24 C24        -1.9520   -3.0490    3.0970 ce        1 1O9     -0.047400
     25 N25        -1.8920   -1.7000    2.8630 ne        1 1O9     -0.558300
     26 C26         0.7260    0.1580    3.7800 ca        1 1O9      0.331300
     27 N27         0.2130    0.8470    4.8300 nb        1 1O9     -0.641000
     28 C28         0.4360    0.3360    6.0580 ca        1 1O9      0.268900
     29 C29         1.1770   -0.8510    6.2580 ca        1 1O9      0.261900
     30 N30         1.6980   -1.5440    5.2220 nb        1 1O9     -0.637000
     31 C31         1.4690   -1.0490    3.9930 ca        1 1O9      0.299900
     32 C32        -6.6520   -0.3110   -0.3230 c3        1 1O9     -0.006700
     33 C33        -7.2700   -1.6850   -0.5540 c3        1 1O9     -0.084767
     34 C34        -7.0140    0.1420    1.0890 c3        1 1O9     -0.084767
     35 C35        -7.2580    0.6590   -1.3340 c3        1 1O9     -0.084767
     36 H1          2.2190    1.7010    1.4470 hc        1 1O9      0.056700
     37 H2          2.5950    0.0240    2.0000 hc        1 1O9      0.056700
     38 H3          0.1820    1.7700    2.4700 hc        1 1O9      0.064700
     39 H4         -1.5150    0.5510    1.6090 h1        1 1O9      0.074700
     40 H6          1.7070    0.5140   -1.9480 hc        1 1O9      0.076200
     41 H7          3.0700    0.9700   -0.8620 hc        1 1O9      0.076200
     42 H8          0.7760    2.5920   -0.0580 hc        1 1O9      0.041700
     43 H9          3.1740    3.2200    0.1460 hc        1 1O9      0.027533
     44 H10         2.2450    4.4620   -0.7940 hc        1 1O9      0.027533
     45 H11         3.3290    3.2930   -1.6570 hc        1 1O9      0.027533
     46 H12         0.2340    3.7870   -2.1340 hc        1 1O9      0.027533
     47 H13         1.3340    2.7150   -3.0970 hc        1 1O9      0.027533
     48 H14        -0.1530    2.0190   -2.3340 hc        1 1O9      0.027533
     49 H15        -2.5010   -2.3790   -1.1560 ha        1 1O9      0.142000
     50 H16        -4.9600   -2.4420   -0.9350 ha        1 1O9      0.126000
     51 H17        -4.9800    1.7990   -0.0380 ha        1 1O9      0.126000
     52 H18        -2.5090    1.8460   -0.2460 ha        1 1O9      0.142000
     53 H19        -0.8870   -4.8820    2.5380 h4        1 1O9      0.142000
     54 H20        -2.7320   -3.4360    3.7580 h4        1 1O9      0.137000
     55 H21         0.0050    0.8940    6.9040 h4        1 1O9      0.014100
     56 H22         1.3560   -1.2570    7.2660 h4        1 1O9      0.015100
     57 H23         1.8600   -1.6320    3.1290 h4        1 1O9      0.084100
     58 H24        -7.0480   -2.0470   -1.5860 hc        1 1O9      0.034144
     59 H25        -8.3790   -1.6250   -0.4330 hc        1 1O9      0.034144
     60 H26        -6.8740   -2.4210    0.1850 hc        1 1O9      0.034144
     61 H27        -6.5580   -0.5450    1.8420 hc        1 1O9      0.034144
     62 H28        -8.1230    0.1350    1.2200 hc        1 1O9      0.034144
     63 H29        -6.6400    1.1750    1.2790 hc        1 1O9      0.034144
     64 H30        -8.3700    0.6750   -1.2300 hc        1 1O9      0.034144
     65 H31        -6.9990    0.3450   -2.3730 hc        1 1O9      0.034144
     66 H32        -6.8710    1.6930   -1.1680 hc        1 1O9      0.034144
@<TRIPOS>BOND
     1    1    2 1   
     2    1    5 1   
     3    1   13 1   
     4    2    3 1   
     5    2    6 1   
     6    2    9 1   
     7    3    4 1   
     8    3   36 1   
     9    3   37 1   
    10    4    5 1   
    11    4   26 1   
    12    4   38 1   
    13    5   21 1   
    14    5   39 1   
    15    6    7 2   
    16    6    8 1   
    17    8   22 1   
    18    9   10 1   
    19    9   40 1   
    20    9   41 1   
    21   10   11 1   
    22   10   12 1   
    23   10   42 1   
    24   11   43 1   
    25   11   44 1   
    26   11   45 1   
    27   12   46 1   
    28   12   47 1   
    29   12   48 1   
    30   13   14 2   
    31   13   15 1   
    32   15   16 ar  
    33   15   20 ar  
    34   16   17 ar  
    35   16   49 1   
    36   17   18 ar  
    37   17   50 1   
    38   18   19 ar  
    39   18   32 1   
    40   19   20 ar  
    41   19   51 1   
    42   20   52 1   
    43   21   22 1   
    44   21   25 2   
    45   22   23 1   
    46   23   24 2   
    47   23   53 1   
    48   24   25 1   
    49   24   54 1   
    50   26   27 ar  
    51   26   31 ar  
    52   27   28 ar  
    53   28   29 ar  
    54   28   55 1   
    55   29   30 ar  
    56   29   56 1   
    57   30   31 ar  
    58   31   57 1   
    59   32   33 1   
    60   32   34 1   
    61   32   35 1   
    62   33   58 1   
    63   33   59 1   
    64   33   60 1   
    65   34   61 1   
    66   34   62 1   
    67   34   63 1   
    68   35   64 1   
    69   35   65 1   
    70   35   66 1   
@<TRIPOS>SUBSTRUCTURE
     1 1O9         1 TEMP              0 ****  ****    0 ROOT
