@<TRIPOS>MOLECULE
1O9
   66    70     1     0     0
SMALL
bcc


@<TRIPOS>ATOM
      1 N1         -0.0600    0.0130    0.1930 n         1 1O9     -0.455800
      2 C2          1.4050    0.1370    0.1780 c3        1 1O9      0.013400
      3 C3          1.7910    0.6620    1.5920 c3        1 1O9     -0.082400
      4 C4          0.5110    0.6560    2.4330 c3        1 1O9     -0.114000
      5 C5         -0.5630   -0.0720    1.5650 c3        1 1O9      0.127400
      6 C6          2.1060   -1.2580    0.0200 c         1 1O9      0.749600
      7 O7          3.0010   -1.4210   -0.8330 o         1 1O9     -0.739500
      8 O8          1.7830   -2.1880    0.8550 os        1 1O9     -0.459900
      9 C9          1.9560    1.0740   -0.9060 c3        1 1O9     -0.076400
     10 C10         1.4540    2.5120   -0.8430 c3        1 1O9     -0.065700
     11 C11         2.6060    3.4820   -0.6630 c3        1 1O9     -0.088600
     12 C12         0.6750    2.8680   -2.0930 c3        1 1O9     -0.088600
     13 C13        -0.8560   -0.1760   -0.9160 c         1 1O9      0.683700
     14 O14        -0.3960   -0.2590   -2.0740 o         1 1O9     -0.608100
     15 C15        -2.3430   -0.2250   -0.7220 ca        1 1O9     -0.110600
     16 C16        -3.0310   -1.4140   -0.9650 ca        1 1O9     -0.092500
     17 C17        -4.4220   -1.4530   -0.8540 ca        1 1O9     -0.132500
     18 C18        -5.1440   -0.3070   -0.5080 ca        1 1O9     -0.064300
     19 C19        -4.4410    0.8860   -0.2770 ca        1 1O9     -0.132500
     20 C20        -3.0540    0.9290   -0.3800 ca        1 1O9     -0.092500
     21 C21        -0.8420   -1.4840    2.0010 c2        1 1O9      0.328600
     22 S22         0.0560   -2.8430    1.5080 s4        1 1O9     -0.156500
     23 C23        -0.9560   -3.8530    2.3240 c2        1 1O9     -0.205300
     24 C24        -1.9490   -3.1270    2.9940 ce        1 1O9     -0.047400
     25 N25        -1.8970   -1.7710    2.8040 ne        1 1O9     -0.558300
     26 C26         0.7040    0.0720    3.7990 ca        1 1O9      0.331300
     27 N27         0.1800    0.7230    4.8680 nb        1 1O9     -0.641000
     28 C28         0.3980    0.1730    6.0800 ca        1 1O9      0.268900
     29 C29         1.1460   -1.0150    6.2450 ca        1 1O9      0.261900
     30 N30         1.6770   -1.6710    5.1910 nb        1 1O9     -0.637000
     31 C31         1.4530   -1.1370    3.9780 ca        1 1O9      0.299900
     32 C32        -6.6440   -0.3100   -0.3690 c3        1 1O9     -0.006700
     33 C33        -7.2510   -1.6790   -0.6500 c3        1 1O9     -0.084767
     34 C34        -7.0190    0.0930    1.0550 c3        1 1O9     -0.084767
     35 C35        -7.2490    0.6890   -1.3520 c3        1 1O9     -0.084767
     36 H1          2.5850    0.0080    2.0290 hc        1 1O9      0.056700
     37 H2          2.2020    1.7000    1.5270 hc        1 1O9      0.056700
     38 H3          0.1590    1.7230    2.5380 hc        1 1O9      0.064700
     39 H4         -1.5250    0.5220    1.6260 h1        1 1O9      0.074700
     40 H6          3.0730    1.0480   -0.7980 hc        1 1O9      0.076200
     41 H7          1.7210    0.6200   -1.9070 hc        1 1O9      0.076200
     42 H8          0.7640    2.6300    0.0420 hc        1 1O9      0.041700
     43 H9          3.3240    3.3980   -1.5150 hc        1 1O9      0.027533
     44 H10         3.1570    3.2660    0.2840 hc        1 1O9      0.027533
     45 H11         2.2270    4.5310   -0.6220 hc        1 1O9      0.027533
     46 H12         0.2300    3.8880   -1.9990 hc        1 1O9      0.027533
     47 H13        -0.1450    2.1260   -2.2580 hc        1 1O9      0.027533
     48 H14         1.3430    2.8550   -2.9870 hc        1 1O9      0.027533
     49 H15        -2.4740   -2.3230   -1.2400 ha        1 1O9      0.142000
     50 H16        -4.9330   -2.4090   -1.0390 ha        1 1O9      0.126000
     51 H17        -4.9870    1.8000   -0.0030 ha        1 1O9      0.126000
     52 H18        -2.5150    1.8700   -0.1910 ha        1 1O9      0.142000
     53 H19        -0.8700   -4.9340    2.3830 h4        1 1O9      0.142000
     54 H20        -2.7310   -3.5400    3.6370 h4        1 1O9      0.137000
     55 H21        -0.0420    0.7010    6.9400 h4        1 1O9      0.014100
     56 H22         1.3200   -1.4520    7.2400 h4        1 1O9      0.015100
     57 H23         1.8530   -1.6890    3.0970 h4        1 1O9      0.084100
     58 H24        -8.3610   -1.6310   -0.5350 hc        1 1O9      0.034144
     59 H25        -6.8550   -2.4380    0.0670 hc        1 1O9      0.034144
     60 H26        -7.0190   -2.0060   -1.6920 hc        1 1O9      0.034144
     61 H27        -8.1290    0.0750    1.1770 hc        1 1O9      0.034144
     62 H28        -6.5640   -0.6160    1.7870 hc        1 1O9      0.034144
     63 H29        -6.6520    1.1220    1.2810 hc        1 1O9      0.034144
     64 H30        -6.8700    1.7190   -1.1490 hc        1 1O9      0.034144
     65 H31        -8.3610    0.6940   -1.2560 hc        1 1O9      0.034144
     66 H32        -6.9800    0.4100   -2.3990 hc        1 1O9      0.034144
@<TRIPOS>BOND
     1    1    2 1   
     2    1    5 1   
     3    1   13 1   
     4    2    3 1   
     5    2    6 1   
     6    2    9 1   
     7    3    4 1   
     8    3   36 1   
     9    3   37 1   
    10    4    5 1   
    11    4   26 1   
    12    4   38 1   
    13    5   21 1   
    14    5   39 1   
    15    6    7 2   
    16    6    8 1   
    17    8   22 1   
    18    9   10 1   
    19    9   40 1   
    20    9   41 1   
    21   10   11 1   
    22   10   12 1   
    23   10   42 1   
    24   11   43 1   
    25   11   44 1   
    26   11   45 1   
    27   12   46 1   
    28   12   47 1   
    29   12   48 1   
    30   13   14 2   
    31   13   15 1   
    32   15   16 ar  
    33   15   20 ar  
    34   16   17 ar  
    35   16   49 1   
    36   17   18 ar  
    37   17   50 1   
    38   18   19 ar  
    39   18   32 1   
    40   19   20 ar  
    41   19   51 1   
    42   20   52 1   
    43   21   22 1   
    44   21   25 2   
    45   22   23 1   
    46   23   24 2   
    47   23   53 1   
    48   24   25 1   
    49   24   54 1   
    50   26   27 ar  
    51   26   31 ar  
    52   27   28 ar  
    53   28   29 ar  
    54   28   55 1   
    55   29   30 ar  
    56   29   56 1   
    57   30   31 ar  
    58   31   57 1   
    59   32   33 1   
    60   32   34 1   
    61   32   35 1   
    62   33   58 1   
    63   33   59 1   
    64   33   60 1   
    65   34   61 1   
    66   34   62 1   
    67   34   63 1   
    68   35   64 1   
    69   35   65 1   
    70   35   66 1   
@<TRIPOS>SUBSTRUCTURE
     1 1O9         1 TEMP              0 ****  ****    0 ROOT
