@<TRIPOS>MOLECULE
1OA
   44    47     1     0     0
SMALL
bcc


@<TRIPOS>ATOM
      1 C1         -4.0940    0.8460    0.3590 ca        1 1OA     -0.150000
      2 C2         -5.3220    1.4700    0.1790 ca        1 1OA     -0.138000
      3 C3         -6.3010    0.8850   -0.6420 ca        1 1OA      0.090900
      4 C4         -6.0340   -0.3360   -1.2850 ca        1 1OA     -0.138000
      5 C5         -4.8060   -0.9580   -1.1080 ca        1 1OA     -0.150000
      6 C6         -3.8100   -0.3800   -0.2810 ca        1 1OA      0.064600
      7 N7         -2.5990   -1.0690   -0.1180 n         1 1OA     -0.474100
      8 C8         -1.4200   -0.5760    0.4460 c         1 1OA      0.726300
      9 O9         -1.3280    0.5690    0.9210 o         1 1OA     -0.569100
     10 C10        -0.3040   -1.5250    0.4530 cc        1 1OA     -0.360800
     11 C11        -0.3520   -2.9600    0.5910 cc        1 1OA      0.407500
     12 N12         0.8840   -3.5130    0.6060 nd        1 1OA     -0.528100
     13 N13         1.7530   -2.4890    0.4770 na        1 1OA      0.019200
     14 C14         1.0760   -1.2000    0.3770 cd        1 1OA      0.455500
     15 N15         1.7390   -0.0110    0.2280 nd        1 1OA     -0.641000
     16 C16         3.0710   -0.0520    0.1910 cc        1 1OA      0.498600
     17 C17         3.8170   -1.2760    0.2920 cc        1 1OA     -0.396300
     18 C18         3.1420   -2.4840    0.4320 cd        1 1OA      0.255800
     19 O19         3.7560   -3.7050    0.5290 oh        1 1OA     -0.457100
     20 C20         3.8600    1.2270    0.0380 c3        1 1OA     -0.112000
     21 C21         3.5250    1.9280   -1.2720 c3        1 1OA     -0.112900
     22 C22         4.3160    3.2360   -1.3790 c3        1 1OA      0.150800
     23 N23         4.1880    4.1310   -0.2460 n3        1 1OA     -0.798200
     24 C24         4.4050    3.4610    1.0210 c3        1 1OA      0.150800
     25 C25         3.6190    2.1620    1.2170 c3        1 1OA     -0.112900
     26 F26        -7.4990    1.4950   -0.8150 f         1 1OA     -0.143900
     27 H1         -3.3420    1.3280    1.0070 ha        1 1OA      0.155000
     28 H2         -5.5330    2.4260    0.6800 ha        1 1OA      0.148500
     29 H3         -6.8010   -0.7920   -1.9280 ha        1 1OA      0.148500
     30 H4         -4.6190   -1.9120   -1.6230 ha        1 1OA      0.155000
     31 H5         -2.5470   -1.9550   -0.5690 hn        1 1OA      0.314500
     32 H6         -1.2460   -3.5820    0.6970 h4        1 1OA      0.060800
     33 H7          4.9130   -1.2600    0.2590 ha        1 1OA      0.164000
     34 H9          4.9560    0.9580    0.0220 hc        1 1OA      0.056700
     35 H10         3.7870    1.2680   -2.1370 hc        1 1OA      0.060700
     36 H11         2.4260    2.1430   -1.3230 hc        1 1OA      0.060700
     37 H12         5.4090    2.9900   -1.4920 h1        1 1OA      0.052950
     38 H13         3.9880    3.7850   -2.3050 h1        1 1OA      0.052950
     39 H14         3.2780    4.5570   -0.2520 hn        1 1OA      0.355800
     40 H16         5.5060    3.2330    1.0960 h1        1 1OA      0.052950
     41 H17         4.1430    4.1750    1.8500 h1        1 1OA      0.052950
     42 H18         2.5250    2.3880    1.3100 hc        1 1OA      0.060700
     43 H19         3.9490    1.6720    2.1680 hc        1 1OA      0.060700
     44 H8          4.7150   -3.5480    0.4920 ho        1 1OA      0.447000
@<TRIPOS>BOND
     1    1    2 ar  
     2    1    6 ar  
     3    1   27 1   
     4    2    3 ar  
     5    2   28 1   
     6    3    4 ar  
     7    3   26 1   
     8    4    5 ar  
     9    4   29 1   
    10    5    6 ar  
    11    5   30 1   
    12    6    7 1   
    13    7    8 1   
    14    7   31 1   
    15    8    9 2   
    16    8   10 1   
    17   10   11 1   
    18   10   14 2   
    19   11   12 2   
    20   11   32 1   
    21   12   13 1   
    22   13   14 1   
    23   13   18 1   
    24   14   15 1   
    25   15   16 2   
    26   16   17 1   
    27   16   20 1   
    28   17   18 2   
    29   17   33 1   
    30   18   19 1   
    31   19   44 1   
    32   20   21 1   
    33   20   25 1   
    34   20   34 1   
    35   21   22 1   
    36   21   35 1   
    37   21   36 1   
    38   22   23 1   
    39   22   37 1   
    40   22   38 1   
    41   23   24 1   
    42   23   39 1   
    43   24   25 1   
    44   24   40 1   
    45   24   41 1   
    46   25   42 1   
    47   25   43 1   
@<TRIPOS>SUBSTRUCTURE
     1 1OA         1 TEMP              0 ****  ****    0 ROOT
