@<TRIPOS>MOLECULE
1OA
   44    47     1     0     0
SMALL
bcc


@<TRIPOS>ATOM
      1 C1          0.3100   -0.2080    0.2240 ca        1 1OA     -0.150000
      2 C2          1.6670   -0.3630    0.4740 ca        1 1OA     -0.138000
      3 C3          2.1660   -0.2360    1.7820 ca        1 1OA      0.090900
      4 C4          1.2860    0.0510    2.8400 ca        1 1OA     -0.138000
      5 C5         -0.0690    0.2090    2.5890 ca        1 1OA     -0.150000
      6 C6         -0.5870    0.0810    1.2760 ca        1 1OA      0.063600
      7 N7         -1.9700    0.2210    1.0890 ns        1 1OA     -0.474100
      8 C8         -2.6440    0.3670   -0.1260 c         1 1OA      0.727300
      9 O9         -2.0670    0.3400   -1.2250 o         1 1OA     -0.566100
     10 C10        -4.0950    0.5270   -0.0010 cc        1 1OA     -0.365800
     11 C11        -4.9800   -0.0940    0.9520 cc        1 1OA      0.425500
     12 N12        -6.2760    0.2400    0.7330 nd        1 1OA     -0.585100
     13 N13        -6.2740    1.0680   -0.3320 na        1 1OA     -0.017800
     14 C14        -4.9360    1.2960   -0.8520 cd        1 1OA      0.466500
     15 N15        -4.6770    2.1120   -1.9210 nd        1 1OA     -0.641000
     16 C16        -5.7210    2.6950   -2.5120 cc        1 1OA      0.497600
     17 C17        -7.0780    2.5100   -2.0720 cc        1 1OA     -0.340300
     18 C18        -7.3400    1.6950   -0.9760 cd        1 1OA      0.251800
     19 O19        -8.6380    1.5500   -0.5710 oh        1 1OA     -0.475100
     20 C20        -5.5340    3.6060   -3.7010 c3        1 1OA     -0.119000
     21 C21        -5.7210    5.0570   -3.2730 c3        1 1OA     -0.073400
     22 C22        -5.5950    5.9820   -4.4840 c3        1 1OA      0.163800
     23 N23        -4.3660    5.7880   -5.2250 n7        1 1OA     -0.821200
     24 C24        -4.1020    4.4080   -5.5830 c3        1 1OA      0.163800
     25 C25        -4.1890    3.4500   -4.3950 c3        1 1OA     -0.073400
     26 F26         3.4910   -0.3890    2.0240 f         1 1OA     -0.143900
     27 H1         -0.0550   -0.3090   -0.8130 ha        1 1OA      0.155500
     28 H2          2.3580   -0.5850   -0.3520 ha        1 1OA      0.148500
     29 H3          1.6790    0.1520    3.8620 ha        1 1OA      0.148500
     30 H4         -0.7380    0.4360    3.4330 ha        1 1OA      0.155500
     31 H5         -2.5000    0.3710    1.9180 hn        1 1OA      0.314500
     32 H6         -4.7030   -0.7750    1.7620 h4        1 1OA      0.060800
     33 H7         -7.9090    3.0060   -2.5880 ha        1 1OA      0.179000
     34 H9         -6.3460    3.3400   -4.4400 hc        1 1OA      0.062700
     35 H10        -6.7330    5.1980   -2.8150 hc        1 1OA      0.062950
     36 H11        -4.9490    5.3250   -2.5060 hc        1 1OA      0.062950
     37 H12        -6.5100    5.8350   -5.1320 h1        1 1OA      0.029200
     38 H13        -5.6030    7.0500   -4.1250 h1        1 1OA      0.029200
     39 H14        -4.3670    6.3630   -6.0470 hn        1 1OA      0.365800
     40 H16        -4.8070    4.0380   -6.3870 h1        1 1OA      0.029200
     41 H17        -3.0570    4.3680   -6.0030 h1        1 1OA      0.029200
     42 H18        -3.3550    3.6650   -3.6760 hc        1 1OA      0.062950
     43 H19        -4.0620    2.4010   -4.7640 hc        1 1OA      0.062950
     44 H8         -8.7070    0.9320    0.1770 ho        1 1OA      0.463000
@<TRIPOS>BOND
     1    1    2 ar  
     2    1    6 ar  
     3    1   27 1   
     4    2    3 ar  
     5    2   28 1   
     6    3    4 ar  
     7    3   26 1   
     8    4    5 ar  
     9    4   29 1   
    10    5    6 ar  
    11    5   30 1   
    12    6    7 1   
    13    7    8 1   
    14    7   31 1   
    15    8    9 2   
    16    8   10 1   
    17   10   11 1   
    18   10   14 2   
    19   11   12 2   
    20   11   32 1   
    21   12   13 1   
    22   13   14 1   
    23   13   18 1   
    24   14   15 1   
    25   15   16 2   
    26   16   17 1   
    27   16   20 1   
    28   17   18 2   
    29   17   33 1   
    30   18   19 1   
    31   19   44 1   
    32   20   21 1   
    33   20   25 1   
    34   20   34 1   
    35   21   22 1   
    36   21   35 1   
    37   21   36 1   
    38   22   23 1   
    39   22   37 1   
    40   22   38 1   
    41   23   24 1   
    42   23   39 1   
    43   24   25 1   
    44   24   40 1   
    45   24   41 1   
    46   25   42 1   
    47   25   43 1   
@<TRIPOS>SUBSTRUCTURE
     1 1OA         1 TEMP              0 ****  ****    0 ROOT
