@<TRIPOS>MOLECULE
1OA
   44    47     1     0     0
SMALL
bcc


@<TRIPOS>ATOM
      1 C1          0.3040   -0.2110    0.2300 ca        1 1OA     -0.150000
      2 C2          1.6600   -0.3700    0.4810 ca        1 1OA     -0.138000
      3 C3          2.1600   -0.2450    1.7880 ca        1 1OA      0.090900
      4 C4          1.2810    0.0450    2.8460 ca        1 1OA     -0.138000
      5 C5         -0.0740    0.2060    2.5960 ca        1 1OA     -0.150000
      6 C6         -0.5920    0.0800    1.2820 ca        1 1OA      0.063600
      7 N7         -1.9750    0.2240    1.0950 n         1 1OA     -0.474100
      8 C8         -2.6490    0.3700   -0.1190 c         1 1OA      0.727300
      9 O9         -2.0720    0.3390   -1.2190 o         1 1OA     -0.566100
     10 C10        -4.0990    0.5360    0.0070 cc        1 1OA     -0.365800
     11 C11        -4.9860   -0.0780    0.9630 cc        1 1OA      0.425500
     12 N12        -6.2800    0.2590    0.7430 nd        1 1OA     -0.585100
     13 N13        -6.2770    1.0830   -0.3250 na        1 1OA     -0.017800
     14 C14        -4.9390    1.3040   -0.8480 cd        1 1OA      0.466500
     15 N15        -4.6770    2.1140   -1.9200 nd        1 1OA     -0.641000
     16 C16        -5.7200    2.6990   -2.5130 cc        1 1OA      0.497600
     17 C17        -7.0770    2.5210   -2.0700 cc        1 1OA     -0.340300
     18 C18        -7.3410    1.7110   -0.9710 cd        1 1OA      0.251800
     19 O19        -8.6390    1.5730   -0.5640 oh        1 1OA     -0.475100
     20 C20        -5.5310    3.6030   -3.7060 c3        1 1OA     -0.119000
     21 C21        -5.7100    5.0580   -3.2840 c3        1 1OA     -0.073400
     22 C22        -5.5820    5.9770   -4.4990 c3        1 1OA      0.163800
     23 N23        -4.3550    5.7740   -5.2420 n3        1 1OA     -0.821200
     24 C24        -4.0980    4.3910   -5.5940 c3        1 1OA      0.163800
     25 C25        -4.1880    3.4390   -4.4010 c3        1 1OA     -0.073400
     26 F26         3.4840   -0.4020    2.0300 f         1 1OA     -0.143900
     27 H1         -0.0610   -0.3110   -0.8060 ha        1 1OA      0.155500
     28 H2          2.3510   -0.5940   -0.3460 ha        1 1OA      0.148500
     29 H3          1.6730    0.1440    3.8690 ha        1 1OA      0.148500
     30 H4         -0.7420    0.4350    3.4400 ha        1 1OA      0.155500
     31 H5         -2.5050    0.3780    1.9250 hn        1 1OA      0.314500
     32 H6         -4.7110   -0.7570    1.7750 h4        1 1OA      0.060800
     33 H7         -7.9070    3.0180   -2.5870 ha        1 1OA      0.179000
     34 H9         -6.3450    3.3380   -4.4420 hc        1 1OA      0.062700
     35 H10        -4.9350    5.3250   -2.5200 hc        1 1OA      0.062950
     36 H11        -6.7200    5.2050   -2.8250 hc        1 1OA      0.062950
     37 H12        -6.4990    5.8310   -5.1450 h1        1 1OA      0.029200
     38 H13        -5.5840    7.0460   -4.1450 h1        1 1OA      0.029200
     39 H14        -4.3550    6.3450   -6.0670 hn        1 1OA      0.365800
     40 H16        -3.0550    4.3430   -6.0160 h1        1 1OA      0.029200
     41 H17        -4.8060    4.0210   -6.3950 h1        1 1OA      0.029200
     42 H18        -4.0660    2.3880   -4.7660 hc        1 1OA      0.062950
     43 H19        -3.3520    3.6530   -3.6850 hc        1 1OA      0.062950
     44 H8         -8.7100    0.9580    0.1860 ho        1 1OA      0.463000
@<TRIPOS>BOND
     1    1    2 ar  
     2    1    6 ar  
     3    1   27 1   
     4    2    3 ar  
     5    2   28 1   
     6    3    4 ar  
     7    3   26 1   
     8    4    5 ar  
     9    4   29 1   
    10    5    6 ar  
    11    5   30 1   
    12    6    7 1   
    13    7    8 1   
    14    7   31 1   
    15    8    9 2   
    16    8   10 1   
    17   10   11 1   
    18   10   14 2   
    19   11   12 2   
    20   11   32 1   
    21   12   13 1   
    22   13   14 1   
    23   13   18 1   
    24   14   15 1   
    25   15   16 2   
    26   16   17 1   
    27   16   20 1   
    28   17   18 2   
    29   17   33 1   
    30   18   19 1   
    31   19   44 1   
    32   20   21 1   
    33   20   25 1   
    34   20   34 1   
    35   21   22 1   
    36   21   35 1   
    37   21   36 1   
    38   22   23 1   
    39   22   37 1   
    40   22   38 1   
    41   23   24 1   
    42   23   39 1   
    43   24   25 1   
    44   24   40 1   
    45   24   41 1   
    46   25   42 1   
    47   25   43 1   
@<TRIPOS>SUBSTRUCTURE
     1 1OA         1 TEMP              0 ****  ****    0 ROOT
