@<TRIPOS>MOLECULE
1OA
   44    37     1     0     0
SMALL
bcc


@<TRIPOS>ATOM
      1 C1          4.2490   -3.4080    1.4540 c1        1 1OA     -0.134000
      2 C2          5.6340   -3.3870    1.4750 c1        1 1OA     -0.138000
      3 C3          6.3020   -2.4680    2.2690 c1        1 1OA      0.056000
      4 C4          5.5840   -1.5700    3.0430 c1        1 1OA     -0.152500
      5 C5          4.1980   -1.5910    3.0220 c1        1 1OA     -0.152500
      6 C6          3.5310   -2.5090    2.2280 c1        1 1OA      0.072000
      7 N7          2.1130   -2.4940    2.1650 n2        1 1OA     -0.328000
      8 C8          1.4590   -1.9150    1.0460 c1        1 1OA      0.401000
      9 O9          2.1130   -1.4330    0.1430 o         1 1OA     -0.328000
     10 C10        -0.0520   -1.8280    1.0160 c1        1 1OA     -0.253000
     11 C11        -0.7100   -2.8760    1.6130 c1        1 1OA     -0.097000
     12 N12        -2.0440   -2.6950    1.4260 n2        1 1OA     -0.061000
     13 N13        -2.2220   -1.5200    0.7030 n2        1 1OA     -0.096000
     14 C14        -1.0010   -0.9920    0.4540 c1        1 1OA      0.103000
     15 N15        -0.8890    0.1850   -0.2620 n1        1 1OA     -0.114000
     16 C16        -1.9930    0.8070   -0.7110 c1        1 1OA      0.076000
     17 C17        -3.2300    0.2730   -0.4590 c1        1 1OA     -0.333000
     18 C18        -3.3410   -0.8920    0.2490 c1        1 1OA      0.234000
     19 O19        -4.5000   -1.4540    0.8160 o         1 1OA     -0.211000
     20 C20        -1.6950    1.9200   -1.4700 c3        1 1OA     -0.067000
     21 C21        -2.4320    1.8960   -2.8650 c3        1 1OA     -0.170000
     22 C22        -2.1460    3.1240   -3.6930 c3        1 1OA     -0.075000
     23 N23        -1.7040    4.1000   -2.9530 n3        1 1OA     -0.294000
     24 C24        -2.1120    4.4320   -1.7670 c3        1 1OA     -0.075000
     25 C25        -2.3970    3.2050   -0.9220 c3        1 1OA     -0.170000
     26 F26         7.6400   -2.4270    2.2640 f         1 1OA     -0.109000
     27 H1          3.7790   -4.0550    0.8950 ha        1 1OA      0.179000
     28 H2          6.1400   -4.0200    0.9300 ha        1 1OA      0.150000
     29 H3          6.0540   -0.9230    3.6030 ha        1 1OA      0.139500
     30 H4          3.6930   -0.9580    3.5670 ha        1 1OA      0.139500
     31 H5          1.6230   -2.8670    2.8370 hn        1 1OA      0.229000
     32 H6         -0.2930   -3.6260    2.0780 DU        1 1OA      0.190000
     33 H7         -4.0330    0.7240   -0.7850 ha        1 1OA      0.166000
     34 H9         -0.7320    2.0500   -1.5720 hc        1 1OA      0.131000
     35 H10        -3.3960    1.8360   -2.7120 hc        1 1OA      0.095500
     36 H11        -2.1410    1.1060   -3.3620 hc        1 1OA      0.095500
     37 H12        -1.4730    2.9050   -4.3710 h1        1 1OA      0.077750
     38 H13        -2.9710    3.4090   -4.1400 h1        1 1OA      0.077750
     39 H14        -1.6090    4.8530   -3.4650 hn        1 1OA      0.154000
     40 H16        -2.9310    4.9640   -1.8460 h1        1 1OA      0.077750
     41 H17        -1.4210    4.9700   -1.3280 h1        1 1OA      0.077750
     42 H18        -2.0840    3.3710   -0.0100 hc        1 1OA      0.095500
     43 H19        -3.3630    3.0530   -0.9020 hc        1 1OA      0.095500
     44 H8         -5.2000   -1.2720    0.3000 ho        1 1OA      0.245000
@<TRIPOS>BOND
     1    1    6 1   
     2    1   27 1   
     3    2    3 1   
     4    2   28 1   
     5    3   26 1   
     6    4    5 1   
     7    4   29 1   
     8    5   30 1   
     9    7    8 1   
    10    7   31 1   
    11    8    9 1   
    12   10   11 1   
    13   10   14 1   
    14   11   12 1   
    15   12   13 1   
    16   13   18 1   
    17   14   15 1   
    18   16   17 1   
    19   16   20 1   
    20   17   33 1   
    21   19   44 1   
    22   20   21 1   
    23   20   25 1   
    24   20   34 1   
    25   21   22 1   
    26   21   35 1   
    27   21   36 1   
    28   22   23 1   
    29   22   37 1   
    30   22   38 1   
    31   23   24 1   
    32   23   39 1   
    33   24   25 1   
    34   24   40 1   
    35   24   41 1   
    36   25   42 1   
    37   25   43 1   
@<TRIPOS>SUBSTRUCTURE
     1 1OA         1 TEMP              0 ****  ****    0 ROOT
