@<TRIPOS>MOLECULE
1OA
   45    48     1     0     0
SMALL
bcc


@<TRIPOS>ATOM
      1 C1          0.2760    0.6610    0.7690 ca        1 1OA     -0.075500
      2 C2          1.0610    1.1060    1.8250 ca        1 1OA     -0.149000
      3 C3          0.8690    0.5750    3.1170 ca        1 1OA      0.192900
      4 C4         -0.1190   -0.4080    3.3390 ca        1 1OA     -0.149000
      5 C5         -0.9030   -0.8520    2.2840 ca        1 1OA     -0.075500
      6 C6         -0.7080   -0.3190    0.9960 ca        1 1OA     -0.073400
      7 N7         -1.5180   -0.7960   -0.1220 n4        1 1OA     -0.549200
      8 C8         -2.2880    0.3480   -0.8170 c         1 1OA      0.629300
      9 O9         -1.6890    0.8070   -1.7810 o         1 1OA     -0.449100
     10 C10        -3.5500    0.6500   -0.2590 cc        1 1OA     -0.460800
     11 C11        -4.1810    0.2080    0.9700 cc        1 1OA      0.463500
     12 N12        -5.3940    0.7610    1.1430 nd        1 1OA     -0.540100
     13 N13        -5.6110    1.5670    0.0680 na        1 1OA     -0.025800
     14 C14        -4.5020    1.5600   -0.8600 cd        1 1OA      0.527500
     15 N15        -4.4690    2.2710   -2.0050 nd        1 1OA     -0.666000
     16 C16        -5.5480    3.0400   -2.2850 cc        1 1OA      0.549600
     17 C17        -6.6810    3.1110   -1.4270 cc        1 1OA     -0.324300
     18 C18        -6.7090    2.3630   -0.2380 cd        1 1OA      0.290800
     19 O19        -7.8100    2.4560    0.5490 oh        1 1OA     -0.445100
     20 C20        -5.5700    3.8620   -3.5510 c3        1 1OA     -0.128000
     21 C21        -4.4340    4.8780   -3.5690 c3        1 1OA     -0.074400
     22 C22        -4.4870    5.6910   -4.8640 c3        1 1OA      0.164800
     23 N23        -4.4860    4.8580   -6.0500 n3        1 1OA     -0.824200
     24 C24        -5.5130    3.8370   -6.0490 c3        1 1OA      0.164800
     25 C25        -5.4890    2.9730   -4.7870 c3        1 1OA     -0.074400
     26 F26         1.6290    1.0050    4.1410 f         1 1OA     -0.096900
     27 H1          0.4290    1.0870   -0.2390 ha        1 1OA      0.164000
     28 H2          1.8360    1.8730    1.6590 ha        1 1OA      0.184500
     29 H3         -0.2590   -0.8200    4.3530 ha        1 1OA      0.184500
     30 H4         -1.6670   -1.6240    2.4750 ha        1 1OA      0.164000
     31 H5         -0.8880   -1.2190   -0.8170 hn        1 1OA      0.454800
     32 H6         -3.7680   -0.4740    1.7210 h4        1 1OA      0.059800
     33 H7         -7.5500    3.7420   -1.6710 ha        1 1OA      0.203000
     34 H9         -6.5500    4.4220   -3.5790 hc        1 1OA      0.071700
     35 H10        -4.5290    5.5790   -2.7010 hc        1 1OA      0.061950
     36 H11        -3.4470    4.3540   -3.4930 hc        1 1OA      0.061950
     37 H12        -5.3920    6.3670   -4.8180 h1        1 1OA      0.038700
     38 H13        -3.5730    6.3480   -4.9140 h1        1 1OA      0.038700
     39 H14        -4.5560    5.4240   -6.8740 hn        1 1OA      0.379800
     40 H16        -6.5510    4.2740   -6.1560 h1        1 1OA      0.038700
     41 H17        -5.3290    3.1740   -6.9420 h1        1 1OA      0.038700
     42 H18        -6.3600    2.2700   -4.8150 hc        1 1OA      0.061950
     43 H19        -4.5470    2.3660   -4.7630 hc        1 1OA      0.061950
     44 H8         -7.7370    1.9110    1.3550 ho        1 1OA      0.478000
     45 H72        -2.1790   -1.5040    0.2060 hn        1 1OA      0.454800
@<TRIPOS>BOND
     1    1    2 ar  
     2    1    6 ar  
     3    1   27 1   
     4    2    3 ar  
     5    2   28 1   
     6    3    4 ar  
     7    3   26 1   
     8    4    5 ar  
     9    4   29 1   
    10    5    6 ar  
    11    5   30 1   
    12    6    7 1   
    13    7    8 1   
    14    7   31 1   
    15    7   45 1   
    16    8    9 2   
    17    8   10 1   
    18   10   11 1   
    19   10   14 2   
    20   11   12 2   
    21   11   32 1   
    22   12   13 1   
    23   13   14 1   
    24   13   18 1   
    25   14   15 1   
    26   15   16 2   
    27   16   17 1   
    28   16   20 1   
    29   17   18 2   
    30   17   33 1   
    31   18   19 1   
    32   19   44 1   
    33   20   21 1   
    34   20   25 1   
    35   20   34 1   
    36   21   22 1   
    37   21   35 1   
    38   21   36 1   
    39   22   23 1   
    40   22   37 1   
    41   22   38 1   
    42   23   24 1   
    43   23   39 1   
    44   24   25 1   
    45   24   40 1   
    46   24   41 1   
    47   25   42 1   
    48   25   43 1   
@<TRIPOS>SUBSTRUCTURE
     1 1OA         1 TEMP              0 ****  ****    0 ROOT
