@<TRIPOS>MOLECULE
1OB
   44    47     1     0     0
SMALL
bcc


@<TRIPOS>ATOM
      1 C1         -0.6270    1.2920    0.4480 ca        1 1OB     -0.116500
      2 C2          0.6220    1.8430    0.1730 ca        1 1OB     -0.091500
      3 C3          1.7240    1.5030    0.9700 ca        1 1OB      0.005000
      4 C4          1.5660    0.6170    2.0450 ca        1 1OB     -0.091500
      5 C5          0.3140    0.0700    2.3140 ca        1 1OB     -0.116500
      6 C6         -0.7870    0.4000    1.5150 ca        1 1OB     -0.088300
      7 C7         -2.1310   -0.1700    1.8190 c3        1 1OB     -0.099400
      8 C8         -2.2730   -1.5680    1.2740 cc        1 1OB      0.546600
      9 C9         -3.1940   -1.7850    0.2150 cc        1 1OB     -0.323300
     10 C10        -3.3500   -3.0750   -0.3220 cd        1 1OB      0.294800
     11 N11        -2.5870   -4.1090    0.2080 na        1 1OB     -0.024800
     12 C12        -1.6750   -3.7940    1.2870 cd        1 1OB      0.529500
     13 N13        -1.5240   -2.5610    1.8130 nd        1 1OB     -0.669000
     14 C14        -1.0520   -5.0620    1.5990 cc        1 1OB     -0.458800
     15 C15        -1.6470   -6.0080    0.6730 cc        1 1OB      0.465500
     16 N16        -2.5480   -5.4260   -0.1360 nd        1 1OB     -0.539100
     17 C17        -0.0610   -5.2310    2.5910 c         1 1OB      0.630300
     18 O18         0.5220   -4.4250    3.3060 o         1 1OB     -0.454100
     19 N19         0.3530   -6.6900    2.8700 n4        1 1OB     -0.548200
     20 C20         1.4020   -7.1520    1.9630 ca        1 1OB     -0.075400
     21 C21         2.6240   -6.4540    1.9060 ca        1 1OB     -0.075500
     22 C22         3.6310   -6.8970    1.0600 ca        1 1OB     -0.149000
     23 C23         3.4260   -8.0430    0.2630 ca        1 1OB      0.193900
     24 C24         2.2000   -8.7390    0.3240 ca        1 1OB     -0.149000
     25 C25         1.1940   -8.2940    1.1690 ca        1 1OB     -0.075500
     26 F26         4.4020   -8.4750   -0.5580 f         1 1OB     -0.095900
     27 O27        -4.2420   -3.2420   -1.3290 oh        1 1OB     -0.443100
     28 C28         3.0040    2.0550    0.6890 cg        1 1OB      0.216800
     29 N29         4.0520    2.5030    0.4580 n1        1 1OB     -0.331800
     30 H1         -1.4910    1.5690   -0.1760 ha        1 1OB      0.146000
     31 H2          0.7430    2.5460   -0.6650 ha        1 1OB      0.155000
     32 H3          2.4280    0.3580    2.6780 ha        1 1OB      0.155000
     33 H4          0.1910   -0.6270    3.1580 ha        1 1OB      0.146000
     34 H5         -2.2890   -0.1920    2.9340 hc        1 1OB      0.089700
     35 H6         -2.9370    0.4760    1.3750 hc        1 1OB      0.089700
     36 H7         -3.7950   -0.9650   -0.2050 ha        1 1OB      0.203000
     37 H9         -1.4220   -7.0750    0.5790 h4        1 1OB      0.060800
     38 H10        -0.4650   -7.3000    2.7910 hn        1 1OB      0.455300
     39 H11         2.7900   -5.5530    2.5230 ha        1 1OB      0.163000
     40 H12         4.5930   -6.3600    1.0070 ha        1 1OB      0.185000
     41 H13         2.0510   -9.6360   -0.3010 ha        1 1OB      0.185000
     42 H14         0.2440   -8.8540    1.2080 ha        1 1OB      0.163000
     43 H8         -4.2740   -4.1640   -1.6490 ho        1 1OB      0.480000
     44 H192        0.7170   -6.7370    3.8320 hn        1 1OB      0.455300
@<TRIPOS>BOND
     1    1    2 ar  
     2    1    6 ar  
     3    1   30 1   
     4    2    3 ar  
     5    2   31 1   
     6    3    4 ar  
     7    3   28 1   
     8    4    5 ar  
     9    4   32 1   
    10    5    6 ar  
    11    5   33 1   
    12    6    7 1   
    13    7    8 1   
    14    7   34 1   
    15    7   35 1   
    16    8    9 1   
    17    8   13 2   
    18    9   10 2   
    19    9   36 1   
    20   10   11 1   
    21   10   27 1   
    22   11   12 1   
    23   11   16 1   
    24   12   13 1   
    25   12   14 2   
    26   14   15 1   
    27   14   17 1   
    28   15   16 2   
    29   15   37 1   
    30   17   18 2   
    31   17   19 1   
    32   19   20 1   
    33   19   38 1   
    34   19   44 1   
    35   20   21 ar  
    36   20   25 ar  
    37   21   22 ar  
    38   21   39 1   
    39   22   23 ar  
    40   22   40 1   
    41   23   24 ar  
    42   23   26 1   
    43   24   25 ar  
    44   24   41 1   
    45   25   42 1   
    46   27   43 1   
    47   28   29 3   
@<TRIPOS>SUBSTRUCTURE
     1 1OB         1 TEMP              0 ****  ****    0 ROOT
