@<TRIPOS>MOLECULE
1OB
   43    46     1     0     0
SMALL
bcc


@<TRIPOS>ATOM
      1 C1         -0.9630    1.3650    0.6080 ca        1 1OB     -0.120500
      2 C2          0.0880    1.9280   -0.1100 ca        1 1OB     -0.092500
      3 C3          1.3880    1.4270    0.0480 ca        1 1OB     -0.014000
      4 C4          1.6250    0.3610    0.9270 ca        1 1OB     -0.092500
      5 C5          0.5690   -0.1960    1.6440 ca        1 1OB     -0.120500
      6 C6         -0.7310    0.3000    1.4870 ca        1 1OB     -0.068300
      7 C7         -1.8570   -0.2820    2.2710 c3        1 1OB     -0.093400
      8 C8         -2.2900   -1.6190    1.7240 cc        1 1OB      0.494600
      9 C9         -3.5880   -1.6930    1.1160 cc        1 1OB     -0.336300
     10 C10        -4.0320   -2.9080    0.6000 cd        1 1OB      0.256800
     11 N11        -3.2040   -4.0240    0.6920 na        1 1OB     -0.015800
     12 C12        -1.9100   -3.8620    1.3350 cd        1 1OB      0.467500
     13 N13        -1.4690   -2.6670    1.8340 nd        1 1OB     -0.645000
     14 C14        -1.3220   -5.1570    1.2710 cc        1 1OB     -0.363800
     15 C15        -2.2960   -5.9850    0.6060 cc        1 1OB      0.428500
     16 N16        -3.4110   -5.2900    0.2730 nd        1 1OB     -0.584100
     17 C17        -0.0210   -5.5430    1.8230 c         1 1OB      0.726300
     18 O18         0.4670   -4.9960    2.8270 o         1 1OB     -0.570100
     19 N19         0.6140   -6.5870    1.1460 ns        1 1OB     -0.474100
     20 C20         1.8720   -7.1350    1.4380 ca        1 1OB      0.061600
     21 C21         2.5370   -6.9270    2.6660 ca        1 1OB     -0.148000
     22 C22         3.7690   -7.5190    2.9110 ca        1 1OB     -0.138500
     23 C23         4.3680   -8.3380    1.9390 ca        1 1OB      0.092900
     24 C24         3.7170   -8.5550    0.7120 ca        1 1OB     -0.138500
     25 C25         2.4890   -7.9610    0.4650 ca        1 1OB     -0.148000
     26 F26         5.5690   -8.9170    2.1820 f         1 1OB     -0.142900
     27 O27        -5.2680   -2.9480    0.0180 oh        1 1OB     -0.473100
     28 C28         2.4630    2.0000   -0.6840 cg        1 1OB      0.232800
     29 N29         3.3430    2.4690   -1.2840 n1        1 1OB     -0.361800
     30 H1         -1.9810    1.7630    0.4820 ha        1 1OB      0.151000
     31 H2         -0.1000    2.7650   -0.7990 ha        1 1OB      0.148000
     32 H3          2.6440   -0.0350    1.0520 ha        1 1OB      0.148000
     33 H4          0.7560   -1.0390    2.3300 ha        1 1OB      0.151000
     34 H5         -2.7380    0.4150    2.2610 hc        1 1OB      0.077200
     35 H6         -1.5380   -0.4090    3.3430 hc        1 1OB      0.077200
     36 H7         -4.2360   -0.8110    1.0460 ha        1 1OB      0.180000
     37 H9         -2.2140   -7.0530    0.3860 h4        1 1OB      0.061800
     38 H10         0.2110   -6.8750    0.2820 hn        1 1OB      0.314500
     39 H11         2.0900   -6.2860    3.4440 ha        1 1OB      0.154500
     40 H12         4.2810   -7.3500    3.8700 ha        1 1OB      0.149500
     41 H13         4.1890   -9.1950   -0.0480 ha        1 1OB      0.149500
     42 H14         2.0000   -8.1430   -0.5040 ha        1 1OB      0.154500
     43 H8         -5.4840   -3.8450   -0.2910 ho        1 1OB      0.464000
@<TRIPOS>BOND
     1    1    2 ar  
     2    1    6 ar  
     3    1   30 1   
     4    2    3 ar  
     5    2   31 1   
     6    3    4 ar  
     7    3   28 1   
     8    4    5 ar  
     9    4   32 1   
    10    5    6 ar  
    11    5   33 1   
    12    6    7 1   
    13    7    8 1   
    14    7   34 1   
    15    7   35 1   
    16    8    9 1   
    17    8   13 2   
    18    9   10 2   
    19    9   36 1   
    20   10   11 1   
    21   10   27 1   
    22   11   12 1   
    23   11   16 1   
    24   12   13 1   
    25   12   14 2   
    26   14   15 1   
    27   14   17 1   
    28   15   16 2   
    29   15   37 1   
    30   17   18 2   
    31   17   19 1   
    32   19   20 1   
    33   19   38 1   
    34   20   21 ar  
    35   20   25 ar  
    36   21   22 ar  
    37   21   39 1   
    38   22   23 ar  
    39   22   40 1   
    40   23   24 ar  
    41   23   26 1   
    42   24   25 ar  
    43   24   41 1   
    44   25   42 1   
    45   27   43 1   
    46   28   29 3   
@<TRIPOS>SUBSTRUCTURE
     1 1OB         1 TEMP              0 ****  ****    0 ROOT
