@<TRIPOS>MOLECULE
1OB
   43    32     1     0     0
SMALL
bcc


@<TRIPOS>ATOM
      1 C1          2.5590    1.7930    2.7860 c1        1 1OB     -0.133500
      2 C2          3.7380    2.4230    3.1730 c1        1 1OB     -0.090000
      3 C3          4.5120    3.0880    2.2300 c1        1 1OB     -0.007000
      4 C4          4.1090    3.1240    0.8990 c1        1 1OB     -0.104500
      5 C5          2.9320    2.4950    0.5120 c1        1 1OB     -0.104500
      6 C6          2.1560    1.8290    1.4550 c1        1 1OB     -0.002000
      7 C7          0.9200    1.0400    1.0090 c2        1 1OB     -0.088000
      8 C8         -0.0860    1.9930    0.3550 c1        1 1OB      0.085000
      9 C9         -0.6900    3.2150    0.1690 c1        1 1OB     -0.279000
     10 C10        -1.9760    3.2780   -0.3060 c1        1 1OB      0.248000
     11 N11        -2.6550    2.1290   -0.5930 n1        1 1OB     -0.132000
     12 C12        -2.0580    0.9230   -0.4080 c1        1 1OB      0.097000
     13 N13        -0.7580    0.8590    0.0710 n1        1 1OB     -0.173000
     14 C14        -2.9700   -0.0620   -0.7510 c1        1 1OB     -0.256000
     15 C15        -4.1360    0.5570   -1.1480 c1        1 1OB     -0.037000
     16 N16        -3.9510    1.9030   -1.0540 n1        1 1OB     -0.120000
     17 C17        -2.3850   -1.3510   -1.3230 c1        1 1OB      0.402000
     18 O18        -1.9660   -1.3730   -2.4640 o         1 1OB     -0.368000
     19 N19        -2.2520   -2.5100   -0.4880 n3        1 1OB     -0.316000
     20 C20        -1.6240   -3.6960   -0.9990 c2        1 1OB      0.070000
     21 C21        -1.2600   -3.7660   -2.3390 c2        1 1OB     -0.133000
     22 C22        -0.5910   -4.8870   -2.8200 c1        1 1OB     -0.139000
     23 C23        -0.2870   -5.9370   -1.9600 c1        1 1OB     -0.002000
     24 C24        -0.6520   -5.8670   -0.6200 c1        1 1OB     -0.133500
     25 C25        -1.3200   -4.7470   -0.1400 c1        1 1OB     -0.164000
     26 F26         0.3670   -7.0150   -2.4220 f         1 1OB     -0.109000
     27 O27        -2.4340    4.4870   -0.8740 oh        1 1OB     -0.224000
     28 C28         5.7730    3.8160    2.6610 c1        1 1OB     -0.100000
     29 N29         6.7210    4.3630    2.9850 n1        1 1OB     -0.029000
     30 H1          2.0130    1.3230    3.4520 ha        1 1OB      0.143000
     31 H2          4.0220    2.3970    4.1120 ha        1 1OB      0.148000
     32 H3          4.6560    3.5940    0.2340 ha        1 1OB      0.151500
     33 H4          2.6480    2.5210   -0.4270 ha        1 1OB      0.151500
     34 H5          0.5060    0.6120    1.7910 ha        1 1OB      0.117000
     35 H6          1.1880    0.3510    0.3620 ha        1 1OB      0.117000
     36 H7         -0.1880    4.0420    0.3370 ha        1 1OB      0.181000
     37 H9         -4.9660    0.1060   -1.4160 DU        1 1OB      0.212000
     38 H10        -2.5810   -2.4980    0.3700 hn        1 1OB      0.248000
     39 H11        -1.4740   -3.0280   -2.9440 ha        1 1OB      0.179000
     40 H12        -0.3340   -4.9370   -3.7650 ha        1 1OB      0.150000
     41 H13        -0.4370   -6.6080   -0.0140 ha        1 1OB      0.143000
     42 H14        -1.5770   -4.6970    0.8070 ha        1 1OB      0.133000
     43 H8         -3.2100    4.7180   -0.4980 ho        1 1OB      0.266000
@<TRIPOS>BOND
     1    1    6 1   
     2    1   30 1   
     3    2    3 1   
     4    2   31 1   
     5    3   28 1   
     6    4    5 1   
     7    4   32 1   
     8    5   33 1   
     9    7    8 1   
    10    7   34 1   
    11    7   35 1   
    12    8   13 1   
    13    9   10 1   
    14    9   36 1   
    15   10   27 1   
    16   11   12 1   
    17   14   15 1   
    18   15   16 1   
    19   17   18 1   
    20   17   19 1   
    21   19   20 1   
    22   19   38 1   
    23   20   21 1   
    24   20   25 1   
    25   21   22 1   
    26   21   39 1   
    27   22   40 1   
    28   23   24 1   
    29   24   41 1   
    30   25   42 1   
    31   27   43 1   
    32   28   29 1   
@<TRIPOS>SUBSTRUCTURE
     1 1OB         1 TEMP              0 ****  ****    0 ROOT
