@<TRIPOS>MOLECULE
1OB
   43    45     1     0     0
SMALL
bcc


@<TRIPOS>ATOM
      1 C1          0.3860   -0.0290    1.5490 ca        1 1OB     -0.022500
      2 C2          1.7540    0.1460    1.7600 ca        1 1OB     -0.146000
      3 C3          2.2940    1.4360    1.7830 ca        1 1OB      0.076000
      4 C4          1.4670    2.5590    1.5930 ca        1 1OB     -0.146000
      5 C5          0.1090    2.3790    1.3820 ca        1 1OB     -0.022500
      6 C6         -0.4590    1.0840    1.3560 ca        1 1OB     -0.195000
      7 C7         -1.8400    0.8560    1.1460 c1        1 1OB     -0.079000
      8 C8         -2.8780   -1.9290    1.1270 c2        1 1OB     -0.041000
      9 C9         -4.2780   -2.2170    1.1100 c2        1 1OB     -0.267000
     10 C10        -4.6970   -3.5450    1.1250 c2        1 1OB      0.221000
     11 N11        -3.7350   -4.5560    1.1610 na        1 1OB     -0.133000
     12 C12        -2.3350   -4.1650    1.1850 c2        1 1OB      0.119000
     13 N13        -1.9310   -2.8570    1.1590 n2        1 1OB     -0.142000
     14 C14        -1.6270   -5.4020    1.2220 c2        1 1OB     -0.277000
     15 C15        -2.6450   -6.4230    1.2210 c2        1 1OB     -0.076000
     16 N16        -3.8930   -5.8960    1.1870 n2        1 1OB     -0.125000
     17 C17        -0.1760   -5.5580    1.2930 c2        1 1OB      0.406000
     18 O18         0.5710   -4.6940    1.7850 o         1 1OB     -0.343000
     19 N19         0.3110   -6.7640    0.7800 n         1 1OB     -0.330000
     20 C20         1.6520   -7.1660    0.7030 ca        1 1OB      0.073000
     21 C21         2.6860   -6.5480    1.4410 ca        1 1OB     -0.151000
     22 C22         3.9930   -7.0060    1.3470 ca        1 1OB     -0.138000
     23 C23         4.3050   -8.0960    0.5170 ca        1 1OB      0.055000
     24 C24         3.2870   -8.7230   -0.2220 ca        1 1OB     -0.138000
     25 C25         1.9820   -8.2630   -0.1320 ca        1 1OB     -0.151000
     26 F26         5.5820   -8.5430    0.4290 f         1 1OB     -0.110000
     27 O27        -6.0400   -3.8070    1.0980 oh        1 1OB     -0.232000
     28 C28         3.6890    1.6220    1.9990 c1        1 1OB     -0.114000
     29 N29         4.8290    1.7740    2.1750 n1        1 1OB     -0.004000
     30 H1         -0.0440   -1.0480    1.5300 ha        1 1OB      0.167500
     31 H2          2.4020   -0.7320    1.9090 ha        1 1OB      0.159500
     32 H3          1.9030    3.5700    1.6120 ha        1 1OB      0.159500
     33 H4         -0.5430    3.2560    1.2320 ha        1 1OB      0.167500
     34 H5         -2.4780    1.7370    0.9910 ha        1 1OB      0.056000
     35 H6         -2.5170   -0.8380    1.1190 h4        1 1OB      0.270000
     36 H7         -5.0210   -1.4120    1.0840 ha        1 1OB      0.177000
     37 H9         -2.4960   -7.5050    1.2620 h4        1 1OB      0.185000
     38 H10        -0.3360   -7.3390    0.2880 hn        1 1OB      0.227000
     39 H11         2.4670   -5.6890    2.0980 ha        1 1OB      0.154000
     40 H12         4.7920   -6.5170    1.9250 ha        1 1OB      0.147500
     41 H13         3.5330   -9.5760   -0.8720 ha        1 1OB      0.147500
     42 H14         1.2020   -8.7690   -0.7220 ha        1 1OB      0.154000
     43 H8         -6.2140   -4.7620    1.1410 ho        1 1OB      0.258000
@<TRIPOS>BOND
     1    1    2 1   
     2    1    6 1   
     3    1   30 1   
     4    2    3 1   
     5    2   31 1   
     6    3    4 1   
     7    3   28 1   
     8    4    5 1   
     9    4   32 1   
    10    5    6 1   
    11    5   33 1   
    12    6    7 1   
    13    7   34 1   
    14    8    9 1   
    15    8   13 1   
    16    8   35 1   
    17    9   10 1   
    18    9   36 1   
    19   10   11 1   
    20   10   27 1   
    21   11   12 1   
    22   11   16 1   
    23   12   13 1   
    24   12   14 1   
    25   14   15 1   
    26   14   17 1   
    27   15   16 1   
    28   15   37 1   
    29   17   18 1   
    30   17   19 1   
    31   19   20 1   
    32   19   38 1   
    33   20   21 1   
    34   20   25 1   
    35   21   22 1   
    36   21   39 1   
    37   22   23 1   
    38   22   40 1   
    39   23   24 1   
    40   23   26 1   
    41   24   25 1   
    42   24   41 1   
    43   25   42 1   
    44   27   43 1   
    45   28   29 1   
@<TRIPOS>SUBSTRUCTURE
     1 1OB         1 TEMP              0 ****  ****    0 ROOT
