@<TRIPOS>MOLECULE
1OB
   43    46     1     0     0
SMALL
bcc


@<TRIPOS>ATOM
      1 C1         -3.3790    3.6940   -0.7230 ca        1 1OB     -0.121000
      2 C2         -2.7470    4.6860   -1.4690 ca        1 1OB     -0.092000
      3 C3         -1.3680    4.8930   -1.3260 ca        1 1OB     -0.014000
      4 C4         -0.6300    4.1020   -0.4330 ca        1 1OB     -0.092000
      5 C5         -1.2700    3.1140    0.3110 ca        1 1OB     -0.121000
      6 C6         -2.6470    2.9020    0.1690 ca        1 1OB     -0.068300
      7 C7         -3.3350    1.8590    0.9810 c3        1 1OB     -0.093400
      8 C8         -3.0370    0.4690    0.4800 cc        1 1OB      0.498600
      9 C9         -4.1090   -0.2530   -0.1460 cc        1 1OB     -0.397300
     10 C10        -3.8810   -1.5410   -0.6200 cd        1 1OB      0.259800
     11 N11        -2.6220   -2.1100   -0.4760 na        1 1OB      0.020200
     12 C12        -1.5950   -1.3080    0.1810 cd        1 1OB      0.455500
     13 N13        -1.8140   -0.0360    0.6400 nd        1 1OB     -0.642000
     14 C14        -0.4450   -2.1410    0.1780 cc        1 1OB     -0.356800
     15 C15        -0.8610   -3.3630   -0.4670 cc        1 1OB      0.408500
     16 N16        -2.1610   -3.3230   -0.8450 nd        1 1OB     -0.526100
     17 C17         0.8590   -1.8170    0.7610 c         1 1OB      0.725300
     18 O18         0.9840   -1.0620    1.7400 o         1 1OB     -0.571100
     19 N19         1.9460   -2.4380    0.1420 n         1 1OB     -0.473100
     20 C20         3.3010   -2.2880    0.4720 ca        1 1OB      0.062600
     21 C21         3.7410   -1.7210    1.6880 ca        1 1OB     -0.148500
     22 C22         5.0970   -1.6240    1.9740 ca        1 1OB     -0.138500
     23 C23         6.0500   -2.0930    1.0540 ca        1 1OB      0.092900
     24 C24         5.6280   -2.6610   -0.1600 ca        1 1OB     -0.138500
     25 C25         4.2740   -2.7550   -0.4470 ca        1 1OB     -0.148500
     26 F26         7.3720   -1.9990    1.3350 f         1 1OB     -0.142900
     27 O27        -4.8280   -2.3160   -1.2370 oh        1 1OB     -0.455100
     28 C28        -0.7190    5.9030   -2.0870 cg        1 1OB      0.231800
     29 N29        -0.1890    6.7310   -2.7090 n1        1 1OB     -0.360800
     30 H1         -4.4620    3.5380   -0.8380 ha        1 1OB      0.150000
     31 H2         -3.3280    5.3060   -2.1680 ha        1 1OB      0.148000
     32 H3          0.4530    4.2620   -0.3190 ha        1 1OB      0.148000
     33 H4         -0.6880    2.4900    1.0090 ha        1 1OB      0.150000
     34 H5         -3.0010    1.9440    2.0540 hc        1 1OB      0.075700
     35 H6         -4.4460    2.0220    0.9610 hc        1 1OB      0.075700
     36 H7         -5.0980    0.2060   -0.2540 ha        1 1OB      0.164000
     37 H9         -0.2540   -4.2560   -0.6400 h4        1 1OB      0.061800
     38 H10         1.7630   -2.9280   -0.7050 hn        1 1OB      0.315500
     39 H11         3.0130   -1.3430    2.4260 ha        1 1OB      0.155000
     40 H12         5.4300   -1.1790    2.9230 ha        1 1OB      0.149500
     41 H13         6.3760   -3.0270   -0.8790 ha        1 1OB      0.149500
     42 H14         3.9680   -3.2020   -1.4060 ha        1 1OB      0.155000
     43 H8         -5.6470   -1.7930   -1.2730 ho        1 1OB      0.447000
@<TRIPOS>BOND
     1    1    2 ar  
     2    1    6 ar  
     3    1   30 1   
     4    2    3 ar  
     5    2   31 1   
     6    3    4 ar  
     7    3   28 1   
     8    4    5 ar  
     9    4   32 1   
    10    5    6 ar  
    11    5   33 1   
    12    6    7 1   
    13    7    8 1   
    14    7   34 1   
    15    7   35 1   
    16    8    9 1   
    17    8   13 2   
    18    9   10 2   
    19    9   36 1   
    20   10   11 1   
    21   10   27 1   
    22   11   12 1   
    23   11   16 1   
    24   12   13 1   
    25   12   14 2   
    26   14   15 1   
    27   14   17 1   
    28   15   16 2   
    29   15   37 1   
    30   17   18 2   
    31   17   19 1   
    32   19   20 1   
    33   19   38 1   
    34   20   21 ar  
    35   20   25 ar  
    36   21   22 ar  
    37   21   39 1   
    38   22   23 ar  
    39   22   40 1   
    40   23   24 ar  
    41   23   26 1   
    42   24   25 ar  
    43   24   41 1   
    44   25   42 1   
    45   27   43 1   
    46   28   29 3   
@<TRIPOS>SUBSTRUCTURE
     1 1OB         1 TEMP              0 ****  ****    0 ROOT
