@<TRIPOS>MOLECULE
1OC
   61    66     1     0     0
SMALL
bcc


@<TRIPOS>ATOM
      1 C1         -8.0310    2.1110   -0.3700 ca        1 1OC     -0.143000
      2 C2         -8.8910    1.6700   -1.3760 ca        1 1OC     -0.107000
      3 C3         -8.7320    0.4020   -1.9240 ca        1 1OC     -0.165000
      4 C4         -7.7010   -0.4390   -1.4610 ca        1 1OC      0.129900
      5 C5         -6.8230   -0.0030   -0.4420 cp        1 1OC     -0.051000
      6 C6         -7.0110    1.2820    0.0880 ca        1 1OC     -0.105000
      7 C7         -5.7400   -0.8360    0.0650 cp        1 1OC     -0.196300
      8 C8         -4.4720   -0.2990    0.2880 ca        1 1OC     -0.030000
      9 C9         -3.4810   -1.1360    0.7960 ca        1 1OC     -0.228100
     10 C10        -2.0800   -0.9850    1.1570 cc        1 1OC      0.015400
     11 C11        -1.6370   -2.2350    1.6220 cd        1 1OC     -0.127100
     12 N12        -2.6840   -3.1600    1.5730 na        1 1OC     -0.279100
     13 C14        -3.8230   -2.5260    1.0710 ca        1 1OC      0.440800
     14 N15        -5.0650   -3.0620    0.8540 nb        1 1OC     -0.672000
     15 C16        -5.9690   -2.2140    0.3630 ca        1 1OC      0.441200
     16 N17        -1.3640    0.1990    1.0590 n         1 1OC     -0.460100
     17 C18         0.0020    0.3170    1.3270 c         1 1OC      0.726300
     18 O19         0.6660   -0.6560    1.7320 o         1 1OC     -0.591100
     19 C20         0.5660    1.6470    1.1230 cc        1 1OC     -0.382800
     20 C21        -0.0980    2.9250    1.2070 cc        1 1OC      0.419500
     21 N22         0.7520    3.9570    0.9950 nd        1 1OC     -0.566100
     22 N23         1.9660    3.4050    0.7690 na        1 1OC      0.010200
     23 C24         1.9280    1.9540    0.8360 cd        1 1OC      0.479500
     24 N25         3.0160    1.1620    0.6260 nd        1 1OC     -0.709000
     25 C26         4.1950    1.7910    0.3760 cc        1 1OC      0.698200
     26 C27         4.2890    3.2480    0.2890 cc        1 1OC     -0.340300
     27 C28         3.1700    4.0190    0.4890 cd        1 1OC      0.030700
     28 N29         5.3660    1.0620    0.2520 nh        1 1OC     -0.846900
     29 C30         5.3430   -0.3780    0.1690 c3        1 1OC      0.205800
     30 C31         6.7410   -1.0000    0.0340 c3        1 1OC     -0.105700
     31 C32         6.6230   -2.4940    0.2970 c3        1 1OC     -0.112400
     32 C33         7.9630   -3.1990    0.0870 c3        1 1OC      0.148800
     33 N34         8.5910   -2.9490   -1.1950 n3        1 1OC     -0.794200
     34 C35         8.6770   -1.5440   -1.5070 c3        1 1OC      0.129800
     35 C36         7.3430   -0.7580   -1.3640 c3        1 1OC      0.124600
     36 F37         7.5820    0.5910   -1.5890 f         1 1OC     -0.248300
     37 F38        -7.5690   -1.6670   -2.0190 f         1 1OC     -0.137900
     38 H1         -8.1600    3.1130    0.0640 ha        1 1OC      0.137000
     39 H2         -9.6980    2.3240   -1.7390 ha        1 1OC      0.138000
     40 H3         -9.4020    0.0430   -2.7190 ha        1 1OC      0.149000
     41 H4         -6.3400    1.6320    0.8880 ha        1 1OC      0.139000
     42 H5         -4.2590    0.7560    0.0640 ha        1 1OC      0.133000
     43 H6         -0.6420   -2.5150    1.9800 h4        1 1OC      0.206000
     44 H7         -2.6270   -4.1080    1.8380 hn        1 1OC      0.311700
     45 H8         -6.9690   -2.6500    0.1760 h4        1 1OC      0.031100
     46 H9         -1.8390    0.9640    0.6410 hn        1 1OC      0.317500
     47 H10        -1.1520    3.1050    1.4320 h4        1 1OC      0.053800
     48 H11         5.2510    3.7290    0.0710 ha        1 1OC      0.164000
     49 H12         3.1790    5.1240    0.4380 h4        1 1OC      0.183000
     50 H13         6.1230    1.5260   -0.2050 hn        1 1OC      0.441800
     51 H14         4.8610   -0.7740    1.1100 h1        1 1OC      0.066200
     52 H15         4.7100   -0.7150   -0.7030 h1        1 1OC      0.066200
     53 H16         7.4360   -0.5490    0.7950 hc        1 1OC      0.076700
     54 H17         6.2860   -2.6600    1.3530 hc        1 1OC      0.057200
     55 H18         5.8460   -2.9360   -0.3800 hc        1 1OC      0.057200
     56 H19         8.6820   -2.8610    0.8870 h1        1 1OC      0.060200
     57 H20         7.8180   -4.3090    0.2000 h1        1 1OC      0.060200
     58 H21         8.0990   -3.4370   -1.9230 hn        1 1OC      0.356800
     59 H23         9.4320   -1.0740   -0.8150 h1        1 1OC      0.067700
     60 H24         9.0490   -1.4220   -2.5620 h1        1 1OC      0.067700
     61 H25         6.6110   -1.1120   -2.1460 h1        1 1OC      0.055700
@<TRIPOS>BOND
     1    1    2 ar  
     2    1    6 ar  
     3    1   38 1   
     4    2    3 ar  
     5    2   39 1   
     6    3    4 ar  
     7    3   40 1   
     8    4    5 ar  
     9    4   37 1   
    10    5    6 ar  
    11    5    7 1   
    12    6   41 1   
    13    7    8 ar  
    14    7   15 ar  
    15    8    9 ar  
    16    8   42 1   
    17    9   10 1   
    18    9   13 ar  
    19   10   11 2   
    20   10   16 1   
    21   11   12 1   
    22   11   43 1   
    23   12   13 1   
    24   12   44 1   
    25   13   14 ar  
    26   14   15 ar  
    27   15   45 1   
    28   16   17 1   
    29   16   46 1   
    30   17   18 2   
    31   17   19 1   
    32   19   20 1   
    33   19   23 2   
    34   20   21 2   
    35   20   47 1   
    36   21   22 1   
    37   22   23 1   
    38   22   27 1   
    39   23   24 1   
    40   24   25 2   
    41   25   26 1   
    42   25   28 1   
    43   26   27 2   
    44   26   48 1   
    45   27   49 1   
    46   28   29 1   
    47   28   50 1   
    48   29   30 1   
    49   29   51 1   
    50   29   52 1   
    51   30   31 1   
    52   30   35 1   
    53   30   53 1   
    54   31   32 1   
    55   31   54 1   
    56   31   55 1   
    57   32   33 1   
    58   32   56 1   
    59   32   57 1   
    60   33   34 1   
    61   33   58 1   
    62   34   35 1   
    63   34   59 1   
    64   34   60 1   
    65   35   36 1   
    66   35   61 1   
@<TRIPOS>SUBSTRUCTURE
     1 1OC         1 TEMP              0 ****  ****    0 ROOT
