@<TRIPOS>MOLECULE
1OC
   61    66     1     0     0
SMALL
bcc


@<TRIPOS>ATOM
      1 C1          0.4570    1.1410    0.2680 ca        1 1OC     -0.143000
      2 C2          1.8420    1.1930    0.4280 ca        1 1OC     -0.107000
      3 C3          2.4140    0.8800    1.6550 ca        1 1OC     -0.165000
      4 C4          1.5940    0.5090    2.7390 ca        1 1OC      0.129900
      5 C5          0.1890    0.4530    2.5890 cp        1 1OC     -0.051000
      6 C6         -0.3560    0.7750    1.3370 ca        1 1OC     -0.105000
      7 C7         -0.6990    0.0790    3.6830 cp        1 1OC     -0.196300
      8 C8         -1.8750    0.7910    3.9220 ca        1 1OC     -0.030000
      9 C9         -2.6970    0.3760    4.9650 ca        1 1OC     -0.228100
     10 C10        -3.9610    0.8220    5.5320 cc        1 1OC      0.015400
     11 C11        -4.2660   -0.0460    6.5940 cd        1 1OC     -0.127100
     12 N12        -3.2640   -1.0130    6.7230 na        1 1OC     -0.279100
     13 C14        -2.2900   -0.7840    5.7490 ca        1 1OC      0.440800
     14 N15        -1.1370   -1.4880    5.5220 nb        1 1OC     -0.672000
     15 C16        -0.3880   -1.0400    4.5140 ca        1 1OC      0.441200
     16 N17        -4.6990    1.8990    5.0640 ns        1 1OC     -0.460100
     17 C18        -5.8710    2.3690    5.6590 c         1 1OC      0.726300
     18 O19        -6.3670    1.7940    6.6470 o         1 1OC     -0.591100
     19 C20        -6.4660    3.5420    5.0270 cc        1 1OC     -0.382800
     20 C21        -6.3750    3.9610    3.6500 cc        1 1OC      0.419500
     21 N22        -7.0930    5.0830    3.4090 nd        1 1OC     -0.567100
     22 N23        -7.6580    5.4290    4.5880 na        1 1OC      0.010200
     23 C24        -7.3110    4.5040    5.6520 cd        1 1OC      0.479500
     24 N25        -7.7390    4.6430    6.9390 nd        1 1OC     -0.708000
     25 C26        -8.5610    5.6910    7.2040 cc        1 1OC      0.698200
     26 C27        -8.9360    6.6570    6.1710 cc        1 1OC     -0.340300
     27 C28        -8.4750    6.5000    4.8870 cd        1 1OC      0.030700
     28 N29        -9.1210    5.8440    8.4610 nu        1 1OC     -0.845900
     29 C30        -8.6820    5.0420    9.5780 c3        1 1OC      0.205800
     30 C31        -9.4450    5.3420   10.8760 c3        1 1OC     -0.106700
     31 C32        -9.1350    4.2380   11.8750 c3        1 1OC     -0.074400
     32 C33        -9.7960    4.5040   13.2250 c3        1 1OC      0.159800
     33 N34        -9.4630    5.8080   13.7620 n7        1 1OC     -0.819200
     34 C35        -9.7390    6.8960   12.8530 c3        1 1OC      0.136800
     35 C36        -9.0460    6.7030   11.4780 c3        1 1OC      0.162600
     36 F37        -9.4060    7.7550   10.6460 f         1 1OC     -0.253300
     37 F38         2.1820    0.2160    3.9240 f         1 1OC     -0.137900
     38 H1          0.0060    1.3860   -0.7040 ha        1 1OC      0.137000
     39 H2          2.4850    1.4810   -0.4170 ha        1 1OC      0.138000
     40 H3          3.5040    0.9190    1.7970 ha        1 1OC      0.149000
     41 H4         -1.4480    0.7280    1.2040 ha        1 1OC      0.139000
     42 H5         -2.1420    1.6620    3.3060 ha        1 1OC      0.133000
     43 H6         -5.1330   -0.0290    7.2610 h4        1 1OC      0.206000
     44 H7         -3.2400   -1.7300    7.3990 hn        1 1OC      0.311700
     45 H8          0.5490   -1.6010    4.3380 h4        1 1OC      0.030100
     46 H9         -4.2750    2.4390    4.3460 hn        1 1OC      0.316500
     47 H10        -5.8270    3.4630    2.8460 h4        1 1OC      0.053800
     48 H11        -9.5910    7.5030    6.4160 ha        1 1OC      0.164000
     49 H12        -8.7250    7.1970    4.0660 h4        1 1OC      0.183000
     50 H13        -9.4720    6.7540    8.6750 hn        1 1OC      0.440800
     51 H14        -8.8370    3.9560    9.3110 h1        1 1OC      0.067200
     52 H15        -7.5770    5.1920    9.7630 h1        1 1OC      0.067200
     53 H16       -10.5520    5.3570   10.6740 hc        1 1OC      0.071700
     54 H17        -8.0240    4.1500   12.0060 hc        1 1OC      0.060700
     55 H18        -9.5110    3.2580   11.4810 hc        1 1OC      0.060700
     56 H19        -9.4360    3.7350   13.9640 h1        1 1OC      0.035700
     57 H20       -10.9120    4.3670   13.1040 h1        1 1OC      0.035700
     58 H21        -9.9380    5.9590   14.6320 hn        1 1OC      0.372800
     59 H23       -10.8420    7.0400   12.6590 h1        1 1OC      0.043200
     60 H24        -9.3460    7.8440   13.3150 h1        1 1OC      0.043200
     61 H25        -7.9260    6.7350   11.6130 h1        1 1OC      0.072700
@<TRIPOS>BOND
     1    1    2 ar  
     2    1    6 ar  
     3    1   38 1   
     4    2    3 ar  
     5    2   39 1   
     6    3    4 ar  
     7    3   40 1   
     8    4    5 ar  
     9    4   37 1   
    10    5    6 ar  
    11    5    7 1   
    12    6   41 1   
    13    7    8 ar  
    14    7   15 ar  
    15    8    9 ar  
    16    8   42 1   
    17    9   10 1   
    18    9   13 ar  
    19   10   11 2   
    20   10   16 1   
    21   11   12 1   
    22   11   43 1   
    23   12   13 1   
    24   12   44 1   
    25   13   14 ar  
    26   14   15 ar  
    27   15   45 1   
    28   16   17 1   
    29   16   46 1   
    30   17   18 2   
    31   17   19 1   
    32   19   20 1   
    33   19   23 2   
    34   20   21 2   
    35   20   47 1   
    36   21   22 1   
    37   22   23 1   
    38   22   27 1   
    39   23   24 1   
    40   24   25 2   
    41   25   26 1   
    42   25   28 1   
    43   26   27 2   
    44   26   48 1   
    45   27   49 1   
    46   28   29 1   
    47   28   50 1   
    48   29   30 1   
    49   29   51 1   
    50   29   52 1   
    51   30   31 1   
    52   30   35 1   
    53   30   53 1   
    54   31   32 1   
    55   31   54 1   
    56   31   55 1   
    57   32   33 1   
    58   32   56 1   
    59   32   57 1   
    60   33   34 1   
    61   33   58 1   
    62   34   35 1   
    63   34   59 1   
    64   34   60 1   
    65   35   36 1   
    66   35   61 1   
@<TRIPOS>SUBSTRUCTURE
     1 1OC         1 TEMP              0 ****  ****    0 ROOT
