@<TRIPOS>MOLECULE
1OC
   63    68     1     0     0
SMALL
bcc


@<TRIPOS>ATOM
      1 C1         -0.9520    0.8780   -0.3680 ca        1 1OC     -0.136000
      2 C2          0.0660    1.8020   -0.6190 ca        1 1OC     -0.072000
      3 C3          0.7750    2.3670    0.4350 ca        1 1OC     -0.153000
      4 C4          0.4700    1.9990    1.7600 ca        1 1OC      0.147900
      5 C5         -0.5570    1.0630    2.0240 cp        1 1OC     -0.123000
      6 C6         -1.2600    0.5160    0.9390 ca        1 1OC     -0.092000
      7 C7         -0.8850    0.6480    3.3810 cp        1 1OC     -0.086300
      8 C8         -2.2040    0.5880    3.8180 ca        1 1OC     -0.108000
      9 C9         -2.4450    0.1620    5.1300 ca        1 1OC     -0.193100
     10 C10        -3.6090   -0.0470    5.9640 cc        1 1OC     -0.200200
     11 C11        -3.1640   -0.5500    7.2110 cd        1 1OC     -0.003100
     12 N12        -1.7940   -0.6430    7.2050 na        1 1OC     -0.222100
     13 C14        -1.3100   -0.2180    5.9480 ca        1 1OC      0.427800
     14 N15        -0.0080   -0.1570    5.5330 nb        1 1OC     -0.613000
     15 C16         0.1670    0.2720    4.2850 ca        1 1OC      0.454200
     16 N17        -4.9680    0.1620    5.5590 n4        1 1OC     -0.479600
     17 C18        -5.6790    1.2400    6.3650 c         1 1OC      0.608300
     18 O19        -6.5170    0.8160    7.1530 o         1 1OC     -0.435100
     19 C20        -5.3160    2.5980    6.0930 cc        1 1OC     -0.376800
     20 C21        -4.1750    3.1390    5.3850 cc        1 1OC      0.467500
     21 N22        -4.1790    4.4910    5.3840 nd        1 1OC     -0.478100
     22 N23        -5.2790    4.8820    6.0670 na        1 1OC      0.067200
     23 C24        -6.0430    3.7450    6.5490 cd        1 1OC      0.449500
     24 N25        -7.2000    3.8700    7.2620 nd        1 1OC     -0.615000
     25 C26        -7.6090    5.1290    7.5090 cc        1 1OC      0.552200
     26 C27        -6.9090    6.3030    7.0730 cc        1 1OC     -0.292300
     27 C28        -5.7360    6.1510    6.3430 cd        1 1OC      0.079700
     28 N29        -8.8630    5.3040    8.2730 n4        1 1OC     -0.767700
     29 C30        -8.6870    4.9850    9.7330 c3        1 1OC      0.112800
     30 C31        -9.8930    5.4320   10.5640 c3        1 1OC     -0.125700
     31 C32        -9.7700    4.8230   11.9560 c3        1 1OC     -0.075400
     32 C33       -10.9120    5.3040   12.8550 c3        1 1OC      0.163800
     33 N34       -10.9950    6.7480   12.9020 n3        1 1OC     -0.832200
     34 C35       -11.1500    7.3590   11.6050 c3        1 1OC      0.153800
     35 C36        -9.9680    6.9700   10.6770 c3        1 1OC      0.142600
     36 F37       -10.1380    7.5430    9.4210 f         1 1OC     -0.262300
     37 F38         1.1660    2.5620    2.7760 f         1 1OC     -0.133900
     38 H1         -1.5040    0.4280   -1.2070 ha        1 1OC      0.155000
     39 H2          0.3130    2.0820   -1.6560 ha        1 1OC      0.161000
     40 H3          1.5810    3.0950    0.2500 ha        1 1OC      0.170000
     41 H4         -2.0500   -0.2260    1.1300 ha        1 1OC      0.134000
     42 H5         -3.0290    0.8550    3.1420 ha        1 1OC      0.138000
     43 H6         -3.7530   -0.8440    8.0890 h4        1 1OC      0.204000
     44 H7         -1.2240   -0.9840    7.9460 hn        1 1OC      0.350700
     45 H8          1.2240    0.3330    3.9460 h4        1 1OC      0.071100
     46 H9         -4.9680    0.4230    4.5650 hn        1 1OC      0.467800
     47 H10        -3.3570    2.5750    4.9070 h4        1 1OC      0.103800
     48 H11        -7.2720    7.3210    7.2950 ha        1 1OC      0.210000
     49 H12        -5.1400    7.0140    5.9670 h4        1 1OC      0.242000
     50 H13        -9.1750    6.2930    8.1830 hn        1 1OC      0.484800
     51 H14        -8.5400    3.8700    9.8280 hx        1 1OC      0.116200
     52 H15        -7.7570    5.5110   10.0930 hx        1 1OC      0.116200
     53 H16       -10.8480    5.0610   10.0940 hc        1 1OC      0.084700
     54 H17        -8.7840    5.1080   12.4100 hc        1 1OC      0.068700
     55 H18        -9.8150    3.7060   11.8880 hc        1 1OC      0.068700
     56 H19       -11.8710    4.8270   12.4930 h1        1 1OC      0.058700
     57 H20       -10.7190    4.9400   13.9050 h1        1 1OC      0.058700
     58 H21       -11.7030    7.0590   13.5400 hn        1 1OC      0.410800
     59 H23       -11.1460    8.4780   11.7330 h1        1 1OC      0.065200
     60 H24       -12.1070    7.0710   11.0790 h1        1 1OC      0.065200
     61 H25        -9.0040    7.3670   11.1120 h1        1 1OC      0.089700
     62 H172       -5.4920   -0.7210    5.6750 hn        1 1OC      0.467800
     63 H292       -9.6000    4.6970    7.8840 hn        1 1OC      0.484800
@<TRIPOS>BOND
     1    1    2 ar  
     2    1    6 ar  
     3    1   38 1   
     4    2    3 ar  
     5    2   39 1   
     6    3    4 ar  
     7    3   40 1   
     8    4    5 ar  
     9    4   37 1   
    10    5    6 ar  
    11    5    7 1   
    12    6   41 1   
    13    7    8 ar  
    14    7   15 ar  
    15    8    9 ar  
    16    8   42 1   
    17    9   10 1   
    18    9   13 ar  
    19   10   11 2   
    20   10   16 1   
    21   11   12 1   
    22   11   43 1   
    23   12   13 1   
    24   12   44 1   
    25   13   14 ar  
    26   14   15 ar  
    27   15   45 1   
    28   16   17 1   
    29   16   46 1   
    30   16   62 1   
    31   17   18 2   
    32   17   19 1   
    33   19   20 1   
    34   19   23 2   
    35   20   21 2   
    36   20   47 1   
    37   21   22 1   
    38   22   23 1   
    39   22   27 1   
    40   23   24 1   
    41   24   25 2   
    42   25   26 1   
    43   25   28 1   
    44   26   27 2   
    45   26   48 1   
    46   27   49 1   
    47   28   29 1   
    48   28   50 1   
    49   28   63 1   
    50   29   30 1   
    51   29   51 1   
    52   29   52 1   
    53   30   31 1   
    54   30   35 1   
    55   30   53 1   
    56   31   32 1   
    57   31   54 1   
    58   31   55 1   
    59   32   33 1   
    60   32   56 1   
    61   32   57 1   
    62   33   34 1   
    63   33   58 1   
    64   34   35 1   
    65   34   59 1   
    66   34   60 1   
    67   35   36 1   
    68   35   61 1   
@<TRIPOS>SUBSTRUCTURE
     1 1OC         1 TEMP              0 ****  ****    0 ROOT
