@<TRIPOS>MOLECULE
1OC
   61    66     1     0     0
SMALL
bcc


@<TRIPOS>ATOM
      1 C1          0.4680    1.1590    0.2650 ca        1 1OC     -0.143000
      2 C2          1.8530    1.2160    0.4210 ca        1 1OC     -0.107000
      3 C3          2.4300    0.9080    1.6470 ca        1 1OC     -0.165000
      4 C4          1.6140    0.5370    2.7340 ca        1 1OC      0.129900
      5 C5          0.2080    0.4760    2.5880 cp        1 1OC     -0.051000
      6 C6         -0.3410    0.7940    1.3370 ca        1 1OC     -0.105000
      7 C7         -0.6750    0.1030    3.6860 cp        1 1OC     -0.196300
      8 C8         -1.8520    0.8120    3.9260 ca        1 1OC     -0.030000
      9 C9         -2.6710    0.3960    4.9730 ca        1 1OC     -0.228100
     10 C10        -3.9340    0.8400    5.5420 cc        1 1OC      0.015400
     11 C11        -4.2330   -0.0260    6.6060 cd        1 1OC     -0.127100
     12 N12        -3.2280   -0.9900    6.7350 na        1 1OC     -0.279100
     13 C14        -2.2580   -0.7600    5.7580 ca        1 1OC      0.440800
     14 N15        -1.1030   -1.4620    5.5300 nb        1 1OC     -0.672000
     15 C16        -0.3590   -1.0130    4.5190 ca        1 1OC      0.441200
     16 N17        -4.6760    1.9150    5.0730 n         1 1OC     -0.460100
     17 C18        -5.8500    2.3800    5.6680 c         1 1OC      0.726300
     18 O19        -6.3430    1.8050    6.6570 o         1 1OC     -0.591100
     19 C20        -6.4510    3.5490    5.0350 cc        1 1OC     -0.382800
     20 C21        -6.3590    3.9690    3.6580 cc        1 1OC      0.419500
     21 N22        -7.0830    5.0880    3.4160 nd        1 1OC     -0.567100
     22 N23        -7.6520    5.4300    4.5930 na        1 1OC      0.010200
     23 C24        -7.3030    4.5060    5.6590 cd        1 1OC      0.479500
     24 N25        -7.7340    4.6420    6.9440 nd        1 1OC     -0.708000
     25 C26        -8.5640    5.6850    7.2080 cc        1 1OC      0.698200
     26 C27        -8.9430    6.6490    6.1740 cc        1 1OC     -0.340300
     27 C28        -8.4770    6.4960    4.8910 cd        1 1OC      0.030700
     28 N29        -9.1280    5.8350    8.4640 nh        1 1OC     -0.846900
     29 C30        -8.6880    5.0350    9.5810 c3        1 1OC      0.205800
     30 C31        -9.4590    5.3270   10.8760 c3        1 1OC     -0.106700
     31 C32        -9.1440    4.2240   11.8750 c3        1 1OC     -0.074400
     32 C33        -9.8140    4.4840   13.2220 c3        1 1OC      0.159800
     33 N34        -9.4930    5.7900   13.7630 n3        1 1OC     -0.819200
     34 C35        -9.7740    6.8770   12.8530 c3        1 1OC      0.136800
     35 C36        -9.0730    6.6900   11.4810 c3        1 1OC      0.162600
     36 F37        -9.4380    7.7410   10.6490 f         1 1OC     -0.253300
     37 F38         2.2060    0.2480    3.9180 f         1 1OC     -0.137900
     38 H1          0.0130    1.4010   -0.7070 ha        1 1OC      0.137000
     39 H2          2.4930    1.5040   -0.4270 ha        1 1OC      0.138000
     40 H3          3.5200    0.9500    1.7850 ha        1 1OC      0.149000
     41 H4         -1.4330    0.7430    1.2070 ha        1 1OC      0.139000
     42 H5         -2.1230    1.6810    3.3090 ha        1 1OC      0.133000
     43 H6         -5.0990   -0.0100    7.2760 h4        1 1OC      0.206000
     44 H7         -3.2010   -1.7050    7.4130 hn        1 1OC      0.311700
     45 H8          0.5800   -1.5720    4.3410 h4        1 1OC      0.030100
     46 H9         -4.2550    2.4550    4.3540 hn        1 1OC      0.316500
     47 H10        -5.8060    3.4750    2.8550 h4        1 1OC      0.053800
     48 H11        -9.6030    7.4920    6.4180 ha        1 1OC      0.164000
     49 H12        -8.7290    7.1910    4.0690 h4        1 1OC      0.183000
     50 H13        -9.4860    6.7420    8.6760 hn        1 1OC      0.440800
     51 H14        -8.8330    3.9470    9.3130 h1        1 1OC      0.067200
     52 H15        -7.5850    5.1930    9.7710 h1        1 1OC      0.067200
     53 H16       -10.5650    5.3330   10.6690 hc        1 1OC      0.071700
     54 H17        -9.5110    3.2420   11.4780 hc        1 1OC      0.060700
     55 H18        -8.0330    4.1460   12.0110 hc        1 1OC      0.060700
     56 H19       -10.9280    4.3380   13.0970 h1        1 1OC      0.035700
     57 H20        -9.4500    3.7170   13.9630 h1        1 1OC      0.035700
     58 H21        -9.9730    5.9360   14.6310 hn        1 1OC      0.372800
     59 H23       -10.8770    7.0120   12.6540 h1        1 1OC      0.043200
     60 H24        -9.3900    7.8270   13.3180 h1        1 1OC      0.043200
     61 H25        -7.9540    6.7310   11.6210 h1        1 1OC      0.072700
@<TRIPOS>BOND
     1    1    2 ar  
     2    1    6 ar  
     3    1   38 1   
     4    2    3 ar  
     5    2   39 1   
     6    3    4 ar  
     7    3   40 1   
     8    4    5 ar  
     9    4   37 1   
    10    5    6 ar  
    11    5    7 1   
    12    6   41 1   
    13    7    8 ar  
    14    7   15 ar  
    15    8    9 ar  
    16    8   42 1   
    17    9   10 1   
    18    9   13 ar  
    19   10   11 2   
    20   10   16 1   
    21   11   12 1   
    22   11   43 1   
    23   12   13 1   
    24   12   44 1   
    25   13   14 ar  
    26   14   15 ar  
    27   15   45 1   
    28   16   17 1   
    29   16   46 1   
    30   17   18 2   
    31   17   19 1   
    32   19   20 1   
    33   19   23 2   
    34   20   21 2   
    35   20   47 1   
    36   21   22 1   
    37   22   23 1   
    38   22   27 1   
    39   23   24 1   
    40   24   25 2   
    41   25   26 1   
    42   25   28 1   
    43   26   27 2   
    44   26   48 1   
    45   27   49 1   
    46   28   29 1   
    47   28   50 1   
    48   29   30 1   
    49   29   51 1   
    50   29   52 1   
    51   30   31 1   
    52   30   35 1   
    53   30   53 1   
    54   31   32 1   
    55   31   54 1   
    56   31   55 1   
    57   32   33 1   
    58   32   56 1   
    59   32   57 1   
    60   33   34 1   
    61   33   58 1   
    62   34   35 1   
    63   34   59 1   
    64   34   60 1   
    65   35   36 1   
    66   35   61 1   
@<TRIPOS>SUBSTRUCTURE
     1 1OC         1 TEMP              0 ****  ****    0 ROOT
