@<TRIPOS>MOLECULE
1OD
   79    82     1     0     0
SMALL
bcc


@<TRIPOS>ATOM
      1 O34        -5.5580    2.6640    2.3130 o         1 1OD     -0.637100
      2 C33        -5.2930    1.9550    1.3140 c         1 1OD      0.680700
      3 C35        -6.1010    2.0460    0.0660 ca        1 1OD     -0.186100
      4 C40        -5.5040    1.8950   -1.1940 ca        1 1OD     -0.117500
      5 C39        -6.2630    1.9810   -2.3550 ca        1 1OD     -0.138500
      6 C38        -7.6360    2.2230   -2.2940 ca        1 1OD     -0.113500
      7 C37        -8.2450    2.3940   -1.0480 ca        1 1OD      0.098600
      8 O41        -9.5980    2.6310   -1.0320 oh        1 1OD     -0.493600
      9 C36        -7.4750    2.3170    0.1410 ca        1 1OD      0.112100
     10 O42        -8.1880    2.4930    1.3000 oh        1 1OD     -0.525600
     11 N32        -4.2750    1.0290    1.3550 n         1 1OD     -0.554400
     12 C31        -3.3810    0.9080    2.4730 c3        1 1OD      0.090000
     13 C30        -1.9020    0.9720    2.0880 c3        1 1OD     -0.133400
     14 C29        -1.0600    0.8370    3.3580 c3        1 1OD      0.098500
     15 N14         0.3750    0.7860    3.1450 n         1 1OD     -0.456800
     16 C12         1.0180    1.9550    2.7670 c         1 1OD      0.666100
     17 O13         0.3830    3.0260    2.6990 o         1 1OD     -0.602100
     18 C10         2.5360    1.9570    2.5270 c3        1 1OD      0.033500
     19 C9          3.0690    3.4080    2.2620 c3        1 1OD      0.112100
     20 C43         4.0960    3.8500    3.2710 c3        1 1OD     -0.108100
     21 O8          3.7060    3.3070    0.9520 os        1 1OD     -0.438400
     22 N11         2.9340    1.1890    1.3510 n2        1 1OD     -0.701900
     23 C7          3.5690    1.9820    0.5200 ce        1 1OD      0.675200
     24 C1          4.1530    1.6750   -0.7840 ca        1 1OD     -0.180900
     25 C6          4.0110    0.4150   -1.3910 ca        1 1OD      0.107100
     26 O44         3.3340   -0.6610   -0.8690 oh        1 1OD     -0.543100
     27 C5          4.5990    0.1780   -2.6590 ca        1 1OD      0.090100
     28 O45         4.4820   -1.0260   -3.3130 oh        1 1OD     -0.497100
     29 C4          5.3150    1.1880   -3.3080 ca        1 1OD     -0.103000
     30 C3          5.4450    2.4360   -2.6960 ca        1 1OD     -0.140000
     31 C2          4.8750    2.6790   -1.4540 ca        1 1OD     -0.083000
     32 C15         0.9910   -0.5170    3.1020 c3        1 1OD      0.098500
     33 C16         0.7710   -1.3070    1.8100 c3        1 1OD     -0.133400
     34 C17         1.5650   -2.6170    1.8700 c3        1 1OD      0.090000
     35 N18         1.9310   -3.1520    0.5880 n         1 1OD     -0.554400
     36 C19         1.1390   -4.0510   -0.0960 c         1 1OD      0.680700
     37 O20         0.1590   -4.5980    0.4610 o         1 1OD     -0.637100
     38 C21         1.5330   -4.3920   -1.4910 ca        1 1OD     -0.186100
     39 C26         1.3520   -5.6960   -1.9760 ca        1 1OD      0.112100
     40 O27         0.8340   -6.7450   -1.2600 oh        1 1OD     -0.525600
     41 C25         1.7500   -6.0160   -3.3000 ca        1 1OD      0.098600
     42 O28         1.6190   -7.2810   -3.8190 oh        1 1OD     -0.493600
     43 C24         2.3040   -5.0360   -4.1270 ca        1 1OD     -0.113500
     44 C23         2.4530   -3.7360   -3.6400 ca        1 1OD     -0.138500
     45 C22         2.0690   -3.4150   -2.3440 ca        1 1OD     -0.117500
     46 H1         -4.4200    1.7260   -1.2760 ha        1 1OD      0.138000
     47 H2         -5.7790    1.8610   -3.3360 ha        1 1OD      0.144500
     48 H3         -8.2450    2.2890   -3.2070 ha        1 1OD      0.157000
     49 H4         -9.8660    2.7910   -0.1120 ho        1 1OD      0.441500
     50 H5         -7.5750    2.6950    2.0290 ho        1 1OD      0.469000
     51 H6         -4.0700    0.4960    0.5440 hn        1 1OD      0.317000
     52 H7         -3.6080    1.7290    3.2140 h1        1 1OD      0.064200
     53 H8         -3.5820   -0.0820    2.9790 h1        1 1OD      0.064200
     54 H9         -1.6540    0.1520    1.3650 hc        1 1OD      0.058700
     55 H10        -1.6680    1.9510    1.5920 hc        1 1OD      0.058700
     56 H11        -1.2760    1.7280    4.0180 h1        1 1OD      0.058450
     57 H12        -1.3670   -0.0960    3.9090 h1        1 1OD      0.058450
     58 H13         3.0400    1.5260    3.4390 h1        1 1OD      0.093700
     59 H14         2.2370    4.1530    2.1440 h1        1 1OD      0.119700
     60 H15         4.9230    3.1050    3.3560 hc        1 1OD      0.054700
     61 H16         4.5350    4.8300    2.9610 hc        1 1OD      0.054700
     62 H17         3.6070    3.9720    4.2680 hc        1 1OD      0.054700
     63 H18         2.9660   -0.4240   -0.0010 ho        1 1OD      0.466000
     64 H19         4.0770   -1.6670   -2.7070 ho        1 1OD      0.437000
     65 H20         5.7630    0.9840   -4.2920 ha        1 1OD      0.160000
     66 H21         6.0060    3.2330   -3.2070 ha        1 1OD      0.147000
     67 H22         4.9800    3.6680   -0.9790 ha        1 1OD      0.161000
     68 H23         2.0970   -0.4100    3.2880 h1        1 1OD      0.058450
     69 H24         0.5700   -1.1220    3.9590 h1        1 1OD      0.058450
     70 H25        -0.3180   -1.5420    1.6850 hc        1 1OD      0.058700
     71 H26         1.0780   -0.6910    0.9260 hc        1 1OD      0.058700
     72 H27         2.5220   -2.4500    2.4450 h1        1 1OD      0.064200
     73 H28         0.9530   -3.3880    2.4200 h1        1 1OD      0.064200
     74 H29         2.6500   -2.6790    0.0900 hn        1 1OD      0.317000
     75 H30         0.3700   -6.4020   -0.4760 ho        1 1OD      0.469000
     76 H31         1.1730   -7.8350   -3.1580 ho        1 1OD      0.441500
     77 H32         2.6080   -5.3000   -5.1500 ha        1 1OD      0.157000
     78 H33         2.8790   -2.9570   -4.2930 ha        1 1OD      0.144500
     79 H34         2.1710   -2.3730   -1.9970 ha        1 1OD      0.138000
@<TRIPOS>BOND
     1    1    2 2   
     2    2    3 1   
     3    2   11 1   
     4    3    4 ar  
     5    3    9 ar  
     6    4    5 ar  
     7    4   46 1   
     8    5    6 ar  
     9    5   47 1   
    10    6    7 ar  
    11    6   48 1   
    12    7    8 1   
    13    7    9 ar  
    14    8   49 1   
    15    9   10 1   
    16   10   50 1   
    17   11   12 1   
    18   11   51 1   
    19   12   13 1   
    20   12   52 1   
    21   12   53 1   
    22   13   14 1   
    23   13   54 1   
    24   13   55 1   
    25   14   15 1   
    26   14   56 1   
    27   14   57 1   
    28   15   16 1   
    29   15   32 1   
    30   16   17 2   
    31   16   18 1   
    32   18   19 1   
    33   18   22 1   
    34   18   58 1   
    35   19   20 1   
    36   19   21 1   
    37   19   59 1   
    38   20   60 1   
    39   20   61 1   
    40   20   62 1   
    41   21   23 1   
    42   22   23 2   
    43   23   24 1   
    44   24   25 ar  
    45   24   31 ar  
    46   25   26 1   
    47   25   27 ar  
    48   26   63 1   
    49   27   28 1   
    50   27   29 ar  
    51   28   64 1   
    52   29   30 ar  
    53   29   65 1   
    54   30   31 ar  
    55   30   66 1   
    56   31   67 1   
    57   32   33 1   
    58   32   68 1   
    59   32   69 1   
    60   33   34 1   
    61   33   70 1   
    62   33   71 1   
    63   34   35 1   
    64   34   72 1   
    65   34   73 1   
    66   35   36 1   
    67   35   74 1   
    68   36   37 2   
    69   36   38 1   
    70   38   39 ar  
    71   38   45 ar  
    72   39   40 1   
    73   39   41 ar  
    74   40   75 1   
    75   41   42 1   
    76   41   43 ar  
    77   42   76 1   
    78   43   44 ar  
    79   43   77 1   
    80   44   45 ar  
    81   44   78 1   
    82   45   79 1   
@<TRIPOS>SUBSTRUCTURE
     1 1OD         1 TEMP              0 ****  ****    0 ROOT
