@<TRIPOS>MOLECULE
1OD
   79    68     1     0     0
SMALL
bcc


@<TRIPOS>ATOM
      1 O34        -3.3360    0.1350    4.9220 o         1 1OD     -0.390500
      2 C33        -3.2980    0.3960    3.7100 c1        1 1OD      0.353000
      3 C35        -4.4380    1.2370    3.0590 c1        1 1OD     -0.125000
      4 C40        -4.3670    1.5790    1.7150 c1        1 1OD     -0.110000
      5 C39        -5.3450    2.3910    1.1530 c1        1 1OD     -0.110000
      6 C38        -6.3900    2.8590    1.9360 c1        1 1OD     -0.148000
      7 C37        -6.4600    2.5150    3.2830 c1        1 1OD     -0.015000
      8 O41        -7.5590    2.9630    4.0750 o         1 1OD     -0.259800
      9 C36        -5.4870    1.7070    3.8430 c2        1 1OD      0.097000
     10 O42        -5.5290    1.4020    5.2060 oh        1 1OD     -0.260000
     11 N32        -2.1500   -0.0360    2.9030 n3        1 1OD     -0.353000
     12 C31        -0.9210   -0.5250    3.5650 c3        1 1OD     -0.026000
     13 C30         0.0690   -1.0820    2.4870 c3        1 1OD     -0.210000
     14 C29         1.5290   -0.6700    2.8520 c3        1 1OD     -0.025000
     15 N14         2.3550   -0.7110    1.6540 n         1 1OD     -0.316000
     16 C12         2.8330   -1.9710    1.1530 c2        1 1OD      0.318000
     17 O13         3.5290   -2.6800    1.8580 o         1 1OD     -0.377000
     18 C10         2.3370   -2.4930   -0.2090 c3        1 1OD     -0.095000
     19 C9          1.3410   -3.7580    0.0110 c3        1 1OD     -0.003000
     20 C43         0.0880   -3.4830   -0.4900 c3        1 1OD     -0.224000
     21 O8          1.9560   -4.8460   -0.7370 os        1 1OD     -0.218000
     22 N11         3.2320   -3.0360   -0.7890 n2        1 1OD     -0.225000
     23 C7          2.8820   -4.3120   -1.3190 c1        1 1OD      0.159000
     24 C1          3.9410   -5.1710   -2.0180 c1        1 1OD     -0.082000
     25 C6          3.7470   -5.5780   -3.3370 c1        1 1OD      0.102000
     26 O44         2.6080   -5.1320   -4.0560 o         1 1OD     -0.259800
     27 C5          4.6610   -6.4430   -3.9440 c1        1 1OD     -0.018500
     28 O45         4.4360   -6.8980   -5.2640 o         1 1OD     -0.259800
     29 C4          5.7720   -6.9000   -3.2270 c2        1 1OD     -0.150000
     30 C3          5.9670   -6.4940   -1.9090 c1        1 1OD     -0.140500
     31 C2          5.0520   -5.6290   -1.3020 c1        1 1OD     -0.078500
     32 C15         2.7720    0.5180    1.0230 c3        1 1OD     -0.025000
     33 C16         1.5420    1.4450    0.8290 c3        1 1OD     -0.210000
     34 C17         1.9220    2.6280   -0.1030 c3        1 1OD     -0.026000
     35 N18         0.6840    3.3300   -0.5350 n3        1 1OD     -0.353000
     36 C19         0.7350    4.2930   -1.5920 c1        1 1OD      0.353000
     37 O20         1.8060    4.6470   -2.0350 o         1 1OD     -0.390500
     38 C21        -0.5730    4.9990   -2.0620 c1        1 1OD     -0.082000
     39 C26        -1.1960    4.5980   -3.2380 c1        1 1OD      0.102000
     40 O27        -0.6100    3.5810   -4.0430 o         1 1OD     -0.259800
     41 C25        -2.4080    5.1610   -3.6060 c1        1 1OD     -0.018500
     42 O28        -3.0760    4.6960   -4.7400 o         1 1OD     -0.259800
     43 C24        -2.9980    6.1230   -2.8030 c2        1 1OD     -0.150000
     44 C23        -2.3760    6.5230   -1.6300 c1        1 1OD     -0.140500
     45 C22        -1.1630    5.9600   -1.2600 c1        1 1OD     -0.078500
     46 H1         -3.6420    1.2530    1.1730 ha        1 1OD      0.156500
     47 H2         -5.2960    2.6350    0.2010 ha        1 1OD      0.156500
     48 H3         -7.0660    3.4190    1.5480 ha        1 1OD      0.139000
     49 H4         -8.1890    2.3250    4.1020 ho        1 1OD      0.233800
     50 H5         -5.4050    2.1420    5.6790 ho        1 1OD      0.248000
     51 H6         -2.1850    0.0250    1.9880 hn        1 1OD      0.247000
     52 H7         -0.4980    0.2120    4.0460 h1        1 1OD      0.100000
     53 H8         -1.1540   -1.2470    4.2040 h1        1 1OD      0.100000
     54 H9          0.0050   -2.0590    2.4580 hc        1 1OD      0.095750
     55 H10        -0.1660   -0.7120    1.6070 hc        1 1OD      0.095750
     56 H11         1.5310    0.2480    3.2240 h1        1 1OD      0.102000
     57 H12         1.8930   -1.3000    3.5240 h1        1 1OD      0.102000
     58 H13         1.9500   -1.6550   -0.6140 h1        1 1OD      0.137000
     59 H14         1.2850   -3.9900    0.9770 h1        1 1OD      0.148000
     60 H15         0.1570   -2.7840   -1.1870 hc        1 1OD      0.090667
     61 H16        -0.4810   -3.1720    0.2200 hc        1 1OD      0.090667
     62 H17        -0.2920   -4.2960   -0.8800 hc        1 1OD      0.090667
     63 H18         2.8320   -4.4320   -4.5630 ho        1 1OD      0.233800
     64 H19         5.0730   -6.5840   -5.7980 ho        1 1OD      0.233800
     65 H20         6.4260   -7.5190   -3.6610 ha        1 1OD      0.137000
     66 H21         6.7510   -6.8160   -1.4040 ha        1 1OD      0.141500
     67 H22         5.1880   -5.3430   -0.3670 ha        1 1OD      0.160000
     68 H23         3.1750    0.3140    0.1390 h1        1 1OD      0.102000
     69 H24         3.4470    0.9750    1.5970 h1        1 1OD      0.102000
     70 H25         1.2570    1.7910    1.6910 hc        1 1OD      0.095750
     71 H26         0.8170    0.9390    0.4290 hc        1 1OD      0.095750
     72 H27         2.5110    3.2640    0.3870 h1        1 1OD      0.100000
     73 H28         2.4000    2.2810   -0.8940 h1        1 1OD      0.100000
     74 H29        -0.1210    3.1760   -0.0840 hn        1 1OD      0.247000
     75 H30        -0.1380    3.9600   -4.7090 ho        1 1OD      0.233800
     76 H31        -2.8180    5.1630   -5.4460 ho        1 1OD      0.233800
     77 H32        -3.8380    6.5130   -3.0580 ha        1 1OD      0.137000
     78 H33        -2.7910    7.1990   -1.0660 ha        1 1OD      0.141500
     79 H34        -0.7350    6.2360   -0.4520 ha        1 1OD      0.160000
@<TRIPOS>BOND
     1    1    2 1   
     2    2   11 1   
     3    3    9 1   
     4    4    5 1   
     5    4   46 1   
     6    5   47 1   
     7    6    7 1   
     8    6   48 1   
     9    7    9 1   
    10    8   49 1   
    11    9   10 1   
    12   10   50 1   
    13   11   12 1   
    14   11   51 1   
    15   12   13 1   
    16   12   52 1   
    17   12   53 1   
    18   13   14 1   
    19   13   54 1   
    20   13   55 1   
    21   14   15 1   
    22   14   56 1   
    23   14   57 1   
    24   15   16 1   
    25   15   32 1   
    26   16   17 1   
    27   16   18 1   
    28   18   19 1   
    29   18   22 1   
    30   18   58 1   
    31   19   20 1   
    32   19   21 1   
    33   19   59 1   
    34   20   60 1   
    35   20   61 1   
    36   20   62 1   
    37   21   23 1   
    38   22   23 1   
    39   24   31 1   
    40   25   27 1   
    41   26   63 1   
    42   27   29 1   
    43   28   64 1   
    44   29   30 1   
    45   29   65 1   
    46   30   66 1   
    47   31   67 1   
    48   32   33 1   
    49   32   68 1   
    50   32   69 1   
    51   33   34 1   
    52   33   70 1   
    53   33   71 1   
    54   34   35 1   
    55   34   72 1   
    56   34   73 1   
    57   35   36 1   
    58   35   74 1   
    59   36   37 1   
    60   38   45 1   
    61   39   41 1   
    62   40   75 1   
    63   41   43 1   
    64   42   76 1   
    65   43   44 1   
    66   43   77 1   
    67   44   78 1   
    68   45   79 1   
@<TRIPOS>SUBSTRUCTURE
     1 1OD         1 TEMP              0 ****  ****    0 ROOT
