@<TRIPOS>MOLECULE
1OD
   82    85     1     0     0
SMALL
bcc


@<TRIPOS>ATOM
      1 O34         1.7760   -1.2700   -1.2230 o         1 1OD     -0.485600
      2 C33         1.1580   -0.6510   -0.3640 c         1 1OD      0.604700
      3 C35         0.9710   -0.9830    1.0380 ca        1 1OD     -0.222100
      4 C40         1.2860   -2.3150    1.4050 ca        1 1OD     -0.051000
      5 C39         1.1490   -2.7410    2.7170 ca        1 1OD     -0.110500
      6 C38         0.7050   -1.8640    3.7110 ca        1 1OD     -0.079000
      7 C37         0.3990   -0.5440    3.3730 ca        1 1OD      0.065600
      8 O41        -0.0370    0.4090    4.2600 oh        1 1OD     -0.505100
      9 C36         0.5270   -0.0920    2.0380 ca        1 1OD      0.159100
     10 O42         0.2380    1.2050    1.6950 oh        1 1OD     -0.560100
     11 N32         0.4870    0.6280   -0.8680 n4        1 1OD     -0.682300
     12 C31         0.2620    0.6830   -2.3350 c3        1 1OD      0.122300
     13 C30         1.5150    0.9670   -3.1710 c3        1 1OD     -0.116900
     14 C29         1.0650    1.1510   -4.6190 c3        1 1OD      0.102800
     15 N14         2.1220    1.1160   -5.6770 n4        1 1OD     -0.596200
     16 C12         2.6670   -0.2840   -5.9620 c         1 1OD      0.545100
     17 O13         2.4760   -1.1360   -5.1130 o         1 1OD     -0.396100
     18 C10         3.3840   -0.4420   -7.3030 c3        1 1OD      0.037500
     19 C9          3.1150   -1.8720   -7.9010 c3        1 1OD      0.124100
     20 C43         2.4930   -1.8290   -9.2720 c3        1 1OD     -0.125100
     21 O8          4.4570   -2.4340   -8.0020 os        1 1OD     -0.392400
     22 N11         4.8290   -0.3540   -7.1250 n2        1 1OD     -0.787900
     23 C7          5.3680   -1.4950   -7.5340 ce        1 1OD      0.778200
     24 C1          6.7630   -1.9050   -7.6110 ca        1 1OD     -0.187900
     25 C6          7.7380   -1.4400   -6.7110 ca        1 1OD      0.125100
     26 O44         7.3930   -0.5490   -5.7160 oh        1 1OD     -0.564100
     27 C5          9.0730   -1.8860   -6.8360 ca        1 1OD      0.060100
     28 O45         9.9480   -1.3650   -5.9110 oh        1 1OD     -0.518100
     29 C4          9.4340   -2.7880   -7.8420 ca        1 1OD     -0.104000
     30 C3          8.4590   -3.2450   -8.7290 ca        1 1OD     -0.102000
     31 C2          7.1400   -2.8150   -8.6170 ca        1 1OD     -0.064000
     32 C15         3.2230    2.1160   -5.5030 c3        1 1OD      0.102800
     33 C16         4.3850    1.7060   -4.6040 c3        1 1OD     -0.116900
     34 C17         5.6460    2.4950   -4.9550 c3        1 1OD      0.122300
     35 N18         6.3680    2.0120   -6.1680 n4        1 1OD     -0.682300
     36 C19         6.3060    3.0070   -7.3080 c         1 1OD      0.604700
     37 O20         5.1880    3.1100   -7.8120 o         1 1OD     -0.485600
     38 C21         7.5230    3.6920   -7.7130 ca        1 1OD     -0.222100
     39 C26         8.6430    3.9170   -6.8860 ca        1 1OD      0.159100
     40 O27         8.6190    3.4670   -5.5900 oh        1 1OD     -0.560100
     41 C25         9.7590    4.6230   -7.3970 ca        1 1OD      0.065600
     42 O28        10.7960    4.7770   -6.5090 oh        1 1OD     -0.505100
     43 C24         9.7620    5.1010   -8.7090 ca        1 1OD     -0.079000
     44 C23         8.6440    4.8830   -9.5200 ca        1 1OD     -0.110500
     45 C22         7.5410    4.1980   -9.0350 ca        1 1OD     -0.051000
     46 H1          1.6430   -3.0140    0.6290 ha        1 1OD      0.173000
     47 H2          1.3930   -3.7860    2.9830 ha        1 1OD      0.187000
     48 H3          0.5970   -2.2110    4.7540 ha        1 1OD      0.185500
     49 H4         -0.1030    0.0130    5.1450 ho        1 1OD      0.471500
     50 H5         -0.0220    1.6990    2.4980 ho        1 1OD      0.497500
     51 H6          1.0560    1.4240   -0.5510 hn        1 1OD      0.486800
     52 H7         -0.5090    1.4870   -2.5250 hx        1 1OD      0.115950
     53 H8         -0.1690   -0.3160   -2.6450 hx        1 1OD      0.115950
     54 H9          2.2300    0.1020   -3.0790 hc        1 1OD      0.094450
     55 H10         2.0310    1.8950   -2.8100 hc        1 1OD      0.094450
     56 H11         0.5370    2.1470   -4.7150 hx        1 1OD      0.117950
     57 H12         0.3330    0.3280   -4.8800 hx        1 1OD      0.117950
     58 H13         3.0440    0.3530   -8.0270 h1        1 1OD      0.111700
     59 H14         2.5570   -2.5430   -7.1950 h1        1 1OD      0.113700
     60 H15         2.5030   -2.8570   -9.7180 hc        1 1OD      0.080700
     61 H16         1.4340   -1.4840   -9.1990 hc        1 1OD      0.080700
     62 H17         3.0580   -1.1510   -9.9560 hc        1 1OD      0.080700
     63 H18         8.0450   -0.6550   -4.9990 ho        1 1OD      0.463000
     64 H19        10.7830   -1.8590   -5.9630 ho        1 1OD      0.463000
     65 H20        10.4770   -3.1340   -7.9300 ha        1 1OD      0.178000
     66 H21         8.7360   -3.9600   -9.5240 ha        1 1OD      0.183000
     67 H22         6.3750   -3.1940   -9.3170 ha        1 1OD      0.174000
     68 H23         3.6170    2.3290   -6.5470 hx        1 1OD      0.117950
     69 H24         2.7570    3.0640   -5.1050 hx        1 1OD      0.117950
     70 H25         4.1360    1.9500   -3.5340 hc        1 1OD      0.094450
     71 H26         4.5890    0.6020   -4.6460 hc        1 1OD      0.094450
     72 H27         6.3630    2.4250   -4.0840 hx        1 1OD      0.115950
     73 H28         5.3890    3.5850   -5.0990 hx        1 1OD      0.115950
     74 H29         5.9560    1.1070   -6.4930 hn        1 1OD      0.486800
     75 H30         9.4500    3.7270   -5.1490 ho        1 1OD      0.497500
     76 H31        11.4880    5.3200   -6.9230 ho        1 1OD      0.471500
     77 H32        10.6360    5.6510   -9.0990 ha        1 1OD      0.185500
     78 H33         8.6420    5.2670  -10.5560 ha        1 1OD      0.187000
     79 H34         6.6590    4.0400   -9.6800 ha        1 1OD      0.173000
     80 H322       -0.4250    0.7090   -0.3870 hn        1 1OD      0.486800
     81 H141        1.6310    1.3980   -6.5450 hn        1 1OD      0.470800
     82 H182        7.3520    1.8200   -5.9240 hn        1 1OD      0.486800
@<TRIPOS>BOND
     1    1    2 2   
     2    2    3 1   
     3    2   11 1   
     4    3    4 ar  
     5    3    9 ar  
     6    4    5 ar  
     7    4   46 1   
     8    5    6 ar  
     9    5   47 1   
    10    6    7 ar  
    11    6   48 1   
    12    7    8 1   
    13    7    9 ar  
    14    8   49 1   
    15    9   10 1   
    16   10   50 1   
    17   11   12 1   
    18   11   51 1   
    19   11   80 1   
    20   12   13 1   
    21   12   52 1   
    22   12   53 1   
    23   13   14 1   
    24   13   54 1   
    25   13   55 1   
    26   14   15 1   
    27   14   56 1   
    28   14   57 1   
    29   15   16 1   
    30   15   32 1   
    31   15   81 1   
    32   16   17 2   
    33   16   18 1   
    34   18   19 1   
    35   18   22 1   
    36   18   58 1   
    37   19   20 1   
    38   19   21 1   
    39   19   59 1   
    40   20   60 1   
    41   20   61 1   
    42   20   62 1   
    43   21   23 1   
    44   22   23 2   
    45   23   24 1   
    46   24   25 ar  
    47   24   31 ar  
    48   25   26 1   
    49   25   27 ar  
    50   26   63 1   
    51   27   28 1   
    52   27   29 ar  
    53   28   64 1   
    54   29   30 ar  
    55   29   65 1   
    56   30   31 ar  
    57   30   66 1   
    58   31   67 1   
    59   32   33 1   
    60   32   68 1   
    61   32   69 1   
    62   33   34 1   
    63   33   70 1   
    64   33   71 1   
    65   34   35 1   
    66   34   72 1   
    67   34   73 1   
    68   35   36 1   
    69   35   74 1   
    70   35   82 1   
    71   36   37 2   
    72   36   38 1   
    73   38   39 ar  
    74   38   45 ar  
    75   39   40 1   
    76   39   41 ar  
    77   40   75 1   
    78   41   42 1   
    79   41   43 ar  
    80   42   76 1   
    81   43   44 ar  
    82   43   77 1   
    83   44   45 ar  
    84   44   78 1   
    85   45   79 1   
@<TRIPOS>SUBSTRUCTURE
     1 1OD         1 TEMP              0 ****  ****    0 ROOT
