@<TRIPOS>MOLECULE
1OD
   82    85     1     0     0
SMALL
bcc


@<TRIPOS>ATOM
      1 O34         0.5840   -1.3860   -1.5120 o         1 1OD     -0.485600
      2 C33         0.5460   -0.7560   -0.4610 c         1 1OD      0.604200
      3 C35         0.3470   -1.2510    0.8890 ca        1 1OD     -0.221600
      4 C40        -0.0630   -2.6030    0.9920 ca        1 1OD     -0.050000
      5 C39        -0.2870   -3.1870    2.2300 ca        1 1OD     -0.110500
      6 C38        -0.1050   -2.4550    3.4080 ca        1 1OD     -0.078000
      7 C37         0.3080   -1.1230    3.3300 ca        1 1OD      0.064600
      8 O41         0.5290   -0.3090    4.4130 oh        1 1OD     -0.505100
      9 C36         0.5370   -0.5100    2.0750 ca        1 1OD      0.159600
     10 O42         0.9510    0.7960    1.9900 oh        1 1OD     -0.560600
     11 N32         0.7140    0.7570   -0.6310 n4        1 1OD     -0.682300
     12 C31         0.5420    1.2470   -2.0230 c3        1 1OD      0.120800
     13 C30         1.7600    1.0310   -2.9290 c3        1 1OD     -0.117400
     14 C29         1.3030    1.2520   -4.3680 c3        1 1OD      0.103300
     15 N14         2.3300    1.1590   -5.4520 n4        1 1OD     -0.596200
     16 C12         2.9080   -0.2400   -5.6600 c         1 1OD      0.547100
     17 O13         2.8280   -1.0240   -4.7330 o         1 1OD     -0.398100
     18 C10         3.5270   -0.4860   -7.0380 c3        1 1OD      0.036500
     19 C9          3.2630   -1.9670   -7.5000 c3        1 1OD      0.124100
     20 C43         2.5410   -2.0520   -8.8180 c3        1 1OD     -0.124100
     21 O8          4.6120   -2.4980   -7.6570 os        1 1OD     -0.392400
     22 N11         4.9770   -0.3440   -6.9760 n2        1 1OD     -0.787900
     23 C7          5.5230   -1.4990   -7.3340 ce        1 1OD      0.778200
     24 C1          6.9220   -1.8750   -7.4840 ca        1 1OD     -0.187900
     25 C6          7.9430   -1.3160   -6.6950 ca        1 1OD      0.125100
     26 O44         7.6400   -0.3610   -5.7450 oh        1 1OD     -0.564100
     27 C5          9.2800   -1.7320   -6.8860 ca        1 1OD      0.061100
     28 O45        10.2010   -1.1170   -6.0700 oh        1 1OD     -0.517100
     29 C4          9.5970   -2.6970   -7.8470 ca        1 1OD     -0.104000
     30 C3          8.5770   -3.2480   -8.6220 ca        1 1OD     -0.102000
     31 C2          7.2560   -2.8490   -8.4440 ca        1 1OD     -0.064000
     32 C15         3.4030    2.2030   -5.4000 c3        1 1OD      0.103300
     33 C16         4.6420    1.8850   -4.5690 c3        1 1OD     -0.117400
     34 C17         5.8500    2.6760   -5.0720 c3        1 1OD      0.120800
     35 N18         6.4930    2.1270   -6.3000 n4        1 1OD     -0.682300
     36 C19         6.3170    3.0380   -7.4970 c         1 1OD      0.604200
     37 O20         5.1630    3.0700   -7.9260 o         1 1OD     -0.485600
     38 C21         7.4770    3.7310   -8.0330 ca        1 1OD     -0.221600
     39 C26         8.6430    4.0460   -7.3060 ca        1 1OD      0.159600
     40 O27         8.7260    3.6840   -5.9840 oh        1 1OD     -0.560600
     41 C25         9.6950    4.7490   -7.9410 ca        1 1OD      0.064600
     42 O28        10.7850    4.9950   -7.1410 oh        1 1OD     -0.505100
     43 C24         9.5890    5.1380   -9.2770 ca        1 1OD     -0.078000
     44 C23         8.4260    4.8310   -9.9900 ca        1 1OD     -0.110500
     45 C22         7.3850    4.1460   -9.3830 ca        1 1OD     -0.050000
     46 H1         -0.2070   -3.1920    0.0690 ha        1 1OD      0.174000
     47 H2         -0.6130   -4.2410    2.2900 ha        1 1OD      0.187500
     48 H3         -0.2860   -2.9260    4.3910 ha        1 1OD      0.185500
     49 H4          0.3260   -0.8020    5.2270 ho        1 1OD      0.471500
     50 H5          1.0450    1.1630    2.8900 ho        1 1OD      0.497000
     51 H6          1.6380    1.0120   -0.2610 hn        1 1OD      0.486800
     52 H7          0.3050    2.3500   -1.9680 hx        1 1OD      0.116200
     53 H8         -0.3530    0.7080   -2.4570 hx        1 1OD      0.116200
     54 H9          2.5750    1.7500   -2.6540 hc        1 1OD      0.094700
     55 H10         2.1530   -0.0170   -2.8080 hc        1 1OD      0.094700
     56 H11         0.8340    2.2790   -4.4520 hx        1 1OD      0.117700
     57 H12         0.5180    0.4730   -4.6130 hx        1 1OD      0.117700
     58 H13         3.1090    0.2380   -7.7950 h1        1 1OD      0.110700
     59 H14         2.7810   -2.5930   -6.7020 h1        1 1OD      0.113700
     60 H15         3.0310   -1.4150   -9.5940 hc        1 1OD      0.080367
     61 H16         2.5540   -3.1120   -9.1810 hc        1 1OD      0.080367
     62 H17         1.4790   -1.7320   -8.6930 hc        1 1OD      0.080367
     63 H18         8.3470   -0.3920   -5.0750 ho        1 1OD      0.463000
     64 H19        11.0460   -1.5900   -6.1480 ho        1 1OD      0.463000
     65 H20        10.6430   -3.0190   -7.9870 ha        1 1OD      0.178000
     66 H21         8.8200   -4.0130   -9.3810 ha        1 1OD      0.182000
     67 H22         6.4560   -3.3010   -9.0560 ha        1 1OD      0.174000
     68 H23         3.7150    2.3780   -6.4790 hx        1 1OD      0.117700
     69 H24         2.9310    3.1550   -5.0160 hx        1 1OD      0.117700
     70 H25         4.8750    0.7860   -4.5510 hc        1 1OD      0.094700
     71 H26         4.4740    2.2010   -3.5030 hc        1 1OD      0.094700
     72 H27         5.5510    3.7470   -5.2690 hx        1 1OD      0.116200
     73 H28         6.6320    2.6860   -4.2550 hx        1 1OD      0.116200
     74 H29         7.4990    1.9780   -6.1200 hn        1 1OD      0.486800
     75 H30         9.5760    4.0000   -5.6220 ho        1 1OD      0.497000
     76 H31        11.4270    5.5310   -7.6380 ho        1 1OD      0.471500
     77 H32        10.4140    5.6860   -9.7650 ha        1 1OD      0.185500
     78 H33         8.3380    5.1430  -11.0460 ha        1 1OD      0.187500
     79 H34         6.4660    3.9170   -9.9510 ha        1 1OD      0.174000
     80 H322        0.0150    1.2150   -0.0220 hn        1 1OD      0.486800
     81 H141        1.8000    1.3620   -6.3200 hn        1 1OD      0.469800
     82 H182        6.0860    1.1910   -6.5300 hn        1 1OD      0.486800
@<TRIPOS>BOND
     1    1    2 2   
     2    2    3 1   
     3    2   11 1   
     4    3    4 ar  
     5    3    9 ar  
     6    4    5 ar  
     7    4   46 1   
     8    5    6 ar  
     9    5   47 1   
    10    6    7 ar  
    11    6   48 1   
    12    7    8 1   
    13    7    9 ar  
    14    8   49 1   
    15    9   10 1   
    16   10   50 1   
    17   11   12 1   
    18   11   51 1   
    19   11   80 1   
    20   12   13 1   
    21   12   52 1   
    22   12   53 1   
    23   13   14 1   
    24   13   54 1   
    25   13   55 1   
    26   14   15 1   
    27   14   56 1   
    28   14   57 1   
    29   15   16 1   
    30   15   32 1   
    31   15   81 1   
    32   16   17 2   
    33   16   18 1   
    34   18   19 1   
    35   18   22 1   
    36   18   58 1   
    37   19   20 1   
    38   19   21 1   
    39   19   59 1   
    40   20   60 1   
    41   20   61 1   
    42   20   62 1   
    43   21   23 1   
    44   22   23 2   
    45   23   24 1   
    46   24   25 ar  
    47   24   31 ar  
    48   25   26 1   
    49   25   27 ar  
    50   26   63 1   
    51   27   28 1   
    52   27   29 ar  
    53   28   64 1   
    54   29   30 ar  
    55   29   65 1   
    56   30   31 ar  
    57   30   66 1   
    58   31   67 1   
    59   32   33 1   
    60   32   68 1   
    61   32   69 1   
    62   33   34 1   
    63   33   70 1   
    64   33   71 1   
    65   34   35 1   
    66   34   72 1   
    67   34   73 1   
    68   35   36 1   
    69   35   74 1   
    70   35   82 1   
    71   36   37 2   
    72   36   38 1   
    73   38   39 ar  
    74   38   45 ar  
    75   39   40 1   
    76   39   41 ar  
    77   40   75 1   
    78   41   42 1   
    79   41   43 ar  
    80   42   76 1   
    81   43   44 ar  
    82   43   77 1   
    83   44   45 ar  
    84   44   78 1   
    85   45   79 1   
@<TRIPOS>SUBSTRUCTURE
     1 1OD         1 TEMP              0 ****  ****    0 ROOT
