@<TRIPOS>MOLECULE
1OD
   82    85     1     0     0
SMALL
bcc


@<TRIPOS>ATOM
      1 O34         4.5320   -1.0160   -0.7970 o         1 1OD     -0.452600
      2 C33         3.4740   -1.6120   -0.6290 c         1 1OD      0.600200
      3 C35         2.7280   -1.7950    0.6080 ca        1 1OD     -0.219100
      4 C40         3.4790   -1.7740    1.8050 ca        1 1OD     -0.049000
      5 C39         2.8540   -1.9290    3.0350 ca        1 1OD     -0.108500
      6 C38         1.4690   -2.0940    3.1160 ca        1 1OD     -0.080500
      7 C37         0.7090   -2.1000    1.9440 ca        1 1OD      0.067100
      8 O41        -0.6560   -2.2440    1.9000 oh        1 1OD     -0.506600
      9 C36         1.3300   -1.9510    0.6820 ca        1 1OD      0.151100
     10 O42         0.5980   -1.9300   -0.4800 oh        1 1OD     -0.565100
     11 N32         2.9290   -2.2780   -1.8870 ny        1 1OD     -0.677300
     12 C31         2.4610   -1.2880   -2.8970 c3        1 1OD      0.119300
     13 C30         3.5930   -0.4630   -3.5120 c3        1 1OD     -0.132900
     14 C29         3.0800    0.2200   -4.7770 c3        1 1OD      0.119300
     15 N14         4.1780    0.8550   -5.5930 nx        1 1OD     -0.595200
     16 C12         4.0580    0.3930   -7.0530 c         1 1OD      0.549100
     17 O13         3.4150    1.1100   -7.7990 o         1 1OD     -0.407100
     18 C10         4.8120   -0.8810   -7.4080 c3        1 1OD      0.020500
     19 C9          4.1150   -1.6570   -8.5830 c3        1 1OD      0.129100
     20 C43         5.0030   -1.8080   -9.7900 c3        1 1OD     -0.122100
     21 O8          3.8730   -2.9710   -7.9990 os        1 1OD     -0.412400
     22 N11         4.9090   -1.8300   -6.3070 n2        1 1OD     -0.729900
     23 C7          4.3880   -2.9790   -6.7010 ce        1 1OD      0.738200
     24 C1          4.2630   -4.2490   -5.9940 ca        1 1OD     -0.160900
     25 C6          4.5570   -4.3820   -4.6250 ca        1 1OD      0.093100
     26 O44         4.9370   -3.2990   -3.8530 oh        1 1OD     -0.560100
     27 C5          4.4080   -5.6350   -3.9930 ca        1 1OD      0.062100
     28 O45         4.6700   -5.6350   -2.6410 oh        1 1OD     -0.528100
     29 C4          4.0030   -6.7610   -4.7190 ca        1 1OD     -0.113000
     30 C3          3.7210   -6.6220   -6.0770 ca        1 1OD     -0.093000
     31 C2          3.8390   -5.3830   -6.7070 ca        1 1OD     -0.068000
     32 C15         4.1370    2.3450   -5.4680 c3        1 1OD      0.119300
     33 C16         5.3130    3.0610   -6.1340 c3        1 1OD     -0.132900
     34 C17         5.1090    4.5640   -5.9460 c3        1 1OD      0.119300
     35 N18         6.1350    5.3980   -6.6190 ny        1 1OD     -0.677300
     36 C19         5.9260    6.9050   -6.3890 c         1 1OD      0.600200
     37 O20         4.9920    7.1710   -5.6440 o         1 1OD     -0.452600
     38 C21         6.8360    7.8090   -7.0700 ca        1 1OD     -0.219100
     39 C26         7.9440    7.4370   -7.8600 ca        1 1OD      0.151100
     40 O27         8.2290    6.1040   -8.0370 oh        1 1OD     -0.565100
     41 C25         8.7450    8.4370   -8.4580 ca        1 1OD      0.067100
     42 O28         9.7950    7.9600   -9.2050 oh        1 1OD     -0.506600
     43 C24         8.4530    9.7910   -8.2770 ca        1 1OD     -0.080500
     44 C23         7.3550   10.1550   -7.4930 ca        1 1OD     -0.108500
     45 C22         6.5590    9.1880   -6.8980 ca        1 1OD     -0.049000
     46 H1          4.5730   -1.6330    1.7520 ha        1 1OD      0.177000
     47 H2          3.4560   -1.9180    3.9610 ha        1 1OD      0.188000
     48 H3          0.9790   -2.2160    4.0980 ha        1 1OD      0.185000
     49 H4         -0.9940   -2.3350    2.8080 ho        1 1OD      0.470500
     50 H5         -0.3480   -2.0270   -0.2590 ho        1 1OD      0.495000
     51 H6          2.1310   -2.8780   -1.6320 hn        1 1OD      0.476800
     52 H7          1.9290   -1.8700   -3.7050 hx        1 1OD      0.116950
     53 H8          1.7090   -0.6160   -2.3870 hx        1 1OD      0.116950
     54 H9          3.9510    0.3010   -2.7690 hc        1 1OD      0.096950
     55 H10         4.4670   -1.1360   -3.7540 hc        1 1OD      0.096950
     56 H11         2.3230    1.0130   -4.5110 hx        1 1OD      0.114200
     57 H12         2.5640   -0.5430   -5.4320 hx        1 1OD      0.114200
     58 H13         5.8480   -0.5450   -7.7170 h1        1 1OD      0.135700
     59 H14         3.1070   -1.2420   -8.8460 h1        1 1OD      0.108700
     60 H15         5.1360   -0.8170  -10.2870 hc        1 1OD      0.080367
     61 H16         6.0030   -2.2220   -9.5120 hc        1 1OD      0.080367
     62 H17         4.5260   -2.5120  -10.5190 hc        1 1OD      0.080367
     63 H18         5.7690   -3.5550   -3.4160 ho        1 1OD      0.457000
     64 H19         4.8180   -6.5540   -2.3590 ho        1 1OD      0.461000
     65 H20         3.9120   -7.7420   -4.2230 ha        1 1OD      0.178000
     66 H21         3.4020   -7.5030   -6.6610 ha        1 1OD      0.184000
     67 H22         3.6040   -5.2940   -7.7830 ha        1 1OD      0.181000
     68 H23         4.1190    2.5940   -4.3660 hx        1 1OD      0.114200
     69 H24         3.1710    2.7000   -5.9370 hx        1 1OD      0.114200
     70 H25         6.2840    2.7390   -5.6710 hc        1 1OD      0.096950
     71 H26         5.3450    2.8070   -7.2280 hc        1 1OD      0.096950
     72 H27         5.1260    4.8230   -4.8450 hx        1 1OD      0.116950
     73 H28         4.1010    4.8740   -6.3530 hx        1 1OD      0.116950
     74 H29         6.1310    5.2340   -7.6350 hn        1 1OD      0.476800
     75 H30         9.0340    6.0220   -8.5840 ho        1 1OD      0.495000
     76 H31        10.2960    8.7130   -9.5630 ho        1 1OD      0.470500
     77 H32         9.0850   10.5650   -8.7480 ha        1 1OD      0.185000
     78 H33         7.1210   11.2250   -7.3460 ha        1 1OD      0.188000
     79 H34         5.6940    9.4890   -6.2780 ha        1 1OD      0.177000
     80 H322        3.6730   -2.8690   -2.3000 hn        1 1OD      0.476800
     81 H141        5.0860    0.5180   -5.2400 hn        1 1OD      0.472800
     82 H182        7.0790    5.1610   -6.2850 hn        1 1OD      0.476800
@<TRIPOS>BOND
     1    1    2 2   
     2    2    3 1   
     3    2   11 1   
     4    3    4 ar  
     5    3    9 ar  
     6    4    5 ar  
     7    4   46 1   
     8    5    6 ar  
     9    5   47 1   
    10    6    7 ar  
    11    6   48 1   
    12    7    8 1   
    13    7    9 ar  
    14    8   49 1   
    15    9   10 1   
    16   10   50 1   
    17   11   12 1   
    18   11   51 1   
    19   11   80 1   
    20   12   13 1   
    21   12   52 1   
    22   12   53 1   
    23   13   14 1   
    24   13   54 1   
    25   13   55 1   
    26   14   15 1   
    27   14   56 1   
    28   14   57 1   
    29   15   16 1   
    30   15   32 1   
    31   15   81 1   
    32   16   17 2   
    33   16   18 1   
    34   18   19 1   
    35   18   22 1   
    36   18   58 1   
    37   19   20 1   
    38   19   21 1   
    39   19   59 1   
    40   20   60 1   
    41   20   61 1   
    42   20   62 1   
    43   21   23 1   
    44   22   23 2   
    45   23   24 1   
    46   24   25 ar  
    47   24   31 ar  
    48   25   26 1   
    49   25   27 ar  
    50   26   63 1   
    51   27   28 1   
    52   27   29 ar  
    53   28   64 1   
    54   29   30 ar  
    55   29   65 1   
    56   30   31 ar  
    57   30   66 1   
    58   31   67 1   
    59   32   33 1   
    60   32   68 1   
    61   32   69 1   
    62   33   34 1   
    63   33   70 1   
    64   33   71 1   
    65   34   35 1   
    66   34   72 1   
    67   34   73 1   
    68   35   36 1   
    69   35   74 1   
    70   35   82 1   
    71   36   37 2   
    72   36   38 1   
    73   38   39 ar  
    74   38   45 ar  
    75   39   40 1   
    76   39   41 ar  
    77   40   75 1   
    78   41   42 1   
    79   41   43 ar  
    80   42   76 1   
    81   43   44 ar  
    82   43   77 1   
    83   44   45 ar  
    84   44   78 1   
    85   45   79 1   
@<TRIPOS>SUBSTRUCTURE
     1 1OD         1 TEMP              0 ****  ****    0 ROOT
