@<TRIPOS>MOLECULE
1OG
   47    47     1     0     0
SMALL
bcc


@<TRIPOS>ATOM
      1 CAB         1.4230    0.0350   -1.0870 c3        1 1OG     -0.113433
      2 CBA         2.4380    1.1190   -0.7660 c3        1 1OG      0.173800
      3 CAC         3.0800    0.9020    0.5950 c3        1 1OG     -0.113433
      4 CAD         3.5070    1.1870   -1.8550 c3        1 1OG     -0.113433
      5 OAS         1.8200    2.4290   -0.8360 os        1 1OG     -0.422900
      6 CAW         0.8400    2.7810    0.0390 c         1 1OG      0.678100
      7 OAH         0.4080    1.9790    0.8680 o         1 1OG     -0.534000
      8 CAN         0.4020    4.2070   -0.1750 c3        1 1OG     -0.298900
      9 CAV        -1.1070    4.2240   -0.4040 c3        1 1OG     -0.243000
     10 CAL        -1.4400    3.5280   -1.7180 c         1 1OG      0.560900
     11 OAE        -2.1990    2.5600   -1.7490 o         1 1OG     -0.543100
     12 CAM        -1.6990    5.6090   -0.4890 c2        1 1OG      0.424200
     13 NAQ        -1.2460    6.6740   -1.0320 ne        1 1OG     -0.547300
     14 CAY        -0.0160    6.8030   -1.6800 ce        1 1OG      0.082400
     15 CAU        -0.0700    6.7830   -3.2410 c         1 1OG      0.934800
     16 OAK        -0.3150    5.6500   -3.7350 o         1 1OG     -0.788300
     17 OAG         0.1520    7.8500   -3.8520 o         1 1OG     -0.788300
     18 CAX         1.1680    6.9030   -1.0150 c2        1 1OG     -0.208400
     19 CAP         1.2550    6.7590    0.4560 c3        1 1OG     -0.239400
     20 SAZ         0.9530    5.2230    1.1530 s6        1 1OG      1.256000
     21 OAI         2.1710    4.6930    1.6250 o         1 1OG     -0.650300
     22 OAJ        -0.0670    5.3560    2.1120 o         1 1OG     -0.650300
     23 CAO         2.4340    7.1950   -1.7430 c3        1 1OG      0.196600
     24 OAR         3.0600    8.3180   -1.0730 os        1 1OG     -0.439900
     25 CAT         4.2810    8.7000   -1.5320 c         1 1OG      0.631100
     26 CAA         4.7780    9.9480   -0.8820 c3        1 1OG     -0.151100
     27 OAF         4.8510    8.0210   -2.3910 o         1 1OG     -0.555000
     28 H1          0.6460   -0.0210   -0.2870 hc        1 1OG      0.050589
     29 H2          0.9200    0.2570   -2.0590 hc        1 1OG      0.050589
     30 H3          1.9420   -0.9500   -1.1610 hc        1 1OG      0.050589
     31 H4          3.6650    1.8060    0.8880 hc        1 1OG      0.050589
     32 H5          2.2980    0.7180    1.3700 hc        1 1OG      0.050589
     33 H6          3.7630    0.0210    0.5480 hc        1 1OG      0.050589
     34 H7          4.0220    0.2010   -1.9240 hc        1 1OG      0.050589
     35 H8          4.2530    1.9800   -1.6110 hc        1 1OG      0.050589
     36 H9          3.0380    1.4310   -2.8380 hc        1 1OG      0.050589
     37 H10         0.8910    4.5530   -1.1420 h1        1 1OG      0.172700
     38 H11        -1.5970    3.6780    0.4540 hc        1 1OG      0.103700
     39 H12        -0.9680    3.9800   -2.6260 h4        1 1OG      0.095200
     40 H13        -2.7080    5.6850   -0.0320 h4        1 1OG      0.025800
     41 H16         0.5560    7.5130    0.9230 h1        1 1OG      0.129200
     42 H17         2.2880    7.0900    0.7730 h1        1 1OG      0.129200
     43 H18         3.1400    6.3240   -1.6960 h1        1 1OG      0.077200
     44 H19         4.4510   10.8220   -1.4960 hc        1 1OG      0.067033
     45 H20         5.8920    9.9230   -0.8350 hc        1 1OG      0.067033
     46 H21         4.3560   10.0510    0.1470 hc        1 1OG      0.067033
     47 H14         2.2480    7.4860   -2.8130 h1        1 1OG      0.077200
@<TRIPOS>BOND
     1    1    2 1   
     2    1   28 1   
     3    1   29 1   
     4    1   30 1   
     5    2    3 1   
     6    2    4 1   
     7    2    5 1   
     8    3   31 1   
     9    3   32 1   
    10    3   33 1   
    11    4   34 1   
    12    4   35 1   
    13    4   36 1   
    14    5    6 1   
    15    6    7 2   
    16    6    8 1   
    17    8    9 1   
    18    8   20 1   
    19    8   37 1   
    20    9   10 1   
    21    9   12 1   
    22    9   38 1   
    23   10   11 2   
    24   10   39 1   
    25   12   13 2   
    26   12   40 1   
    27   13   14 1   
    28   14   15 1   
    29   14   18 2   
    30   15   16 1   
    31   15   17 1   
    32   18   19 1   
    33   18   23 1   
    34   19   20 1   
    35   19   41 1   
    36   19   42 1   
    37   20   21 2   
    38   20   22 2   
    39   23   24 1   
    40   23   43 1   
    41   23   47 1   
    42   24   25 1   
    43   25   26 1   
    44   25   27 2   
    45   26   44 1   
    46   26   45 1   
    47   26   46 1   
@<TRIPOS>SUBSTRUCTURE
     1 1OG         1 TEMP              0 ****  ****    0 ROOT
