@<TRIPOS>MOLECULE
1OG
   47    47     1     0     0
SMALL
bcc


@<TRIPOS>ATOM
      1 CAB         1.4830    0.0300   -1.0080 c3        1 1OG     -0.113433
      2 CBA         2.4630    1.1300   -0.6340 c3        1 1OG      0.173800
      3 CAC         3.0050    0.9450    0.7730 c3        1 1OG     -0.113433
      4 CAD         3.6080    1.1890   -1.6440 c3        1 1OG     -0.113433
      5 OAS         1.8400    2.4320   -0.7740 os        1 1OG     -0.422900
      6 CAW         0.7950    2.7900    0.0190 c         1 1OG      0.678100
      7 OAH         0.3110    1.9990    0.8300 o         1 1OG     -0.534000
      8 CAN         0.3600    4.2070   -0.2540 c3        1 1OG     -0.298900
      9 CAV        -1.1280    4.2030   -0.5940 c3        1 1OG     -0.243000
     10 CAL        -1.3560    3.4790   -1.9160 c         1 1OG      0.560900
     11 OAE        -2.1010    2.5020   -1.9830 o         1 1OG     -0.543100
     12 CAM        -1.7250    5.5790   -0.7490 c2        1 1OG      0.424200
     13 NAQ        -1.2440    6.6390   -1.2780 ne        1 1OG     -0.547300
     14 CAY         0.0300    6.7700   -1.8360 ce        1 1OG      0.082400
     15 CAU         0.0910    6.7200   -3.3970 c         1 1OG      0.934800
     16 OAK        -0.1050    5.5760   -3.8850 o         1 1OG     -0.788300
     17 OAG         0.3470    7.7770   -4.0100 o         1 1OG     -0.788300
     18 CAX         1.1600    6.8950   -1.0880 c2        1 1OG     -0.208400
     19 CAP         1.1400    6.7790    0.3880 c3        1 1OG     -0.239400
     20 SAZ         0.8020    5.2540    1.0910 s6        1 1OG      1.256000
     21 OAI         1.9870    4.7460    1.6610 o         1 1OG     -0.650300
     22 OAJ        -0.2870    5.3940    1.9690 o         1 1OG     -0.650300
     23 CAO         2.4730    7.1880   -1.7260 c3        1 1OG      0.196600
     24 OAR         3.0370    8.3290   -1.0340 os        1 1OG     -0.439900
     25 CAT         4.2850    8.7170   -1.4090 c         1 1OG      0.631100
     26 CAA         4.7210    9.9820   -0.7490 c3        1 1OG     -0.151100
     27 OAF         4.9230    8.0290   -2.2120 o         1 1OG     -0.555000
     28 H1          1.0510    0.2290   -2.0180 hc        1 1OG      0.050589
     29 H2          2.0150   -0.9500   -1.0250 hc        1 1OG      0.050589
     30 H3          0.6510   -0.0190   -0.2650 hc        1 1OG      0.050589
     31 H4          3.6970    0.0700    0.7940 hc        1 1OG      0.050589
     32 H5          2.1700    0.7680    1.4930 hc        1 1OG      0.050589
     33 H6          3.5600    1.8600    1.0910 hc        1 1OG      0.050589
     34 H7          4.3270    1.9940   -1.3610 hc        1 1OG      0.050589
     35 H8          4.1360    0.2070   -1.6560 hc        1 1OG      0.050589
     36 H9          3.2090    1.4090   -2.6630 hc        1 1OG      0.050589
     37 H10         0.9160    4.5400   -1.1890 h1        1 1OG      0.172700
     38 H11        -1.6750    3.6680    0.2360 hc        1 1OG      0.103700
     39 H12        -0.8220    3.9190   -2.7950 h4        1 1OG      0.095200
     40 H13        -2.7660    5.6530   -0.3690 h4        1 1OG      0.025800
     41 H16         2.1430    7.1280    0.7740 h1        1 1OG      0.129200
     42 H17         0.4010    7.5340    0.7870 h1        1 1OG      0.129200
     43 H18         2.3640    7.4570   -2.8130 h1        1 1OG      0.077200
     44 H19         5.8290    9.9710   -0.6220 hc        1 1OG      0.067033
     45 H20         4.4300   10.8410   -1.4020 hc        1 1OG      0.067033
     46 H21         4.2250   10.0980    0.2440 hc        1 1OG      0.067033
     47 H14         3.1830    6.3250   -1.6110 h1        1 1OG      0.077200
@<TRIPOS>BOND
     1    1    2 1   
     2    1   28 1   
     3    1   29 1   
     4    1   30 1   
     5    2    3 1   
     6    2    4 1   
     7    2    5 1   
     8    3   31 1   
     9    3   32 1   
    10    3   33 1   
    11    4   34 1   
    12    4   35 1   
    13    4   36 1   
    14    5    6 1   
    15    6    7 2   
    16    6    8 1   
    17    8    9 1   
    18    8   20 1   
    19    8   37 1   
    20    9   10 1   
    21    9   12 1   
    22    9   38 1   
    23   10   11 2   
    24   10   39 1   
    25   12   13 2   
    26   12   40 1   
    27   13   14 1   
    28   14   15 1   
    29   14   18 2   
    30   15   16 1   
    31   15   17 1   
    32   18   19 1   
    33   18   23 1   
    34   19   20 1   
    35   19   41 1   
    36   19   42 1   
    37   20   21 2   
    38   20   22 2   
    39   23   24 1   
    40   23   43 1   
    41   23   47 1   
    42   24   25 1   
    43   25   26 1   
    44   25   27 2   
    45   26   44 1   
    46   26   45 1   
    47   26   46 1   
@<TRIPOS>SUBSTRUCTURE
     1 1OG         1 TEMP              0 ****  ****    0 ROOT
