@<TRIPOS>MOLECULE
1OG
   47    47     1     0     0
SMALL
bcc


@<TRIPOS>ATOM
      1 CAB         1.4120    0.0390   -1.1530 c3        1 1OG     -0.113433
      2 CBA         2.4010    1.1100   -0.7250 c3        1 1OG      0.173800
      3 CAC         2.9100    0.8730    0.6870 c3        1 1OG     -0.113433
      4 CAD         3.5690    1.1800   -1.7080 c3        1 1OG     -0.113433
      5 OAS         1.8030    2.4270   -0.8380 os        1 1OG     -0.422900
      6 CAW         0.7470    2.7780   -0.0560 c         1 1OG      0.678100
      7 OAH         0.2330    1.9720    0.7190 o         1 1OG     -0.534000
      8 CAN         0.3430    4.2100   -0.2940 c3        1 1OG     -0.298900
      9 CAV        -1.1370    4.2440   -0.6640 c3        1 1OG     -0.243000
     10 CAL        -1.3500    3.5640   -2.0120 c         1 1OG      0.560900
     11 OAE        -2.1100    2.6030   -2.1250 o         1 1OG     -0.543100
     12 CAM        -1.7070    5.6350   -0.7890 c2        1 1OG      0.424200
     13 NAQ        -1.1960    6.7020   -1.2740 ne        1 1OG     -0.547300
     14 CAY         0.0900    6.8260   -1.8020 ce        1 1OG      0.082400
     15 CAU         0.1830    6.8230   -3.3620 c         1 1OG      0.934800
     16 OAK        -0.0220    5.6980   -3.8890 o         1 1OG     -0.788300
     17 OAG         0.4710    7.8940   -3.9360 o         1 1OG     -0.788300
     18 CAX         1.2070    6.9080   -1.0280 c2        1 1OG     -0.208400
     19 CAP         1.1540    6.7480    0.4440 c3        1 1OG     -0.239400
     20 SAZ         0.7750    5.2080    1.0920 s6        1 1OG      1.256000
     21 OAI         1.9380    4.6620    1.6700 o         1 1OG     -0.650300
     22 OAJ        -0.3300    5.3400    1.9520 o         1 1OG     -0.650300
     23 CAO         2.5380    7.1970   -1.6290 c3        1 1OG      0.196600
     24 OAR         3.1070    8.3060   -0.8900 os        1 1OG     -0.439900
     25 CAT         4.3700    8.6820   -1.2270 c         1 1OG      0.631100
     26 CAA         4.8130    9.9180   -0.5190 c3        1 1OG     -0.151100
     27 OAF         5.0120    8.0070   -2.0370 o         1 1OG     -0.555000
     28 H1          1.9270   -0.9490   -1.1890 hc        1 1OG      0.050589
     29 H2          1.0050    0.2760   -2.1660 hc        1 1OG      0.050589
     30 H3          0.5620   -0.0180   -0.4300 hc        1 1OG      0.050589
     31 H4          2.0560    0.6880    1.3830 hc        1 1OG      0.050589
     32 H5          3.4720    1.7690    1.0450 hc        1 1OG      0.050589
     33 H6          3.5860   -0.0140    0.6960 hc        1 1OG      0.050589
     34 H7          3.1960    1.4390   -2.7270 hc        1 1OG      0.050589
     35 H8          4.2950    1.9630   -1.3840 hc        1 1OG      0.050589
     36 H9          4.0800    0.1900   -1.7390 hc        1 1OG      0.050589
     37 H10         0.9240    4.5630   -1.2060 h1        1 1OG      0.172700
     38 H11        -1.7110    3.6930    0.1380 hc        1 1OG      0.103700
     39 H12        -0.7900    4.0220   -2.8660 h4        1 1OG      0.095200
     40 H13        -2.7550    5.7150   -0.4280 h4        1 1OG      0.025800
     41 H16         2.1540    7.0660    0.8610 h1        1 1OG      0.129200
     42 H17         0.4200    7.5030    0.8510 h1        1 1OG      0.129200
     43 H18         3.2300    6.3180   -1.5260 h1        1 1OG      0.077200
     44 H19         5.9180    9.8810   -0.3660 hc        1 1OG      0.067033
     45 H20         4.5560   10.8020   -1.1530 hc        1 1OG      0.067033
     46 H21         4.2950   10.0150    0.4650 hc        1 1OG      0.067033
     47 H14         2.4560    7.5010   -2.7090 h1        1 1OG      0.077200
@<TRIPOS>BOND
     1    1    2 1   
     2    1   28 1   
     3    1   29 1   
     4    1   30 1   
     5    2    3 1   
     6    2    4 1   
     7    2    5 1   
     8    3   31 1   
     9    3   32 1   
    10    3   33 1   
    11    4   34 1   
    12    4   35 1   
    13    4   36 1   
    14    5    6 1   
    15    6    7 2   
    16    6    8 1   
    17    8    9 1   
    18    8   20 1   
    19    8   37 1   
    20    9   10 1   
    21    9   12 1   
    22    9   38 1   
    23   10   11 2   
    24   10   39 1   
    25   12   13 2   
    26   12   40 1   
    27   13   14 1   
    28   14   15 1   
    29   14   18 2   
    30   15   16 1   
    31   15   17 1   
    32   18   19 1   
    33   18   23 1   
    34   19   20 1   
    35   19   41 1   
    36   19   42 1   
    37   20   21 2   
    38   20   22 2   
    39   23   24 1   
    40   23   43 1   
    41   23   47 1   
    42   24   25 1   
    43   25   26 1   
    44   25   27 2   
    45   26   44 1   
    46   26   45 1   
    47   26   46 1   
@<TRIPOS>SUBSTRUCTURE
     1 1OG         1 TEMP              0 ****  ****    0 ROOT
