@<TRIPOS>MOLECULE
1OG
   47    47     1     0     0
SMALL
bcc


@<TRIPOS>ATOM
      1 CAB        -5.0350    0.8640   -1.0440 c3        1 1OG     -0.113433
      2 CBA        -4.0690   -0.2900   -1.2540 c3        1 1OG      0.173800
      3 CAC        -4.6020   -1.5840   -0.6620 c3        1 1OG     -0.113433
      4 CAD        -3.7660   -0.4680   -2.7410 c3        1 1OG     -0.113433
      5 OAS        -2.7690    0.0300   -0.6940 os        1 1OG     -0.422900
      6 CAW        -2.6150    0.2040    0.6460 c         1 1OG      0.678100
      7 OAH        -3.5800    0.1590    1.4090 o         1 1OG     -0.534000
      8 CAN        -1.1720    0.4540    1.0020 c3        1 1OG     -0.298900
      9 CAV        -1.0830    1.7650    1.7810 c3        1 1OG     -0.243000
     10 CAL        -1.4530    2.9320    0.8730 c         1 1OG      0.560900
     11 OAE        -2.3780    3.6910    1.1620 o         1 1OG     -0.543100
     12 CAM         0.2920    2.0620    2.3250 c2        1 1OG      0.424200
     13 NAQ         1.4480    1.8750    1.8100 ne        1 1OG     -0.547300
     14 CAY         1.7060    1.2940    0.5670 ce        1 1OG      0.082400
     15 CAU         2.0470    2.2910   -0.5870 c         1 1OG      0.934800
     16 OAK         1.0620    2.9580   -1.0010 o         1 1OG     -0.788300
     17 OAG         3.2230    2.3250   -1.0070 o         1 1OG     -0.788300
     18 CAX         1.6350   -0.0470    0.3440 c2        1 1OG     -0.208400
     19 CAP         1.1540   -0.9890    1.3810 c3        1 1OG     -0.239400
     20 SAZ        -0.4960   -0.9410    1.8370 s6        1 1OG      1.256000
     21 OAI        -1.1370   -2.0930    1.3390 o         1 1OG     -0.650300
     22 OAJ        -0.5740   -0.7530    3.2290 o         1 1OG     -0.650300
     23 CAO         2.0690   -0.6330   -0.9540 c3        1 1OG      0.196600
     24 OAR         2.9980   -1.7020   -0.6480 os        1 1OG     -0.439900
     25 CAT         3.4600   -2.4320   -1.6980 c         1 1OG      0.631100
     26 CAA         4.5170   -3.4080   -1.3040 c3        1 1OG     -0.151100
     27 OAF         2.9900   -2.2450   -2.8240 o         1 1OG     -0.555000
     28 H1         -4.5880    1.8120   -1.4270 hc        1 1OG      0.050589
     29 H2         -5.9830    0.6580   -1.5940 hc        1 1OG      0.050589
     30 H3         -5.2630    0.9890    0.0420 hc        1 1OG      0.050589
     31 H4         -5.4580   -1.9500   -1.2770 hc        1 1OG      0.050589
     32 H5         -3.7970   -2.3590   -0.6530 hc        1 1OG      0.050589
     33 H6         -4.9490   -1.4200    0.3870 hc        1 1OG      0.050589
     34 H7         -3.2960    0.4580   -3.1490 hc        1 1OG      0.050589
     35 H8         -3.0610   -1.3200   -2.8880 hc        1 1OG      0.050589
     36 H9         -4.7160   -0.6730   -3.2850 hc        1 1OG      0.050589
     37 H10        -0.6190    0.6100    0.0210 h1        1 1OG      0.172700
     38 H11        -1.8050    1.7070    2.6460 hc        1 1OG      0.103700
     39 H12        -0.8100    3.0480   -0.0350 h4        1 1OG      0.095200
     40 H13         0.2750    2.5560    3.3190 h4        1 1OG      0.025800
     41 H16         1.3890   -2.0370    1.0290 h1        1 1OG      0.129200
     42 H17         1.7900   -0.8470    2.3030 h1        1 1OG      0.129200
     43 H18         1.2010   -1.0750   -1.5120 h1        1 1OG      0.077200
     44 H19         4.3860   -3.7220   -0.2410 hc        1 1OG      0.067033
     45 H20         4.4660   -4.2990   -1.9740 hc        1 1OG      0.067033
     46 H21         5.5140   -2.9150   -1.4160 hc        1 1OG      0.067033
     47 H14         2.6020    0.1190   -1.5990 h1        1 1OG      0.077200
@<TRIPOS>BOND
     1    1    2 1   
     2    1   28 1   
     3    1   29 1   
     4    1   30 1   
     5    2    3 1   
     6    2    4 1   
     7    2    5 1   
     8    3   31 1   
     9    3   32 1   
    10    3   33 1   
    11    4   34 1   
    12    4   35 1   
    13    4   36 1   
    14    5    6 1   
    15    6    7 2   
    16    6    8 1   
    17    8    9 1   
    18    8   20 1   
    19    8   37 1   
    20    9   10 1   
    21    9   12 1   
    22    9   38 1   
    23   10   11 2   
    24   10   39 1   
    25   12   13 2   
    26   12   40 1   
    27   13   14 1   
    28   14   15 1   
    29   14   18 2   
    30   15   16 1   
    31   15   17 1   
    32   18   19 1   
    33   18   23 1   
    34   19   20 1   
    35   19   41 1   
    36   19   42 1   
    37   20   21 2   
    38   20   22 2   
    39   23   24 1   
    40   23   43 1   
    41   23   47 1   
    42   24   25 1   
    43   25   26 1   
    44   25   27 2   
    45   26   44 1   
    46   26   45 1   
    47   26   46 1   
@<TRIPOS>SUBSTRUCTURE
     1 1OG         1 TEMP              0 ****  ****    0 ROOT
