@<TRIPOS>MOLECULE
1OG
   47    43     1     0     0
SMALL
bcc


@<TRIPOS>ATOM
      1 CAB        -1.6930    4.5460    0.2080 c3        1 1OG     -0.231333
      2 CBA        -2.3320    3.4340    1.0670 c3        1 1OG      0.102000
      3 CAC        -3.7400    3.1260    0.5410 c3        1 1OG     -0.231333
      4 CAD        -2.4230    3.9080    2.5430 c3        1 1OG     -0.231333
      5 OAS        -1.5190    2.2450    0.9940 os        1 1OG     -0.261000
      6 CAW        -1.2930    1.7650   -0.3590 c2        1 1OG      0.349000
      7 OAH        -1.6130    2.4510   -1.3080 o         1 1OG     -0.345000
      8 CAN        -0.6270    0.4550   -0.5790 c3        1 1OG     -0.749000
      9 CAV        -0.9160   -0.0440   -1.9960 c3        1 1OG     -0.157000
     10 CAL        -1.9020    0.8640   -2.7730 c2        1 1OG      0.179000
     11 OAE        -1.4770    1.6690   -3.5880 o         1 1OG     -0.304000
     12 CAM        -1.4110   -1.4820   -1.8570 c2        1 1OG     -0.068000
     13 NAQ        -0.4870   -2.5540   -1.9040 n1        1 1OG     -0.119000
     14 CAY         0.2840   -2.8760   -0.7580 c1        1 1OG     -0.039000
     15 CAU         0.0270   -4.2050   -0.0030 c1        1 1OG      0.385000
     16 OAK         0.4240   -5.2970   -0.5000 o         1 1OG     -0.523000
     17 OAG        -0.6800   -4.2100    1.0340 o         1 1OG     -0.523000
     18 CAX         1.4490   -1.9950   -0.3610 c1        1 1OG     -0.200000
     19 CAP         1.8510   -0.8060   -1.2550 c3        1 1OG     -0.783000
     20 SAZ         1.1370    0.6530   -0.4720 s6        1 1OG      2.736000
     21 OAI         1.5420    1.8510   -1.2150 o         1 1OG     -0.929500
     22 OAJ         1.5700    0.7720    0.9200 o         1 1OG     -0.929500
     23 CAO         2.3370   -2.3960    0.8230 c2        1 1OG      0.042000
     24 OAR         3.2600   -3.4020    0.4050 os        1 1OG     -0.278000
     25 CAT         4.1110   -3.8750    1.4450 c1        1 1OG      0.302000
     26 CAA         5.3070   -4.7690    1.1060 c2        1 1OG     -0.219000
     27 OAF         3.8680   -3.5940    2.6140 o         1 1OG     -0.366000
     28 H1         -1.8910    5.4230    0.6090 hc        1 1OG      0.089889
     29 H2         -0.7020    4.4120    0.1710 hc        1 1OG      0.089889
     30 H3         -2.0600    4.5110   -0.6940 hc        1 1OG      0.089889
     31 H4         -3.7710    3.2890   -0.4240 hc        1 1OG      0.089889
     32 H5         -3.9630    2.1690    0.7250 hc        1 1OG      0.089889
     33 H6         -4.3940    3.7080    0.9930 hc        1 1OG      0.089889
     34 H7         -3.0010    4.7320    2.5970 hc        1 1OG      0.089889
     35 H8         -2.8160    3.1990    3.0880 hc        1 1OG      0.089889
     36 H9         -1.5310    4.1140    2.8720 hc        1 1OG      0.089889
     37 H10        -1.0320   -0.0770    0.1410 h1        1 1OG      0.212000
     38 H11        -0.1050    0.0090   -2.5710 hc        1 1OG      0.143000
     39 H12        -2.8680    0.8280   -2.5720 h4        1 1OG      0.188000
     40 H13        -2.4150   -1.6750   -1.8100 h4        1 1OG      0.155000
     41 H16         2.7860   -0.6640   -1.5570 h1        1 1OG      0.168500
     42 H17         1.4170   -0.9760   -2.1120 h1        1 1OG      0.168500
     43 H18         2.8310   -1.6120    1.1420 h4        1 1OG      0.116500
     44 H19         5.1340   -5.2390    0.2580 ha        1 1OG      0.106333
     45 H20         5.4380   -5.4210    1.8170 ha        1 1OG      0.106333
     46 H21         6.1100   -4.2190    1.0150 ha        1 1OG      0.106333
     47 H14         1.7790   -2.7450    1.5430 h4        1 1OG      0.116500
@<TRIPOS>BOND
     1    1    2 1   
     2    1   28 1   
     3    1   29 1   
     4    1   30 1   
     5    2    3 1   
     6    2    4 1   
     7    2    5 1   
     8    3   31 1   
     9    3   32 1   
    10    3   33 1   
    11    4   34 1   
    12    4   35 1   
    13    4   36 1   
    14    5    6 1   
    15    6    7 1   
    16    6    8 1   
    17    8    9 1   
    18    8   20 1   
    19    8   37 1   
    20    9   10 1   
    21    9   12 1   
    22    9   38 1   
    23   10   11 1   
    24   10   39 1   
    25   12   13 1   
    26   12   40 1   
    27   14   18 1   
    28   15   16 1   
    29   15   17 1   
    30   18   19 1   
    31   19   20 1   
    32   19   41 1   
    33   19   42 1   
    34   20   21 1   
    35   20   22 1   
    36   23   24 1   
    37   23   43 1   
    38   23   47 1   
    39   24   25 1   
    40   25   27 1   
    41   26   44 1   
    42   26   45 1   
    43   26   46 1   
@<TRIPOS>SUBSTRUCTURE
     1 1OG         1 TEMP              0 ****  ****    0 ROOT
