@<TRIPOS>MOLECULE
1OH
   32    33     1     0     0
SMALL
bcc


@<TRIPOS>ATOM
      1 O2         -4.4380   -1.4720   -0.2830 oh        1 1OH     -0.498100
      2 C13        -3.2540   -0.7810   -0.1550 ca        1 1OH      0.121100
      3 C14        -2.2480   -1.0780   -1.0900 ca        1 1OH     -0.185500
      4 C15        -1.0340   -0.4090   -1.0070 ca        1 1OH     -0.089000
      5 C12        -3.0370    0.1730    0.8460 ca        1 1OH     -0.185500
      6 C11        -1.8100    0.8330    0.9100 ca        1 1OH     -0.089000
      7 C4         -0.7970    0.5530   -0.0100 ca        1 1OH     -0.106300
      8 C2          0.5340    1.2650    0.0060 c3        1 1OH      0.044600
      9 C5          0.5930    2.1660   -1.2270 c3        1 1OH     -0.086100
     10 C3          0.7020    2.1540    1.2380 c3        1 1OH     -0.086100
     11 C1          1.6480    0.2440    0.0230 ca        1 1OH     -0.072300
     12 C6          2.6950    0.2580   -0.9040 ca        1 1OH     -0.125000
     13 C7          3.7170   -0.6900   -0.8320 ca        1 1OH     -0.131000
     14 C8          3.7070   -1.6610    0.1660 ca        1 1OH     -0.132000
     15 C9          2.6660   -1.6830    1.0960 ca        1 1OH     -0.131000
     16 C10         1.6470   -0.7380    1.0250 ca        1 1OH     -0.125000
     17 H2         -5.0340   -1.1730    0.4180 ho        1 1OH      0.418000
     18 H14        -2.4340   -1.8310   -1.8670 ha        1 1OH      0.141000
     19 H15        -0.2370   -0.6400   -1.7320 ha        1 1OH      0.138000
     20 H12        -3.8260    0.4020    1.5750 ha        1 1OH      0.141000
     21 H11        -1.6600    1.5810    1.7030 ha        1 1OH      0.138000
     22 H51        -0.2820    2.8610   -1.2250 hc        1 1OH      0.039867
     23 H52         1.5270    2.7770   -1.2200 hc        1 1OH      0.039867
     24 H53         0.5590    1.5570   -2.1620 hc        1 1OH      0.039867
     25 H31         0.5800    1.5570    2.1730 hc        1 1OH      0.039867
     26 H32         1.7240    2.6060    1.2370 hc        1 1OH      0.039867
     27 H33        -0.0490    2.9800    1.2280 hc        1 1OH      0.039867
     28 H6          2.7300    1.0150   -1.7020 ha        1 1OH      0.134500
     29 H7          4.5330   -0.6670   -1.5690 ha        1 1OH      0.130500
     30 H8          4.5120   -2.4070    0.2210 ha        1 1OH      0.130000
     31 H9          2.6500   -2.4480    1.8860 ha        1 1OH      0.130500
     32 H10         0.8240   -0.7620    1.7560 ha        1 1OH      0.134500
@<TRIPOS>BOND
     1    1    2 1   
     2    1   17 1   
     3    2    3 ar  
     4    2    5 ar  
     5    3    4 ar  
     6    3   18 1   
     7    4    7 ar  
     8    4   19 1   
     9    5    6 ar  
    10    5   20 1   
    11    6    7 ar  
    12    6   21 1   
    13    7    8 1   
    14    8    9 1   
    15    8   10 1   
    16    8   11 1   
    17    9   22 1   
    18    9   23 1   
    19    9   24 1   
    20   10   25 1   
    21   10   26 1   
    22   10   27 1   
    23   11   12 ar  
    24   11   16 ar  
    25   12   13 ar  
    26   12   28 1   
    27   13   14 ar  
    28   13   29 1   
    29   14   15 ar  
    30   14   30 1   
    31   15   16 ar  
    32   15   31 1   
    33   16   32 1   
@<TRIPOS>SUBSTRUCTURE
     1 1OH         1 TEMP              0 ****  ****    0 ROOT
