@<TRIPOS>MOLECULE
1OH
   32    33     1     0     0
SMALL
bcc


@<TRIPOS>ATOM
      1 O2         -0.0290   -0.1340    0.2410 oh        1 1OH     -0.498100
      2 C13         1.3410   -0.1030    0.1140 ca        1 1OH      0.121100
      3 C14         2.0800    0.0040    1.3050 ca        1 1OH     -0.185500
      4 C15         3.4660    0.0390    1.2350 ca        1 1OH     -0.089000
      5 C12         1.9910   -0.1720   -1.1230 ca        1 1OH     -0.185500
      6 C11         3.3840   -0.1360   -1.1700 ca        1 1OH     -0.089000
      7 C4          4.1370   -0.0300    0.0020 ca        1 1OH     -0.106300
      8 C2          5.6470   -0.0170   -0.0010 c3        1 1OH      0.044600
      9 C5          6.1240   -1.3320    0.6140 c3        1 1OH     -0.086100
     10 C3          6.2240    0.0700   -1.4140 c3        1 1OH     -0.086100
     11 C1          6.1400    1.1870    0.7670 ca        1 1OH     -0.072300
     12 C6          7.0630    1.0860    1.8130 ca        1 1OH     -0.125000
     13 C7          7.5080    2.2300    2.4770 ca        1 1OH     -0.131000
     14 C8          7.0400    3.4880    2.1040 ca        1 1OH     -0.132000
     15 C9          6.1190    3.5990    1.0620 ca        1 1OH     -0.131000
     16 C10         5.6730    2.4590    0.3990 ca        1 1OH     -0.125000
     17 H2         -0.4080   -0.2080   -0.6470 ho        1 1OH      0.418000
     18 H14         1.5540    0.0600    2.2680 ha        1 1OH      0.141000
     19 H15         4.0540    0.1300    2.1630 ha        1 1OH      0.138000
     20 H12         1.4090   -0.2560   -2.0520 ha        1 1OH      0.141000
     21 H11         3.8760   -0.1930   -2.1530 ha        1 1OH      0.138000
     22 H51         7.2370   -1.4060    0.5620 hc        1 1OH      0.039867
     23 H52         5.8010   -1.4080    1.6800 hc        1 1OH      0.039867
     24 H53         5.6860   -2.1900    0.0490 hc        1 1OH      0.039867
     25 H31         5.8350    0.9720   -1.9440 hc        1 1OH      0.039867
     26 H32         7.3370    0.1420   -1.3610 hc        1 1OH      0.039867
     27 H33         5.9580   -0.8430   -2.0000 hc        1 1OH      0.039867
     28 H6          7.4520    0.1060    2.1280 ha        1 1OH      0.134500
     29 H7          8.2340    2.1340    3.2970 ha        1 1OH      0.130500
     30 H8          7.3930    4.3880    2.6280 ha        1 1OH      0.130000
     31 H9          5.7430    4.5890    0.7630 ha        1 1OH      0.130500
     32 H10         4.9410    2.5500   -0.4180 ha        1 1OH      0.134500
@<TRIPOS>BOND
     1    1    2 1   
     2    1   17 1   
     3    2    3 ar  
     4    2    5 ar  
     5    3    4 ar  
     6    3   18 1   
     7    4    7 ar  
     8    4   19 1   
     9    5    6 ar  
    10    5   20 1   
    11    6    7 ar  
    12    6   21 1   
    13    7    8 1   
    14    8    9 1   
    15    8   10 1   
    16    8   11 1   
    17    9   22 1   
    18    9   23 1   
    19    9   24 1   
    20   10   25 1   
    21   10   26 1   
    22   10   27 1   
    23   11   12 ar  
    24   11   16 ar  
    25   12   13 ar  
    26   12   28 1   
    27   13   14 ar  
    28   13   29 1   
    29   14   15 ar  
    30   14   30 1   
    31   15   16 ar  
    32   15   31 1   
    33   16   32 1   
@<TRIPOS>SUBSTRUCTURE
     1 1OH         1 TEMP              0 ****  ****    0 ROOT
