@<TRIPOS>MOLECULE
1OH
   32    27     1     0     0
SMALL
bcc


@<TRIPOS>ATOM
      1 O2         -4.9560   -0.8290   -0.3940 oh        1 1OH     -0.252000
      2 C13        -3.5500   -0.7760   -0.3710 c2        1 1OH      0.076000
      3 C14        -2.8850   -0.5340    0.8210 c2        1 1OH     -0.211000
      4 C15        -1.4990   -0.4980    0.8460 c1        1 1OH     -0.083000
      5 C12        -2.8300   -0.9830   -1.5370 c1        1 1OH     -0.160000
      6 C11        -1.4440   -0.9470   -1.5120 c1        1 1OH     -0.095000
      7 C4         -0.7790   -0.7050   -0.3200 c1        1 1OH     -0.099000
      8 C2          0.7340   -0.7490   -0.2770 c2        1 1OH      0.030000
      9 C5          1.1810   -1.8990    0.5970 c3        1 1OH     -0.204000
     10 C3          1.2740   -0.9410   -1.6770 c3        1 1OH     -0.204000
     11 C1          1.2610    0.5520    0.2930 c1        1 1OH     -0.065000
     12 C6          0.7600    1.7610   -0.1640 c1        1 1OH     -0.128750
     13 C7          1.2970    2.9530    0.2970 c1        1 1OH     -0.128750
     14 C8          2.3350    2.9360    1.2150 c1        1 1OH     -0.128750
     15 C9          2.8360    1.7280    1.6720 c1        1 1OH     -0.128750
     16 C10         2.3000    0.5360    1.2110 c1        1 1OH     -0.130000
     17 H2         -5.2850   -0.0090   -0.2930 ho        1 1OH      0.217000
     18 H14        -3.3920   -0.3880    1.6420 ha        1 1OH      0.133000
     19 H15        -1.0300   -0.3270    1.6850 ha        1 1OH      0.139000
     20 H12        -3.2990   -1.1540   -2.3760 ha        1 1OH      0.149000
     21 H11        -0.9370   -1.0930   -2.3330 ha        1 1OH      0.137000
     22 H51         2.1420   -2.0490    0.4750 hc        1 1OH      0.079500
     23 H52         0.6900   -2.7090    0.3470 hc        1 1OH      0.079500
     24 H53         1.0000   -1.6850    1.5370 hc        1 1OH      0.079500
     25 H31         0.9530   -1.7950   -2.0360 hc        1 1OH      0.079500
     26 H32         0.9640   -0.2080   -2.2500 hc        1 1OH      0.079500
     27 H33         2.2530   -0.9440   -1.6520 hc        1 1OH      0.079500
     28 H6          0.0290    1.7730   -0.8110 ha        1 1OH      0.131750
     29 H7          0.9440    3.8050   -0.0250 ha        1 1OH      0.131750
     30 H8          2.7130    3.7760    1.5400 ha        1 1OH      0.131750
     31 H9          3.5670    1.7160    2.3190 ha        1 1OH      0.131750
     32 H10         2.6530   -0.3150    1.5330 ha        1 1OH      0.133000
@<TRIPOS>BOND
     1    1    2 1   
     2    1   17 1   
     3    2    3 1   
     4    2    5 1   
     5    3    4 1   
     6    3   18 1   
     7    4   19 1   
     8    5   20 1   
     9    6    7 1   
    10    6   21 1   
    11    8    9 1   
    12    8   10 1   
    13    8   11 1   
    14    9   22 1   
    15    9   23 1   
    16    9   24 1   
    17   10   25 1   
    18   10   26 1   
    19   10   27 1   
    20   11   16 1   
    21   12   13 1   
    22   12   28 1   
    23   13   29 1   
    24   14   15 1   
    25   14   30 1   
    26   15   31 1   
    27   16   32 1   
@<TRIPOS>SUBSTRUCTURE
     1 1OH         1 TEMP              0 ****  ****    0 ROOT
