@<TRIPOS>MOLECULE
1OH
   32    33     1     0     0
SMALL
bcc


@<TRIPOS>ATOM
      1 O2         -0.0290   -0.1310    0.2360 oh        1 1OH     -0.498100
      2 C13         1.3410   -0.1020    0.1120 ca        1 1OH      0.121100
      3 C14         2.0780    0.0110    1.3030 ca        1 1OH     -0.185500
      4 C15         3.4650    0.0450    1.2350 ca        1 1OH     -0.089000
      5 C12         1.9930   -0.1780   -1.1250 ca        1 1OH     -0.185500
      6 C11         3.3860   -0.1420   -1.1690 ca        1 1OH     -0.089000
      7 C4          4.1380   -0.0310    0.0040 ca        1 1OH     -0.106300
      8 C2          5.6470   -0.0190    0.0030 c3        1 1OH      0.044600
      9 C5          6.1220   -1.3320    0.6250 c3        1 1OH     -0.086100
     10 C3          6.2260    0.0600   -1.4090 c3        1 1OH     -0.086100
     11 C1          6.1390    1.1880    0.7670 ca        1 1OH     -0.072300
     12 C6          7.0600    1.0910    1.8150 ca        1 1OH     -0.125000
     13 C7          7.5060    2.2380    2.4740 ca        1 1OH     -0.131000
     14 C8          7.0390    3.4940    2.0950 ca        1 1OH     -0.132000
     15 C9          6.1210    3.6010    1.0500 ca        1 1OH     -0.131000
     16 C10         5.6750    2.4580    0.3920 ca        1 1OH     -0.125000
     17 H2         -0.4070   -0.2090   -0.6520 ho        1 1OH      0.418000
     18 H14         1.5510    0.0720    2.2650 ha        1 1OH      0.141000
     19 H15         4.0500    0.1400    2.1630 ha        1 1OH      0.138000
     20 H12         1.4130   -0.2660   -2.0540 ha        1 1OH      0.141000
     21 H11         3.8800   -0.2050   -2.1510 ha        1 1OH      0.138000
     22 H51         7.2350   -1.4070    0.5760 hc        1 1OH      0.039867
     23 H52         5.7960   -1.4030    1.6910 hc        1 1OH      0.039867
     24 H53         5.6850   -2.1920    0.0630 hc        1 1OH      0.039867
     25 H31         5.8390    0.9600   -1.9430 hc        1 1OH      0.039867
     26 H32         7.3400    0.1320   -1.3540 hc        1 1OH      0.039867
     27 H33         5.9610   -0.8550   -1.9910 hc        1 1OH      0.039867
     28 H6          7.4470    0.1120    2.1360 ha        1 1OH      0.134500
     29 H7          8.2290    2.1450    3.2970 ha        1 1OH      0.130500
     30 H8          7.3910    4.3960    2.6150 ha        1 1OH      0.130000
     31 H9          5.7460    4.5900    0.7460 ha        1 1OH      0.130500
     32 H10         4.9450    2.5460   -0.4280 ha        1 1OH      0.134500
@<TRIPOS>BOND
     1    1    2 1   
     2    1   17 1   
     3    2    3 ar  
     4    2    5 ar  
     5    3    4 ar  
     6    3   18 1   
     7    4    7 ar  
     8    4   19 1   
     9    5    6 ar  
    10    5   20 1   
    11    6    7 ar  
    12    6   21 1   
    13    7    8 1   
    14    8    9 1   
    15    8   10 1   
    16    8   11 1   
    17    9   22 1   
    18    9   23 1   
    19    9   24 1   
    20   10   25 1   
    21   10   26 1   
    22   10   27 1   
    23   11   12 ar  
    24   11   16 ar  
    25   12   13 ar  
    26   12   28 1   
    27   13   14 ar  
    28   13   29 1   
    29   14   15 ar  
    30   14   30 1   
    31   15   16 ar  
    32   15   31 1   
    33   16   32 1   
@<TRIPOS>SUBSTRUCTURE
     1 1OH         1 TEMP              0 ****  ****    0 ROOT
