@<TRIPOS>MOLECULE
1OJ
   71    59     1     0     0
SMALL
bcc


@<TRIPOS>ATOM
      1 C13        -1.7430   -0.6510   -1.0940 c1        1 1OJ      0.336000
      2 C18         1.3870    1.5490   -3.9940 c1        1 1OJ      0.035000
      3 C17         0.8580    0.4350   -3.3410 c2        1 1OJ     -0.091000
      4 C16         0.2170    0.5830   -2.1060 c1        1 1OJ     -0.139000
      5 C19         1.2770    2.8260   -3.4100 c1        1 1OJ      0.082000
      6 C20         0.6430    2.9810   -2.1850 c2        1 1OJ     -0.198000
      7 C21         0.1080    1.8560   -1.5240 c2        1 1OJ     -0.105000
      8 C24         3.1480    0.8150   -5.4390 c3        1 1OJ     -0.022000
      9 C12        -0.2260   -0.6830   -1.3040 c2        1 1OJ      0.031000
     10 C34        -1.9800   -0.0700    4.4050 c1        1 1OJ     -0.097250
     11 C27         1.8980    6.2710   -3.2810 c3        1 1OJ     -0.230000
     12 C33        -2.2160   -0.0350    3.0070 c1        1 1OJ     -0.016500
     13 C1          0.6040   -5.9310    3.3470 c1        1 1OJ     -0.097250
     14 N2          1.8250   -5.6520    3.8380 n1        1 1OJ     -0.145000
     15 C3          2.5160   -4.5460    3.3870 c1        1 1OJ     -0.037000
     16 C4          1.9420   -3.7020    2.4040 c1        1 1OJ     -0.487500
     17 C5          0.7260   -3.9790    1.9140 c1        1 1OJ      0.021000
     18 C6          0.0300   -5.0940    2.3700 c1        1 1OJ     -0.097250
     19 C7          2.6270   -2.5240    1.9770 c1        1 1OJ     -0.016500
     20 C8          2.0310   -1.6640    1.0500 c1        1 1OJ     -0.169000
     21 C9          0.7720   -1.9540    0.5440 c1        1 1OJ      0.060000
     22 C10         0.1100   -3.0900    0.9560 c2        1 1OJ     -0.183000
     23 N11         0.4130   -0.6970   -0.0670 n2        1 1OJ     -0.287000
     24 O14        -2.4230   -0.1050   -1.8580 o         1 1OJ     -0.326000
     25 N15        -2.3110   -1.2800    0.0220 n2        1 1OJ     -0.843000
     26 O22         1.8560    3.9170   -4.0340 o         1 1OJ     -0.208000
     27 O23         1.8670    1.4260   -5.3400 o         1 1OJ     -0.214000
     28 C25         3.7200    1.0490   -6.8470 c3        1 1OJ     -0.217000
     29 C26         2.5250    4.8190   -3.1380 c3        1 1OJ      0.029000
     30 C28         4.0620    4.8680   -3.4980 c3        1 1OJ     -0.230000
     31 S29        -3.6500   -0.6260    0.7450 s4        1 1OJ      2.075800
     32 O30        -3.9690    0.7020    0.1880 o         1 1OJ     -0.520900
     33 O31        -4.8460   -1.3660    0.4030 o         1 1OJ     -0.520900
     34 C32        -3.4160   -0.5500    2.4830 c1        1 1OJ     -0.487500
     35 C35        -2.9480   -0.6190    5.2670 c1        1 1OJ     -0.097250
     36 C36        -4.1410   -1.1300    4.7460 c1        1 1OJ     -0.847000
     37 C37        -4.3780   -1.0950    3.3430 c1        1 1OJ      0.087000
     38 S38        -5.4060   -1.7370    5.8470 s4        1 1OJ      2.084800
     39 O39        -6.3610   -2.4610    5.1620 o         1 1OJ     -0.543900
     40 O40        -4.8800   -2.7320    6.7410 o         1 1OJ     -0.543900
     41 N41        -6.0720   -0.5170    6.6640 n2        1 1OJ     -0.954000
     42 H1          0.9360   -0.4630   -3.7530 ha        1 1OJ      0.161000
     43 H2          0.5640    3.9180   -1.7620 ha        1 1OJ      0.145000
     44 H3         -0.3340    1.9600   -0.6730 ha        1 1OJ      0.136000
     45 H4          3.7670    1.2170   -4.7510 h1        1 1OJ      0.082000
     46 H5          3.0640   -0.1380   -5.2790 h1        1 1OJ      0.082000
     47 H6          0.0350   -1.5400   -1.8420 h4        1 1OJ      0.133000
     48 H7         -1.1110    0.3010    4.7860 ha        1 1OJ      0.157000
     49 H8          1.9600    6.5690   -4.2340 hc        1 1OJ      0.090167
     50 H9          0.9610    6.2490   -3.0080 hc        1 1OJ      0.090167
     51 H10         2.4050    6.9200   -2.6880 hc        1 1OJ      0.090167
     52 H11        -1.5200    0.3580    2.3850 ha        1 1OJ      0.154000
     53 H12         0.1220   -6.7090    3.6640 ha        1 1OJ      0.157000
     54 H13         3.3910   -4.3500    3.7380 ha        1 1OJ      0.156000
     55 H14        -0.8390   -5.2920    2.0180 ha        1 1OJ      0.157000
     56 H15         3.5010   -2.3200    2.3290 ha        1 1OJ      0.154000
     57 H16         2.4890   -0.8820    0.7650 ha        1 1OJ      0.135000
     58 H17        -0.7290   -3.2850    0.6180 ha        1 1OJ      0.159000
     59 H18         0.7180    0.0740    0.2860 hn        1 1OJ      0.203000
     60 H19        -2.0190   -2.0860    0.2760 hn        1 1OJ      0.254000
     61 H20         4.5930    0.7060   -6.8940 hc        1 1OJ      0.087333
     62 H21         3.1370    0.5780   -7.5300 hc        1 1OJ      0.087333
     63 H22         3.7360    2.0040   -7.0360 hc        1 1OJ      0.087333
     64 H23         2.4070    4.4850   -2.1470 h1        1 1OJ      0.087000
     65 H24         4.4220    3.9660   -3.5080 hc        1 1OJ      0.090167
     66 H25         4.5370    5.4040   -2.8270 hc        1 1OJ      0.090167
     67 H26         4.1740    5.2570   -4.3460 hc        1 1OJ      0.090167
     68 H27        -2.7880   -0.6420    6.2320 ha        1 1OJ      0.157000
     69 H28        -5.2320   -1.4610    2.9720 ha        1 1OJ      0.159000
     70 H29        -5.6640   -0.2020    7.4400 hn        1 1OJ      0.250000
     71 H30        -6.8850   -0.2020    6.4210 hn        1 1OJ      0.250000
@<TRIPOS>BOND
     1    1    9 1   
     2    1   24 1   
     3    2    3 1   
     4    2    5 1   
     5    3    4 1   
     6    3   42 1   
     7    4    7 1   
     8    5    6 1   
     9    6    7 1   
    10    6   43 1   
    11    7   44 1   
    12    8   27 1   
    13    8   28 1   
    14    8   45 1   
    15    8   46 1   
    16    9   23 1   
    17    9   47 1   
    18   10   35 1   
    19   10   48 1   
    20   11   29 1   
    21   11   49 1   
    22   11   50 1   
    23   11   51 1   
    24   12   34 1   
    25   12   52 1   
    26   13   18 1   
    27   13   53 1   
    28   14   15 1   
    29   15   54 1   
    30   16   19 1   
    31   17   22 1   
    32   18   55 1   
    33   19   56 1   
    34   20   21 1   
    35   20   57 1   
    36   21   22 1   
    37   22   58 1   
    38   23   59 1   
    39   25   31 1   
    40   25   60 1   
    41   26   29 1   
    42   28   61 1   
    43   28   62 1   
    44   28   63 1   
    45   29   30 1   
    46   29   64 1   
    47   30   65 1   
    48   30   66 1   
    49   30   67 1   
    50   31   32 1   
    51   31   33 1   
    52   35   68 1   
    53   36   37 1   
    54   36   38 1   
    55   37   69 1   
    56   38   39 1   
    57   38   40 1   
    58   41   70 1   
    59   41   71 1   
@<TRIPOS>SUBSTRUCTURE
     1 1OJ         1 TEMP              0 ****  ****    0 ROOT
