@<TRIPOS>MOLECULE
1OJ
   73    71     1     0     0
SMALL
bcc


@<TRIPOS>ATOM
      1 C13         3.5470   -3.4660    0.0330 cu        1 1OJ      0.387000
      2 C18         1.6250    0.2890   -2.0510 c2        1 1OJ      0.228000
      3 C17         2.5610   -0.8580   -2.2280 c3        1 1OJ     -0.303000
      4 C16         3.4190   -1.1170   -1.0010 c3        1 1OJ     -0.134000
      5 C19         1.1730    0.6160   -0.6520 c2        1 1OJ      0.131000
      6 C20         1.7380   -0.0030    0.4480 c2        1 1OJ     -0.259000
      7 C21         2.7460   -0.9470    0.3000 c1        1 1OJ     -0.137000
      8 C24         3.3010    0.3160   -5.6800 c3        1 1OJ     -0.310000
      9 C12         3.9790   -2.5270   -1.0380 cx        1 1OJ      0.055000
     10 C34        -4.1490    6.5330   -2.5050 c1        1 1OJ     -0.100000
     11 C33        -3.9140    5.2930   -2.5410 c1        1 1OJ      0.088000
     12 C1          6.2720   -0.8280    3.8960 c2        1 1OJ      0.061000
     13 N2          6.9330   -1.4240    4.9320 n2        1 1OJ     -0.340000
     14 C3          7.4730   -1.9360    5.8590 c1        1 1OJ      0.201000
     15 C4          8.9280   -1.5930    2.4340 c2        1 1OJ      0.020000
     16 C5          7.6450   -1.7380    2.0080 c2        1 1OJ     -0.118000
     17 C6          6.5590   -0.9540    2.5830 c2        1 1OJ     -0.195000
     18 C7         10.0860   -2.2950    1.9430 c2        1 1OJ     -0.213000
     19 C8         11.3060   -2.1200    2.4710 c2        1 1OJ     -0.097000
     20 C9          6.0690   -2.7640    0.4510 c1        1 1OJ      0.053000
     21 C10         7.2800   -2.6660    0.9600 c2        1 1OJ      0.041000
     22 N11         4.9280   -2.9680   -0.0090 n         1 1OJ     -0.160000
     23 O14         2.9040   -4.2020    0.7150 o         1 1OJ     -0.076000
     24 N15        -4.3400    2.1770   -2.7370 n3        1 1OJ     -0.956000
     25 O22         0.1770    1.4970   -0.4820 oh        1 1OJ     -0.198000
     26 C25         4.1440   -0.2380   -4.6630 c1        1 1OJ     -0.100000
     27 C26         0.4560    5.8440   -1.0790 c2        1 1OJ     -0.159000
     28 C28         0.0230    4.9470   -0.1960 c2        1 1OJ     -0.255000
     29 S29        -3.5390    2.7090   -1.4900 s6        1 1OJ      2.880000
     30 O30        -4.0860    2.2550   -0.2800 o         1 1OJ     -0.925500
     31 O31        -2.1530    2.5790   -1.6810 o         1 1OJ     -0.925500
     32 C32        -3.8950    4.4120   -1.4870 c2        1 1OJ     -0.676000
     33 C35        -4.4260    7.3340   -1.4470 c2        1 1OJ      0.161000
     34 C36        -4.4520    6.5310   -0.2400 c2        1 1OJ     -1.022000
     35 C37        -4.1870    5.1300   -0.2990 c2        1 1OJ      0.097000
     36 S38        -4.6520    7.2640    1.1800 s6        1 1OJ      2.829000
     37 O39        -4.2230    6.5360    2.2650 o         1 1OJ     -0.832000
     38 O40        -4.5820    8.6370    1.1170 o         1 1OJ     -0.832000
     39 N41        -6.5380    7.0350    1.3560 n4        1 1OJ     -0.516000
     40 H1          3.2330   -0.6620   -3.1650 hc        1 1OJ      0.183000
     41 H2          1.3560    0.2230    1.4580 ha        1 1OJ      0.183000
     42 H3          4.2940   -0.3940   -1.0160 hc        1 1OJ      0.159000
     43 H4          2.4690    0.9050   -5.2000 hc        1 1OJ      0.136000
     44 H5          1.9380   -1.7610   -2.4730 hc        1 1OJ      0.183000
     45 H6          4.1660   -2.9100   -2.0740 h1        1 1OJ      0.184000
     46 H7         -0.0150    3.3980   -2.6990 ha        1 1OJ      0.004000
     47 H8          0.4620    7.9790   -1.2330 hc        1 1OJ      0.087000
     48 H9          0.4200    5.6300   -2.1630 ha        1 1OJ      0.119000
     49 H10         2.0920    7.2140   -1.0600 hc        1 1OJ      0.087000
     50 H11        -0.2170    2.9340   -3.1520 ha        1 1OJ      0.004000
     51 H12         5.9200   -0.4230    1.8570 ha        1 1OJ      0.142000
     52 H13         9.1230   -0.8570    3.2410 ha        1 1OJ      0.156000
     53 H14         5.4160   -0.1960    4.2200 h4        1 1OJ      0.161000
     54 H15         9.9490   -2.9990    1.1050 ha        1 1OJ      0.127000
     55 H16        11.5040   -1.4340    3.3070 ha        1 1OJ      0.138000
     56 H17         8.0600   -3.3470    0.5550 ha        1 1OJ      0.205000
     57 H18        12.1840   -2.6640    2.0930 ha        1 1OJ      0.138000
     58 H19        -3.9750    2.1340   -3.6600 hn        1 1OJ      0.270000
     59 H20         2.8080   -0.5610   -6.1970 hc        1 1OJ      0.136000
     60 H21         3.7980    0.9450   -6.4610 hc        1 1OJ      0.136000
     61 H22         5.2320   -0.2040   -4.8080 ha        1 1OJ      0.069000
     62 H23        -0.1580    1.8150   -1.3530 ho        1 1OJ      0.288000
     63 H24         0.0610    5.1130    0.8890 ha        1 1OJ      0.115000
     64 H25         0.9990    7.3410    0.3800 hc        1 1OJ      0.087000
     65 H26        -0.3750    3.9670   -0.5030 ha        1 1OJ      0.115000
     66 H27        -4.5900    8.4230   -1.4450 ha        1 1OJ      0.209000
     67 H28        -4.1920    4.5440    0.6480 ha        1 1OJ      0.204000
     68 H29        -6.9580    6.5410    0.5740 hn        1 1OJ      0.258667
     69 H30        -6.7540    6.5110    2.2050 hn        1 1OJ      0.258667
     70 H152       -5.2640    1.8120   -2.6890 hn        1 1OJ      0.270000
     71 H413       -7.0000    7.9430    1.4330 hn        1 1OJ      0.258667
     72 O23         1.1860    0.9640   -2.9880 o         1 1OJ     -0.266000
     73 C27         1.0260    7.1580   -0.7230 c3        1 1OJ     -0.197000
@<TRIPOS>BOND
     1    1    9 1   
     2    1   22 1   
     3    1   23 1   
     4    2    3 1   
     5    2    5 1   
     6    2   72 1   
     7    3    4 1   
     8    3   40 1   
     9    3   44 1   
    10    4    7 1   
    11    4    9 1   
    12    4   42 1   
    13    5    6 1   
    14    5   25 1   
    15    6    7 1   
    16    6   41 1   
    17    8   26 1   
    18    8   43 1   
    19    8   59 1   
    20    8   60 1   
    21    9   22 1   
    22    9   45 1   
    23   10   11 1   
    24   10   33 1   
    25   11   32 1   
    26   12   13 1   
    27   12   17 1   
    28   12   53 1   
    29   13   14 1   
    30   15   16 1   
    31   15   18 1   
    32   15   52 1   
    33   16   17 1   
    34   16   21 1   
    35   17   51 1   
    36   18   19 1   
    37   18   54 1   
    38   19   55 1   
    39   19   57 1   
    40   20   21 1   
    41   20   22 1   
    42   21   56 1   
    43   24   29 1   
    44   24   58 1   
    45   24   70 1   
    46   25   62 1   
    47   26   61 1   
    48   27   28 1   
    49   27   48 1   
    50   27   73 1   
    51   28   63 1   
    52   28   65 1   
    53   29   30 1   
    54   29   31 1   
    55   29   32 1   
    56   32   35 1   
    57   33   34 1   
    58   33   66 1   
    59   34   35 1   
    60   34   36 1   
    61   35   67 1   
    62   36   37 1   
    63   36   38 1   
    64   36   39 1   
    65   39   68 1   
    66   39   69 1   
    67   39   71 1   
    68   46   50 1   
    69   47   73 1   
    70   49   73 1   
    71   64   73 1   
@<TRIPOS>SUBSTRUCTURE
     1 1OJ         1 TEMP              0 ****  ****    0 ROOT
