@<TRIPOS>MOLECULE
1OJ
   71    74     1     0     0
SMALL
bcc


@<TRIPOS>ATOM
      1 C13        -0.6740    1.5230    1.2250 c         1 1OJ      0.702100
      2 C18         1.3530   -2.6230    0.2700 ca        1 1OJ      0.095100
      3 C17         1.3700   -1.4110    0.9580 ca        1 1OJ     -0.156000
      4 C16         0.7670   -0.2790    0.3940 ca        1 1OJ     -0.165300
      5 C19         0.7250   -2.7100   -1.0060 ca        1 1OJ      0.133100
      6 C20         0.1310   -1.5710   -1.5540 ca        1 1OJ     -0.182000
      7 C21         0.1570   -0.3640   -0.8550 ca        1 1OJ     -0.101000
      8 C24         2.8690   -3.6600    1.7830 c3        1 1OJ      0.125400
      9 C12         0.7940    1.0290    1.1480 c3        1 1OJ      0.197800
     10 C34        -5.3750   -1.3230    1.2290 ca        1 1OJ     -0.181000
     11 C27        -0.2360   -5.6400   -2.8680 c3        1 1OJ     -0.110600
     12 C33        -4.6110   -0.5510    2.0980 ca        1 1OJ      0.039000
     13 C1          7.3870    2.4740   -1.4610 ca        1 1OJ      0.389200
     14 N2          8.0270    2.1320   -0.2970 nb        1 1OJ     -0.670000
     15 C3          7.2760    1.8380    0.7520 ca        1 1OJ      0.430200
     16 C4          5.8420    1.8570    0.7380 ca        1 1OJ     -0.186300
     17 C5          5.1950    2.2140   -0.4730 ca        1 1OJ      0.019000
     18 C6          6.0120    2.5290   -1.5960 ca        1 1OJ     -0.236300
     19 C7          5.0560    1.5410    1.8720 ca        1 1OJ     -0.077000
     20 C8          3.6870    1.5740    1.8100 ca        1 1OJ     -0.155000
     21 C9          3.0160    1.9300    0.5930 ca        1 1OJ      0.154600
     22 C10         3.7820    2.2370   -0.5310 ca        1 1OJ     -0.186000
     23 N11         1.6130    2.0760    0.5640 nh        1 1OJ     -0.709600
     24 O14        -1.1950    2.1950    0.3200 o         1 1OJ     -0.581100
     25 N15        -1.4220    1.1390    2.3340 n         1 1OJ     -0.666300
     26 O22         0.7760   -3.9520   -1.5900 os        1 1OJ     -0.307900
     27 C25         3.5160   -5.0180    1.9270 c3        1 1OJ     -0.099100
     28 C26         0.0210   -4.1440   -2.8050 c3        1 1OJ      0.136100
     29 C28         0.8260   -3.6710   -3.9990 c3        1 1OJ     -0.110600
     30 S29        -2.9970    1.5010    2.6960 sy        1 1OJ      1.512900
     31 O30        -3.2120    1.0210    4.0070 o         1 1OJ     -0.635300
     32 O31        -3.2800    2.8500    2.4630 o         1 1OJ     -0.635300
     33 C32        -3.8700    0.5430    1.6240 ca        1 1OJ     -0.415500
     34 C35        -5.3990   -1.0190   -0.1300 ca        1 1OJ      0.042000
     35 C36        -4.6620    0.0600   -0.6370 ca        1 1OJ     -0.401500
     36 C37        -3.9150    0.8310    0.2560 ca        1 1OJ      0.099000
     37 S38        -4.6410    0.3660   -2.3080 sy        1 1OJ      1.530200
     38 O39        -3.3090    0.2700   -2.7580 o         1 1OJ     -0.658300
     39 O40        -5.5820   -0.4980   -2.9090 o         1 1OJ     -0.658300
     40 N41        -5.1370    1.8780   -2.4140 n3        1 1OJ     -1.027700
     41 H1          1.8600   -1.3400    1.9400 ha        1 1OJ      0.137000
     42 H2         -0.3620   -1.6050   -2.5380 ha        1 1OJ      0.159000
     43 H3         -0.3240    0.5250   -1.2990 ha        1 1OJ      0.158000
     44 H4          3.6180   -2.8800    1.4850 h1        1 1OJ      0.035200
     45 H5          2.3640   -3.3500    2.7360 h1        1 1OJ      0.035200
     46 H6          1.1820    0.8450    2.1940 h1        1 1OJ      0.078700
     47 H7         -5.9570   -2.1750    1.6140 ha        1 1OJ      0.153000
     48 H8         -0.8310   -5.9660   -1.9820 hc        1 1OJ      0.048867
     49 H9         -0.8000   -5.8750   -3.8010 hc        1 1OJ      0.048867
     50 H10         0.7300   -6.2000   -2.8690 hc        1 1OJ      0.048867
     51 H11        -4.5880   -0.7900    3.1790 ha        1 1OJ      0.166000
     52 H12         8.0600    2.7100   -2.3040 h4        1 1OJ      0.022100
     53 H13         7.8050    1.5650    1.6830 h4        1 1OJ      0.020100
     54 H14         5.5430    2.8090   -2.5480 ha        1 1OJ      0.144000
     55 H15         5.5650    1.2730    2.8110 ha        1 1OJ      0.136000
     56 H16         3.0990    1.3450    2.7120 ha        1 1OJ      0.133000
     57 H17         3.3070    2.5130   -1.4850 ha        1 1OJ      0.141000
     58 H18         1.2690    2.3480   -0.3400 hn        1 1OJ      0.409800
     59 H19        -0.9230    0.5690    2.9850 hn        1 1OJ      0.339500
     60 H20         2.7510   -5.7890    2.1820 hc        1 1OJ      0.050367
     61 H21         4.0100   -5.3170    0.9720 hc        1 1OJ      0.050367
     62 H22         4.2800   -4.9750    2.7390 hc        1 1OJ      0.050367
     63 H23        -0.9570   -3.5930   -2.7380 h1        1 1OJ      0.053700
     64 H24         1.0640   -2.5850   -3.9080 hc        1 1OJ      0.048867
     65 H25         1.7870   -4.2360   -4.0650 hc        1 1OJ      0.048867
     66 H26         0.2420   -3.8380   -4.9340 hc        1 1OJ      0.048867
     67 H27        -6.0040   -1.6340   -0.8250 ha        1 1OJ      0.169000
     68 H28        -3.3300    1.6940   -0.1240 ha        1 1OJ      0.171000
     69 H29        -4.5260    2.6570   -2.4180 hn        1 1OJ      0.454800
     70 H30        -6.0880    2.1410   -2.4910 hn        1 1OJ      0.454800
     71 O23         1.8740   -3.8030    0.7580 os        1 1OJ     -0.308900
@<TRIPOS>BOND
     1    1    9 1   
     2    1   24 2   
     3    1   25 1   
     4    2    3 ar  
     5    2    5 ar  
     6    2   71 1   
     7    3    4 ar  
     8    3   41 1   
     9    4    7 ar  
    10    4    9 1   
    11    5    6 ar  
    12    5   26 1   
    13    6    7 ar  
    14    6   42 1   
    15    7   43 1   
    16    8   27 1   
    17    8   44 1   
    18    8   45 1   
    19    8   71 1   
    20    9   23 1   
    21    9   46 1   
    22   10   12 ar  
    23   10   34 ar  
    24   10   47 1   
    25   11   28 1   
    26   11   48 1   
    27   11   49 1   
    28   11   50 1   
    29   12   33 ar  
    30   12   51 1   
    31   13   14 ar  
    32   13   18 ar  
    33   13   52 1   
    34   14   15 ar  
    35   15   16 ar  
    36   15   53 1   
    37   16   17 ar  
    38   16   19 ar  
    39   17   18 ar  
    40   17   22 ar  
    41   18   54 1   
    42   19   20 ar  
    43   19   55 1   
    44   20   21 ar  
    45   20   56 1   
    46   21   22 ar  
    47   21   23 1   
    48   22   57 1   
    49   23   58 1   
    50   25   30 1   
    51   25   59 1   
    52   26   28 1   
    53   27   60 1   
    54   27   61 1   
    55   27   62 1   
    56   28   29 1   
    57   28   63 1   
    58   29   64 1   
    59   29   65 1   
    60   29   66 1   
    61   30   31 2   
    62   30   32 2   
    63   30   33 1   
    64   33   36 ar  
    65   34   35 ar  
    66   34   67 1   
    67   35   36 ar  
    68   35   37 1   
    69   36   68 1   
    70   37   38 2   
    71   37   39 2   
    72   37   40 1   
    73   40   69 1   
    74   40   70 1   
@<TRIPOS>SUBSTRUCTURE
     1 1OJ         1 TEMP              0 ****  ****    0 ROOT
