@<TRIPOS>MOLECULE
1OK
   69    72     1     0     0
SMALL
bcc


@<TRIPOS>ATOM
      1 C13         0.6260    1.2910    0.5090 ca        1 1OK     -0.205300
      2 C18         2.0210    1.0680    0.6000 ca        1 1OK     -0.069000
      3 C17         2.5900    0.5290    1.7260 ca        1 1OK     -0.201000
      4 C16         1.7770    0.1590    2.8450 ca        1 1OK      0.127600
      5 C15         0.4030    0.3620    2.7710 ca        1 1OK     -0.169000
      6 C21         3.6090   -0.0360    4.4690 c3        1 1OK      0.244800
      7 C22         4.1440   -0.8810    5.5970 ca        1 1OK     -0.181300
      8 C23         3.5870    1.4200    5.0430 c         1 1OK      0.484100
      9 C24         5.3460   -1.5800    5.4020 ca        1 1OK     -0.173000
     10 C11        -1.5880    1.1560    1.5410 ca        1 1OK     -0.288300
     11 C12        -0.1900    0.9270    1.6130 ca        1 1OK      0.042000
     12 C34         5.2220   -2.4730   10.8060 c3        1 1OK     -0.113100
     13 C27         3.9500   -1.7910    7.8310 ca        1 1OK     -0.195000
     14 C33         5.0190   -3.5900    9.8030 c3        1 1OK      0.136100
     15 N1          4.9140    2.0770    5.1960 ny        1 1OK     -0.603700
     16 S2          5.7420    2.7480    3.5880 sy        1 1OK      1.488200
     17 C3          4.7980    4.0040    3.3130 ca        1 1OK     -0.545500
     18 C4          5.1050    5.2750    3.8550 ca        1 1OK      0.013000
     19 C5          4.3260    6.3850    3.5680 ca        1 1OK     -0.144500
     20 C6          3.2140    6.2610    2.7270 ca        1 1OK      0.008000
     21 C7          2.8910    5.0180    2.1760 ca        1 1OK     -0.144500
     22 C8          3.6700    3.9070    2.4650 ca        1 1OK      0.013000
     23 N9         -1.3650    2.0860   -0.6900 nb        1 1OK     -0.729000
     24 C10        -2.1040    1.7310    0.3920 ca        1 1OK      0.451200
     25 C14        -0.0280    1.8840   -0.6520 ca        1 1OK      0.654200
     26 N19         0.7580    2.3340   -1.7220 nv        1 1OK     -0.923500
     27 N20         2.3410   -0.4680    3.9790 nu        1 1OK     -0.706600
     28 C25         5.8520   -2.3810    6.4200 ca        1 1OK      0.113100
     29 C26         5.1450   -2.4930    7.6610 ca        1 1OK      0.163100
     30 C28         3.4500   -0.9960    6.7970 ca        1 1OK     -0.105000
     31 O29         5.7450   -3.2990    8.5850 os        1 1OK     -0.296900
     32 O30         7.0350   -3.0730    6.3590 os        1 1OK     -0.298900
     33 C31         7.5670   -3.2970    5.0410 c3        1 1OK      0.125400
     34 C32         8.6950   -4.2860    5.2160 c3        1 1OK     -0.102100
     35 C35         5.6130   -4.8970   10.2960 c3        1 1OK     -0.113100
     36 O36         2.6120    2.0550    5.4190 o         1 1OK     -0.446100
     37 O37         6.9900    3.0490    4.0990 o         1 1OK     -0.579800
     38 O38         5.5770    1.6770    2.7310 o         1 1OK     -0.579800
     39 H1          2.6810    1.3270   -0.2440 ha        1 1OK      0.139000
     40 H2          3.6780    0.3500    1.7440 ha        1 1OK      0.149000
     41 H3         -0.2650    0.0830    3.6030 ha        1 1OK      0.148000
     42 H4          4.3440   -0.0400    3.6030 h1        1 1OK      0.119700
     43 H5          5.8670   -1.5190    4.4340 ha        1 1OK      0.149000
     44 H6         -2.2370    0.8770    2.3810 ha        1 1OK      0.153000
     45 H7          4.8250   -1.5080   10.4120 hc        1 1OK      0.054700
     46 H8          6.3090   -2.3440   11.0250 hc        1 1OK      0.054700
     47 H9          4.6910   -2.7230   11.7560 hc        1 1OK      0.054700
     48 H10         3.3860   -1.8640    8.7730 ha        1 1OK      0.160000
     49 H11         3.9280   -3.7290    9.5680 h1        1 1OK      0.052700
     50 H12         4.8310    2.8460    5.8590 hn        1 1OK      0.456800
     51 H13         5.9950    5.3830    4.5030 ha        1 1OK      0.169500
     52 H14         4.5860    7.3670    3.9980 ha        1 1OK      0.177500
     53 H15         2.5940    7.1460    2.4990 ha        1 1OK      0.172000
     54 H16         2.0170    4.9180    1.5080 ha        1 1OK      0.177500
     55 H17         3.4090    2.9260    2.0160 ha        1 1OK      0.169500
     56 H18        -3.1880    1.9300    0.2830 h4        1 1OK      0.035100
     57 H19         1.5060    1.7200   -1.9580 hn        1 1OK      0.409800
     58 H20         0.2500    2.6580   -2.5200 hn        1 1OK      0.409800
     59 H21         1.6800   -0.7080    4.6900 hn        1 1OK      0.426800
     60 H22         2.4980   -0.4610    6.9470 ha        1 1OK      0.139000
     61 H23         7.9420   -2.3210    4.6340 h1        1 1OK      0.037700
     62 H24         6.7640   -3.7030    4.3720 h1        1 1OK      0.037700
     63 H25         8.3100   -5.2480    5.6320 hc        1 1OK      0.058033
     64 H26         9.1690   -4.4770    4.2240 hc        1 1OK      0.058033
     65 H27         9.4630   -3.8830    5.9200 hc        1 1OK      0.058033
     66 H28         6.7110   -4.7860   10.4660 hc        1 1OK      0.054700
     67 H29         5.1200   -5.1830   11.2560 hc        1 1OK      0.054700
     68 H30         5.4520   -5.7040    9.5430 hc        1 1OK      0.054700
     69 H121        5.5420    1.3830    5.6060 hn        1 1OK      0.456800
@<TRIPOS>BOND
     1    1    2 ar  
     2    1   11 ar  
     3    1   25 ar  
     4    2    3 ar  
     5    2   39 1   
     6    3    4 ar  
     7    3   40 1   
     8    4    5 ar  
     9    4   27 1   
    10    5   11 ar  
    11    5   41 1   
    12    6    7 1   
    13    6    8 1   
    14    6   27 1   
    15    6   42 1   
    16    7    9 ar  
    17    7   30 ar  
    18    8   15 1   
    19    8   36 2   
    20    9   28 ar  
    21    9   43 1   
    22   10   11 ar  
    23   10   24 ar  
    24   10   44 1   
    25   12   14 1   
    26   12   45 1   
    27   12   46 1   
    28   12   47 1   
    29   13   29 ar  
    30   13   30 ar  
    31   13   48 1   
    32   14   31 1   
    33   14   35 1   
    34   14   49 1   
    35   15   16 1   
    36   15   50 1   
    37   15   69 1   
    38   16   17 1   
    39   16   37 2   
    40   16   38 2   
    41   17   18 ar  
    42   17   22 ar  
    43   18   19 ar  
    44   18   51 1   
    45   19   20 ar  
    46   19   52 1   
    47   20   21 ar  
    48   20   53 1   
    49   21   22 ar  
    50   21   54 1   
    51   22   55 1   
    52   23   24 ar  
    53   23   25 ar  
    54   24   56 1   
    55   25   26 1   
    56   26   57 1   
    57   26   58 1   
    58   27   59 1   
    59   28   29 ar  
    60   28   32 1   
    61   29   31 1   
    62   30   60 1   
    63   32   33 1   
    64   33   34 1   
    65   33   61 1   
    66   33   62 1   
    67   34   63 1   
    68   34   64 1   
    69   34   65 1   
    70   35   66 1   
    71   35   67 1   
    72   35   68 1   
@<TRIPOS>SUBSTRUCTURE
     1 1OK         1 TEMP              0 ****  ****    0 ROOT
