@<TRIPOS>MOLECULE
1OK
   68    71     1     0     0
SMALL
bcc


@<TRIPOS>ATOM
      1 C13         5.4700    1.7530   -0.2420 ca        1 1OK     -0.199300
      2 C18         4.3240    2.1990   -0.9460 ca        1 1OK     -0.072000
      3 C17         3.0590    1.8420   -0.5510 ca        1 1OK     -0.166000
      4 C16         2.8590    1.0020    0.5910 ca        1 1OK      0.143600
      5 C15         3.9750    0.5620    1.2970 ca        1 1OK     -0.185000
      6 C21         0.5820    0.2440    0.0860 c3        1 1OK      0.186800
      7 C22        -0.7770    0.8800    0.2680 ca        1 1OK     -0.100300
      8 C23         0.3830   -1.2980    0.1400 c         1 1OK      0.665100
      9 C24        -1.4660    1.3100   -0.8770 ca        1 1OK     -0.192000
     10 C11         6.4230    0.5080    1.6350 ca        1 1OK     -0.287300
     11 C12         5.2820    0.9380    0.9040 ca        1 1OK      0.044000
     12 C34        -5.7990    2.2970    2.6090 c3        1 1OK     -0.110100
     13 C27        -2.6100    1.6250    1.6620 ca        1 1OK     -0.176000
     14 C33        -4.9850    3.2570    1.7620 c3        1 1OK      0.137100
     15 N1         -0.4470   -1.8590   -0.8220 n         1 1OK     -0.662300
     16 S2         -0.7340   -3.4590   -1.1590 sy        1 1OK      1.511900
     17 C3         -1.5970   -3.9990    0.1660 ca        1 1OK     -0.404500
     18 C4         -2.9910   -4.1420    0.0980 ca        1 1OK     -0.003500
     19 C5         -3.7110   -4.6370    1.1800 ca        1 1OK     -0.161000
     20 C6         -3.0450   -4.9990    2.3520 ca        1 1OK     -0.058000
     21 C7         -1.6590   -4.8620    2.4370 ca        1 1OK     -0.161000
     22 C8         -0.9430   -4.3640    1.3510 ca        1 1OK     -0.003500
     23 N9          7.9040    1.6580    0.0940 nb        1 1OK     -0.748000
     24 C10         7.6740    0.8960    1.1960 ca        1 1OK      0.436200
     25 C14         6.8380    2.0950   -0.6150 ca        1 1OK      0.659200
     26 N19         7.0580    2.9570   -1.6980 nh        1 1OK     -0.926500
     27 N20         1.5520    0.7250    1.0510 nh        1 1OK     -0.701600
     28 C25        -2.7240    1.8970   -0.7540 ca        1 1OK      0.113100
     29 C26        -3.3100    2.0550    0.5350 ca        1 1OK      0.118100
     30 C28        -1.3470    1.0420    1.5260 ca        1 1OK     -0.096000
     31 O29        -4.5770    2.5900    0.5480 os        1 1OK     -0.311900
     32 O30        -3.4840    2.3670   -1.8030 os        1 1OK     -0.304900
     33 C31        -2.9760    2.0930   -3.1170 c3        1 1OK      0.124400
     34 C32        -4.0230    2.6070   -4.0780 c3        1 1OK     -0.099100
     35 C35        -5.8230    4.4400    1.3090 c3        1 1OK     -0.110100
     36 O36         0.9360   -2.0050    1.0000 o         1 1OK     -0.585100
     37 O37        -1.5710   -3.4540   -2.2980 o         1 1OK     -0.640800
     38 O38         0.4730   -4.1610   -1.2760 o         1 1OK     -0.640800
     39 H1          4.4300    2.8620   -1.8180 ha        1 1OK      0.132000
     40 H2          2.1880    2.2300   -1.1010 ha        1 1OK      0.137000
     41 H3          3.8690   -0.0860    2.1820 ha        1 1OK      0.143000
     42 H4          0.9540    0.4820   -0.9590 h1        1 1OK      0.087700
     43 H5         -1.0000    1.2010   -1.8670 ha        1 1OK      0.137000
     44 H6          6.2970   -0.1190    2.5260 ha        1 1OK      0.144000
     45 H7         -6.1610    2.8200    3.5250 hc        1 1OK      0.047867
     46 H8         -6.6790    1.9260    2.0310 hc        1 1OK      0.047867
     47 H9         -5.1820    1.4170    2.9100 hc        1 1OK      0.047867
     48 H10        -3.0480    1.7370    2.6640 ha        1 1OK      0.146000
     49 H11        -4.0850    3.6210    2.3290 h1        1 1OK      0.051700
     50 H12        -0.9380   -1.1810   -1.3700 hn        1 1OK      0.339500
     51 H13        -3.5160   -3.8670   -0.8350 ha        1 1OK      0.164000
     52 H14        -4.8040   -4.7460    1.1100 ha        1 1OK      0.143500
     53 H15        -3.6130   -5.3930    3.2090 ha        1 1OK      0.137000
     54 H16        -1.1300   -5.1470    3.3580 ha        1 1OK      0.143500
     55 H17         0.1550   -4.2460    1.4180 ha        1 1OK      0.164000
     56 H18         8.5930    0.5890    1.7280 h4        1 1OK      0.020100
     57 H19         6.4200    2.8400   -2.4520 hn        1 1OK      0.405800
     58 H20         8.0070    3.0610   -1.9850 hn        1 1OK      0.405800
     59 H21         1.5500    0.1690    1.8870 hn        1 1OK      0.408800
     60 H22        -0.8130    0.7120    2.4310 ha        1 1OK      0.143000
     61 H23        -2.0000    2.6290   -3.2550 h1        1 1OK      0.036200
     62 H24        -2.8200    0.9890   -3.2390 h1        1 1OK      0.036200
     63 H25        -4.9940    2.0820   -3.9140 hc        1 1OK      0.051367
     64 H26        -4.1860    3.7010   -3.9280 hc        1 1OK      0.051367
     65 H27        -3.6780    2.4250   -5.1240 hc        1 1OK      0.051367
     66 H28        -6.2110    4.9810    2.2040 hc        1 1OK      0.047867
     67 H29        -5.2040    5.1370    0.6950 hc        1 1OK      0.047867
     68 H30        -6.6820    4.0910    0.6890 hc        1 1OK      0.047867
@<TRIPOS>BOND
     1    1    2 ar  
     2    1   11 ar  
     3    1   25 ar  
     4    2    3 ar  
     5    2   39 1   
     6    3    4 ar  
     7    3   40 1   
     8    4    5 ar  
     9    4   27 1   
    10    5   11 ar  
    11    5   41 1   
    12    6    7 1   
    13    6    8 1   
    14    6   27 1   
    15    6   42 1   
    16    7    9 ar  
    17    7   30 ar  
    18    8   15 1   
    19    8   36 2   
    20    9   28 ar  
    21    9   43 1   
    22   10   11 ar  
    23   10   24 ar  
    24   10   44 1   
    25   12   14 1   
    26   12   45 1   
    27   12   46 1   
    28   12   47 1   
    29   13   29 ar  
    30   13   30 ar  
    31   13   48 1   
    32   14   31 1   
    33   14   35 1   
    34   14   49 1   
    35   15   16 1   
    36   15   50 1   
    37   16   17 1   
    38   16   37 2   
    39   16   38 2   
    40   17   18 ar  
    41   17   22 ar  
    42   18   19 ar  
    43   18   51 1   
    44   19   20 ar  
    45   19   52 1   
    46   20   21 ar  
    47   20   53 1   
    48   21   22 ar  
    49   21   54 1   
    50   22   55 1   
    51   23   24 ar  
    52   23   25 ar  
    53   24   56 1   
    54   25   26 1   
    55   26   57 1   
    56   26   58 1   
    57   27   59 1   
    58   28   29 ar  
    59   28   32 1   
    60   29   31 1   
    61   30   60 1   
    62   32   33 1   
    63   33   34 1   
    64   33   61 1   
    65   33   62 1   
    66   34   63 1   
    67   34   64 1   
    68   34   65 1   
    69   35   66 1   
    70   35   67 1   
    71   35   68 1   
@<TRIPOS>SUBSTRUCTURE
     1 1OK         1 TEMP              0 ****  ****    0 ROOT
