@<TRIPOS>MOLECULE
1OK
   68    56     1     0     0
SMALL
bcc


@<TRIPOS>ATOM
      1 C13        -3.4580    0.1820   -3.6610 c1        1 1OK     -0.132000
      2 C18        -2.1970   -0.3670   -3.5490 c1        1 1OK     -0.075000
      3 C17        -1.4530   -0.1810   -2.3780 c1        1 1OK     -0.191000
      4 C16        -1.9880    0.5620   -1.3190 c1        1 1OK      0.048500
      5 C15        -3.2480    1.1110   -1.4270 c2        1 1OK     -0.180000
      6 C21        -0.0490    0.5360    0.2050 c3        1 1OK      0.035000
      7 C22         0.1360   -0.1770    1.5520 c2        1 1OK     -0.121000
      8 C23         0.6500    1.8920    0.2390 c1        1 1OK      0.297000
      9 C24         0.9300   -1.3290    1.5130 c1        1 1OK     -0.100000
     10 C11        -5.2130    1.5770   -2.7730 c1        1 1OK     -0.191000
     11 C12        -3.9940    0.9240   -2.6050 c1        1 1OK      0.048500
     12 C34         0.2360   -2.0630    7.3670 c3        1 1OK     -0.229500
     13 C27         0.0830   -0.2760    3.9490 c1        1 1OK     -0.194000
     14 C33         0.1400   -2.6210    5.9230 c3        1 1OK      0.028000
     15 N1          1.5480    2.2410   -0.7950 n2        1 1OK     -0.843000
     16 S2          1.5670    3.8230   -1.4000 s4        1 1OK      2.074800
     17 C3          2.6790    3.9410   -2.8070 c1        1 1OK     -0.845000
     18 C4          2.3130    3.4490   -4.0000 c1        1 1OK     -0.097500
     19 C5          3.1980    3.5070   -5.0730 c1        1 1OK     -0.097500
     20 C6          4.4830    4.0870   -4.9010 c1        1 1OK     -0.097500
     21 C7          4.8440    4.5780   -3.7060 c1        1 1OK     -0.097500
     22 C8          3.9710    4.5220   -2.6420 c1        1 1OK     -0.014000
     23 N9         -5.3740    0.7690   -5.0160 n1        1 1OK     -0.221000
     24 C10        -5.8970    1.4870   -4.0000 c1        1 1OK     -0.030000
     25 C14        -4.1290    0.1000   -4.8520 c1        1 1OK      0.135000
     26 N19        -4.0920   -0.5620   -6.1110 n2        1 1OK     -0.324000
     27 N20        -1.5010    0.7310   -0.0640 n2        1 1OK     -0.254000
     28 C25         1.3020   -1.9580    2.7060 c1        1 1OK      0.051500
     29 C26         0.8900   -1.4470    3.9100 c1        1 1OK      0.051500
     30 C28        -0.2840    0.3430    2.7850 c2        1 1OK     -0.082000
     31 O29         1.2590   -2.1330    5.1560 o         1 1OK     -0.210000
     32 O30         2.1480   -3.1800    2.6790 o         1 1OK     -0.220000
     33 C31         1.5690   -4.2640    1.9690 c3        1 1OK     -0.023000
     34 C32         2.4270   -5.4600    2.1240 c3        1 1OK     -0.216000
     35 C35         0.1790   -4.1140    5.9630 c3        1 1OK     -0.229500
     36 O36         0.2900    2.7470    1.0490 o         1 1OK     -0.332000
     37 O37         0.2360    4.2700   -1.7410 o         1 1OK     -0.522900
     38 O38         1.9180    4.7500   -0.3970 o         1 1OK     -0.522900
     39 H1         -1.8390   -0.8630   -4.2580 ha        1 1OK      0.131000
     40 H2         -0.5810   -0.5560   -2.3010 ha        1 1OK      0.140500
     41 H3         -3.6540    1.6750   -0.6240 ha        1 1OK      0.146000
     42 H4          0.3630   -0.0410   -0.5490 h1        1 1OK      0.124000
     43 H5          1.2260   -1.6920    0.6520 ha        1 1OK      0.146000
     44 H6         -5.5680    2.0610   -2.0920 ha        1 1OK      0.140500
     45 H7          0.7580   -2.6300    7.8830 hc        1 1OK      0.089167
     46 H8          0.6380   -1.1910    7.3450 hc        1 1OK      0.089167
     47 H9         -0.6830   -1.9990    7.7680 hc        1 1OK      0.089167
     48 H10        -0.1990    0.0760    4.7790 ha        1 1OK      0.147000
     49 H11        -0.7000   -2.3260    5.5100 h1        1 1OK      0.090000
     50 H12         2.1290    1.6720   -1.0650 hn        1 1OK      0.248000
     51 H13         1.3710    3.0240   -4.1220 ha        1 1OK      0.147500
     52 H14         2.9410    3.1570   -5.9260 ha        1 1OK      0.147500
     53 H15         5.0690    4.1270   -5.6080 ha        1 1OK      0.147500
     54 H16         5.7370    4.9810   -3.5880 ha        1 1OK      0.147500
     55 H17         4.2620    4.9090   -1.6990 ha        1 1OK      0.157000
     56 H18        -6.7160    1.9270   -4.1110 ha        1 1OK      0.157000
     57 H19        -3.5810   -1.3030   -6.2170 hn        1 1OK      0.199500
     58 H20        -4.7080   -0.2380   -6.8900 hn        1 1OK      0.199500
     59 H21        -2.0710    1.0560    0.6230 hn        1 1OK      0.203000
     60 H22        -0.8470    1.1510    2.8130 ha        1 1OK      0.150000
     61 H23         1.5020   -4.0470    1.0830 h1        1 1OK      0.083000
     62 H24         0.6040   -4.4660    2.3550 h1        1 1OK      0.083000
     63 H25         2.0950   -6.1420    1.6100 hc        1 1OK      0.085333
     64 H26         3.3550   -5.2470    1.8340 hc        1 1OK      0.085333
     65 H27         2.4370   -5.7200    3.0200 hc        1 1OK      0.085333
     66 H28        -0.4590   -4.4510    6.6770 hc        1 1OK      0.089167
     67 H29         1.0990   -4.4140    6.1750 hc        1 1OK      0.089167
     68 H30        -0.1010   -4.4880    5.0500 hc        1 1OK      0.089167
@<TRIPOS>BOND
     1    1    2 1   
     2    1   25 1   
     3    2   39 1   
     4    3    4 1   
     5    3   40 1   
     6    4    5 1   
     7    5   11 1   
     8    5   41 1   
     9    6    7 1   
    10    6    8 1   
    11    6   27 1   
    12    6   42 1   
    13    7    9 1   
    14    7   30 1   
    15    8   36 1   
    16    9   43 1   
    17   10   11 1   
    18   10   44 1   
    19   12   14 1   
    20   12   45 1   
    21   12   46 1   
    22   12   47 1   
    23   13   30 1   
    24   13   48 1   
    25   14   31 1   
    26   14   35 1   
    27   14   49 1   
    28   15   16 1   
    29   15   50 1   
    30   16   37 1   
    31   16   38 1   
    32   17   22 1   
    33   18   19 1   
    34   18   51 1   
    35   19   52 1   
    36   20   21 1   
    37   20   53 1   
    38   21   54 1   
    39   22   55 1   
    40   23   24 1   
    41   24   56 1   
    42   26   57 1   
    43   26   58 1   
    44   27   59 1   
    45   28   29 1   
    46   30   60 1   
    47   32   33 1   
    48   33   34 1   
    49   33   61 1   
    50   33   62 1   
    51   34   63 1   
    52   34   64 1   
    53   34   65 1   
    54   35   66 1   
    55   35   67 1   
    56   35   68 1   
@<TRIPOS>SUBSTRUCTURE
     1 1OK         1 TEMP              0 ****  ****    0 ROOT
