@<TRIPOS>MOLECULE
1OK
   68    71     1     0     0
SMALL
bcc


@<TRIPOS>ATOM
      1 C13        -0.1000   -0.8250    0.0440 ca        1 1OK     -0.200300
      2 C18         1.0380   -1.4990    0.5510 ca        1 1OK     -0.072000
      3 C17         1.6710   -1.0740    1.6920 ca        1 1OK     -0.167000
      4 C16         1.2010    0.0750    2.4050 ca        1 1OK      0.145600
      5 C15         0.0940    0.7590    1.9090 ca        1 1OK     -0.187000
      6 C21         3.2330    0.5330    3.6990 c3        1 1OK      0.186800
      7 C22         3.8100   -0.1810    4.8990 ca        1 1OK     -0.101300
      8 C23         3.7380    2.0040    3.7420 c         1 1OK      0.668100
      9 C24         4.9630   -0.9620    4.7150 ca        1 1OK     -0.193000
     10 C11        -1.6940    1.0220    0.2230 ca        1 1OK     -0.288300
     11 C12        -0.5680    0.3220    0.7360 ca        1 1OK      0.044000
     12 C34         4.9990   -1.4840   10.3350 c3        1 1OK     -0.109600
     13 C27         3.7940   -0.7430    7.2530 ca        1 1OK     -0.177000
     14 C33         4.8250   -2.5380    9.2590 c3        1 1OK      0.137100
     15 N1          5.1120    2.1990    3.7160 n         1 1OK     -0.661300
     16 S2          5.9710    3.6140    3.5830 sy        1 1OK      1.511900
     17 C3          5.6990    4.3860    5.0400 ca        1 1OK     -0.404500
     18 C4          6.6650    4.3510    6.0560 ca        1 1OK     -0.003500
     19 C5          6.4670    5.0320    7.2530 ca        1 1OK     -0.161000
     20 C6          5.2930    5.7610    7.4520 ca        1 1OK     -0.058000
     21 C7          4.3210    5.8040    6.4520 ca        1 1OK     -0.161000
     22 C8          4.5240    5.1190    5.2570 ca        1 1OK     -0.003500
     23 N9         -1.8970   -0.5530   -1.6120 nb        1 1OK     -0.748000
     24 C10        -2.2950    0.5520   -0.9280 ca        1 1OK      0.436200
     25 C14        -0.8180   -1.2320   -1.1580 ca        1 1OK      0.659200
     26 N19        -0.3410   -2.3150   -1.9080 nh        1 1OK     -0.927500
     27 N20         1.7860    0.4360    3.6380 nh        1 1OK     -0.705600
     28 C25         5.5300   -1.6320    5.7970 ca        1 1OK      0.112100
     29 C26         4.9400   -1.5200    7.0890 ca        1 1OK      0.118100
     30 C28         3.2310   -0.0790    6.1600 ca        1 1OK     -0.095000
     31 O29         5.6060   -2.1710    8.1010 os        1 1OK     -0.310900
     32 O30         6.6460   -2.4370    5.7300 os        1 1OK     -0.305900
     33 C31         7.3540   -2.4240    4.4820 c3        1 1OK      0.124400
     34 C32         8.5910   -3.2650    4.7020 c3        1 1OK     -0.099100
     35 C35         5.3770   -3.8800    9.7070 c3        1 1OK     -0.109600
     36 O36         2.9560    2.9680    3.7950 o         1 1OK     -0.586100
     37 O37         7.3260    3.2180    3.5050 o         1 1OK     -0.640300
     38 O38         5.4840    4.3870    2.5220 o         1 1OK     -0.640300
     39 H1          1.4410   -2.3810    0.0290 ha        1 1OK      0.131000
     40 H2          2.5370   -1.6360    2.0760 ha        1 1OK      0.137000
     41 H3         -0.2940    1.6560    2.4160 ha        1 1OK      0.143000
     42 H4          3.6760    0.0740    2.7600 h1        1 1OK      0.087700
     43 H5          5.4020   -1.0580    3.7110 ha        1 1OK      0.137000
     44 H6         -2.0640    1.9160    0.7390 ha        1 1OK      0.145000
     45 H7          6.0800   -1.3710   10.5920 hc        1 1OK      0.048033
     46 H8          4.6190   -0.4950    9.9830 hc        1 1OK      0.048033
     47 H9          4.4370   -1.7860   11.2500 hc        1 1OK      0.048033
     48 H10         3.3270   -0.6430    8.2440 ha        1 1OK      0.145000
     49 H11         3.7410   -2.6460    8.9790 h1        1 1OK      0.051700
     50 H12         5.6370    1.3520    3.8030 hn        1 1OK      0.340500
     51 H13         7.6000    3.7850    5.8920 ha        1 1OK      0.164000
     52 H14         7.2360    4.9980    8.0390 ha        1 1OK      0.143500
     53 H15         5.1350    6.3030    8.3980 ha        1 1OK      0.137000
     54 H16         3.3950    6.3780    6.6040 ha        1 1OK      0.143500
     55 H17         3.7510    5.1440    4.4650 ha        1 1OK      0.164000
     56 H18        -3.1730    1.0600   -1.3690 h4        1 1OK      0.020100
     57 H19        -0.9320   -2.6260   -2.6480 hn        1 1OK      0.405800
     58 H20         0.0440   -3.0530   -1.3640 hn        1 1OK      0.405800
     59 H21         1.3410    1.2320    4.0580 hn        1 1OK      0.411800
     60 H22         2.3240    0.5260    6.3120 ha        1 1OK      0.144000
     61 H23         7.6230   -1.3690    4.2120 h1        1 1OK      0.036700
     62 H24         6.7010   -2.8640    3.6830 h1        1 1OK      0.036700
     63 H25         8.3090   -4.3040    4.9970 hc        1 1OK      0.051367
     64 H26         9.1810   -3.2980    3.7560 hc        1 1OK      0.051367
     65 H27         9.2200   -2.8280    5.5130 hc        1 1OK      0.051367
     66 H28         4.8450   -4.2080   10.6310 hc        1 1OK      0.048033
     67 H29         6.4700   -3.7970    9.9210 hc        1 1OK      0.048033
     68 H30         5.2330   -4.6430    8.9050 hc        1 1OK      0.048033
@<TRIPOS>BOND
     1    1    2 ar  
     2    1   11 ar  
     3    1   25 ar  
     4    2    3 ar  
     5    2   39 1   
     6    3    4 ar  
     7    3   40 1   
     8    4    5 ar  
     9    4   27 1   
    10    5   11 ar  
    11    5   41 1   
    12    6    7 1   
    13    6    8 1   
    14    6   27 1   
    15    6   42 1   
    16    7    9 ar  
    17    7   30 ar  
    18    8   15 1   
    19    8   36 2   
    20    9   28 ar  
    21    9   43 1   
    22   10   11 ar  
    23   10   24 ar  
    24   10   44 1   
    25   12   14 1   
    26   12   45 1   
    27   12   46 1   
    28   12   47 1   
    29   13   29 ar  
    30   13   30 ar  
    31   13   48 1   
    32   14   31 1   
    33   14   35 1   
    34   14   49 1   
    35   15   16 1   
    36   15   50 1   
    37   16   17 1   
    38   16   37 2   
    39   16   38 2   
    40   17   18 ar  
    41   17   22 ar  
    42   18   19 ar  
    43   18   51 1   
    44   19   20 ar  
    45   19   52 1   
    46   20   21 ar  
    47   20   53 1   
    48   21   22 ar  
    49   21   54 1   
    50   22   55 1   
    51   23   24 ar  
    52   23   25 ar  
    53   24   56 1   
    54   25   26 1   
    55   26   57 1   
    56   26   58 1   
    57   27   59 1   
    58   28   29 ar  
    59   28   32 1   
    60   29   31 1   
    61   30   60 1   
    62   32   33 1   
    63   33   34 1   
    64   33   61 1   
    65   33   62 1   
    66   34   63 1   
    67   34   64 1   
    68   34   65 1   
    69   35   66 1   
    70   35   67 1   
    71   35   68 1   
@<TRIPOS>SUBSTRUCTURE
     1 1OK         1 TEMP              0 ****  ****    0 ROOT
