@<TRIPOS>MOLECULE
1OK
   69    72     1     0     0
SMALL
bcc


@<TRIPOS>ATOM
      1 C13         0.6500    1.3060    0.4950 ca        1 1OK     -0.205300
      2 C18         2.0460    1.0950    0.5950 ca        1 1OK     -0.069000
      3 C17         2.6110    0.5490    1.7210 ca        1 1OK     -0.201000
      4 C16         1.7910    0.1590    2.8280 ca        1 1OK      0.127600
      5 C15         0.4160    0.3510    2.7450 ca        1 1OK     -0.169000
      6 C21         3.6110   -0.0380    4.4650 c3        1 1OK      0.244800
      7 C22         4.1440   -0.8900    5.5880 ca        1 1OK     -0.181300
      8 C23         3.5710    1.4110    5.0560 c         1 1OK      0.484100
      9 C24         5.3550   -1.5750    5.3960 ca        1 1OK     -0.173000
     10 C11        -1.5710    1.1400    1.5070 ca        1 1OK     -0.288300
     11 C12        -0.1720    0.9230    1.5880 ca        1 1OK      0.042000
     12 C34         5.1910   -2.5330   10.7890 c3        1 1OK     -0.113100
     13 C27         3.9400   -1.8280    7.8100 ca        1 1OK     -0.195000
     14 C33         5.0080   -3.6400    9.7710 c3        1 1OK      0.136100
     15 N1          4.8910    2.0790    5.2260 n4        1 1OK     -0.603700
     16 S2          5.7260    2.7760    3.6340 sy        1 1OK      1.488200
     17 C3          4.7730    4.0260    3.3640 ca        1 1OK     -0.545500
     18 C4          5.0630    5.2930    3.9230 ca        1 1OK      0.013000
     19 C5          4.2770    6.3990    3.6420 ca        1 1OK     -0.144500
     20 C6          3.1730    6.2750    2.7900 ca        1 1OK      0.008000
     21 C7          2.8660    5.0350    2.2220 ca        1 1OK     -0.144500
     22 C8          3.6530    3.9280    2.5060 ca        1 1OK      0.013000
     23 N9         -1.3390    2.0970   -0.7120 nb        1 1OK     -0.729000
     24 C10        -2.0830    1.7230    0.3600 ca        1 1OK      0.451200
     25 C14        -0.0000    1.9060   -0.6640 ca        1 1OK      0.654200
     26 N19         0.7910    2.3760   -1.7240 nh        1 1OK     -0.923500
     27 N20         2.3520   -0.4750    3.9590 nh        1 1OK     -0.706600
     28 C25         5.8590   -2.3830    6.4090 ca        1 1OK      0.113100
     29 C26         5.1430   -2.5160    7.6430 ca        1 1OK      0.163100
     30 C28         3.4410   -1.0260    6.7810 ca        1 1OK     -0.105000
     31 O29         5.7420   -3.3270    8.5630 os        1 1OK     -0.296900
     32 O30         7.0500   -3.0640    6.3510 os        1 1OK     -0.298900
     33 C31         7.5960   -3.2670    5.0350 c3        1 1OK      0.125400
     34 C32         8.7320   -4.2470    5.2090 c3        1 1OK     -0.102100
     35 C35         5.6110   -4.9470   10.2540 c3        1 1OK     -0.113100
     36 O36         2.5870    2.0340    5.4300 o         1 1OK     -0.446100
     37 O37         6.9670    3.0820    4.1580 o         1 1OK     -0.579800
     38 O38         5.5780    1.7120    2.7630 o         1 1OK     -0.579800
     39 H1          2.7110    1.3700   -0.2400 ha        1 1OK      0.139000
     40 H2          3.7000    0.3790    1.7460 ha        1 1OK      0.149000
     41 H3         -0.2560    0.0570    3.5670 ha        1 1OK      0.148000
     42 H4          4.3530   -0.0250    3.6050 h1        1 1OK      0.119700
     43 H5          5.8830   -1.4990    4.4330 ha        1 1OK      0.149000
     44 H6         -2.2250    0.8460    2.3370 ha        1 1OK      0.153000
     45 H7          4.6530   -2.8000   11.7300 hc        1 1OK      0.054700
     46 H8          4.7880   -1.5670   10.4020 hc        1 1OK      0.054700
     47 H9          6.2750   -2.3960   11.0190 hc        1 1OK      0.054700
     48 H10         3.3680   -1.9170    8.7460 ha        1 1OK      0.160000
     49 H11         3.9210   -3.7870    9.5230 h1        1 1OK      0.052700
     50 H12         4.7950    2.8400    5.8980 hn        1 1OK      0.456800
     51 H13         5.9470    5.4020    4.5790 ha        1 1OK      0.169500
     52 H14         4.5240    7.3790    4.0840 ha        1 1OK      0.177500
     53 H15         2.5470    7.1570    2.5650 ha        1 1OK      0.172000
     54 H16         1.9990    4.9340    1.5460 ha        1 1OK      0.177500
     55 H17         3.4050    2.9490    2.0440 ha        1 1OK      0.169500
     56 H18        -3.1680    1.9130    0.2440 h4        1 1OK      0.035100
     57 H19         1.5470    1.7710   -1.9600 hn        1 1OK      0.409800
     58 H20         0.2860    2.7030   -2.5220 hn        1 1OK      0.409800
     59 H21         1.6870   -0.7290    4.6630 hn        1 1OK      0.426800
     60 H22         2.4830   -0.5010    6.9280 ha        1 1OK      0.139000
     61 H23         7.9640   -2.2830    4.6420 h1        1 1OK      0.037700
     62 H24         6.8030   -3.6730    4.3540 h1        1 1OK      0.037700
     63 H25         9.4890   -3.8450    5.9240 hc        1 1OK      0.058033
     64 H26         9.2160   -4.4220    4.2190 hc        1 1OK      0.058033
     65 H27         8.3520   -5.2180    5.6100 hc        1 1OK      0.058033
     66 H28         5.1110   -5.2490   11.2040 hc        1 1OK      0.054700
     67 H29         5.4640   -5.7460    9.4880 hc        1 1OK      0.054700
     68 H30         6.7060   -4.8270   10.4350 hc        1 1OK      0.054700
     69 H121        5.5220    1.3860    5.6350 hn        1 1OK      0.456800
@<TRIPOS>BOND
     1    1    2 ar  
     2    1   11 ar  
     3    1   25 ar  
     4    2    3 ar  
     5    2   39 1   
     6    3    4 ar  
     7    3   40 1   
     8    4    5 ar  
     9    4   27 1   
    10    5   11 ar  
    11    5   41 1   
    12    6    7 1   
    13    6    8 1   
    14    6   27 1   
    15    6   42 1   
    16    7    9 ar  
    17    7   30 ar  
    18    8   15 1   
    19    8   36 2   
    20    9   28 ar  
    21    9   43 1   
    22   10   11 ar  
    23   10   24 ar  
    24   10   44 1   
    25   12   14 1   
    26   12   45 1   
    27   12   46 1   
    28   12   47 1   
    29   13   29 ar  
    30   13   30 ar  
    31   13   48 1   
    32   14   31 1   
    33   14   35 1   
    34   14   49 1   
    35   15   16 1   
    36   15   50 1   
    37   15   69 1   
    38   16   17 1   
    39   16   37 2   
    40   16   38 2   
    41   17   18 ar  
    42   17   22 ar  
    43   18   19 ar  
    44   18   51 1   
    45   19   20 ar  
    46   19   52 1   
    47   20   21 ar  
    48   20   53 1   
    49   21   22 ar  
    50   21   54 1   
    51   22   55 1   
    52   23   24 ar  
    53   23   25 ar  
    54   24   56 1   
    55   25   26 1   
    56   26   57 1   
    57   26   58 1   
    58   27   59 1   
    59   28   29 ar  
    60   28   32 1   
    61   29   31 1   
    62   30   60 1   
    63   32   33 1   
    64   33   34 1   
    65   33   61 1   
    66   33   62 1   
    67   34   63 1   
    68   34   64 1   
    69   34   65 1   
    70   35   66 1   
    71   35   67 1   
    72   35   68 1   
@<TRIPOS>SUBSTRUCTURE
     1 1OK         1 TEMP              0 ****  ****    0 ROOT
