@<TRIPOS>MOLECULE
1OL
   34    33     1     0     0
SMALL
bcc


@<TRIPOS>ATOM
      1 C1          4.6520    0.8890   -0.8280 c3        1 1OL     -0.086600
      2 C2          3.7390    0.9430    1.4790 c3        1 1OL     -0.086600
      3 C3          3.6910    0.2300    0.1430 c3        1 1OL     -0.067700
      4 C4          2.2880    0.2350   -0.4410 c3        1 1OL     -0.069400
      5 N           1.7000   -2.0630    0.3110 n3        1 1OL     -0.893800
      6 C5          1.2930   -0.6650    0.3050 c3        1 1OL      0.156500
      7 C6         -0.1210   -0.4030   -0.2870 c3        1 1OL      0.116100
      8 O1         -0.2080   -1.1120   -1.5130 oh        1 1OL     -0.657800
      9 C7         -1.2120   -0.8310    0.6910 c3        1 1OL     -0.079400
     10 CA         -2.6000   -0.7560    0.0790 c3        1 1OL     -0.193700
     11 C9         -3.6550   -1.0040    1.1290 c3        1 1OL     -0.064100
     12 C          -2.8210    0.6060   -0.6230 c         1 1OL      0.910600
     13 O          -3.4210    1.5320   -0.0130 o         1 1OL     -0.845800
     14 H1          5.6860    0.8970   -0.4080 hc        1 1OL      0.026033
     15 H20         4.6670    0.3340   -1.7970 hc        1 1OL      0.026033
     16 H3          4.3430    1.9420   -1.0310 hc        1 1OL      0.026033
     17 H4          4.7830    0.9580    1.8730 hc        1 1OL      0.026033
     18 H5          3.3840    1.9970    1.3760 hc        1 1OL      0.026033
     19 H6          3.0880    0.4210    2.2220 hc        1 1OL      0.026033
     20 H7          4.0230   -0.8350    0.2980 hc        1 1OL      0.059700
     21 H8          1.8880    1.2840   -0.4210 hc        1 1OL      0.048700
     22 H9          2.3260   -0.0860   -1.5160 hc        1 1OL      0.048700
     23 H10         0.9490   -2.6130    0.6870 hn        1 1OL      0.340800
     24 H11         1.2570   -0.3360    1.3860 h1        1 1OL      0.047700
     25 H12        -0.2450    0.7010   -0.4890 h1        1 1OL      0.070700
     26 H13        -0.9770   -0.7370   -1.9820 ho        1 1OL      0.460000
     27 H14        -1.0280   -1.8790    1.0430 hc        1 1OL      0.021200
     28 H15        -1.1640   -0.1580    1.5870 hc        1 1OL      0.021200
     29 H16        -2.6760   -1.5500   -0.7150 hc        1 1OL      0.036700
     30 H17        -4.6580   -1.0930    0.6480 hc        1 1OL      0.018033
     31 H18        -3.4450   -1.9420    1.6980 hc        1 1OL      0.018033
     32 H19        -3.6900   -0.1430    1.8410 hc        1 1OL      0.018033
     33 OXT        -2.3710    0.7170   -1.8060 o         1 1OL     -0.845800
     34 H2          1.8450   -2.3640   -0.6370 hn        1 1OL      0.340800
@<TRIPOS>BOND
     1    1    3 1   
     2    1   14 1   
     3    1   15 1   
     4    1   16 1   
     5    2    3 1   
     6    2   17 1   
     7    2   18 1   
     8    2   19 1   
     9    3    4 1   
    10    3   20 1   
    11    4    6 1   
    12    4   21 1   
    13    4   22 1   
    14    5    6 1   
    15    5   23 1   
    16    5   34 1   
    17    6    7 1   
    18    6   24 1   
    19    7    8 1   
    20    7    9 1   
    21    7   25 1   
    22    8   26 1   
    23    9   10 1   
    24    9   27 1   
    25    9   28 1   
    26   10   11 1   
    27   10   12 1   
    28   10   29 1   
    29   11   30 1   
    30   11   31 1   
    31   11   32 1   
    32   12   13 1   
    33   12   33 1   
@<TRIPOS>SUBSTRUCTURE
     1 1OL         1 TEMP              0 ****  ****    0 ROOT
