@<TRIPOS>MOLECULE
1OL
   34    33     1     0     0
SMALL
bcc


@<TRIPOS>ATOM
      1 C1         -3.3140    0.8940   -2.2620 c3        1 1OL     -0.086100
      2 C2         -1.3250    2.3380   -2.5140 c3        1 1OL     -0.086100
      3 C3         -1.8170    0.9800   -2.0640 c3        1 1OL     -0.062700
      4 C4         -1.4900    0.7850   -0.5990 c3        1 1OL     -0.072400
      5 N          -1.1140   -1.5780   -0.4690 n3        1 1OL     -0.893800
      6 C5         -0.4620   -0.3140   -0.4540 c3        1 1OL      0.156500
      7 C6          0.2760   -0.1430    0.8530 c3        1 1OL      0.115100
      8 O1         -0.5500   -0.5570    1.9160 oh        1 1OL     -0.656800
      9 C7          1.5330   -0.9830    0.8350 c3        1 1OL     -0.079400
     10 CA          2.3430   -0.7060    2.0830 c3        1 1OL     -0.193700
     11 C9          2.7580   -2.0150    2.7160 c3        1 1OL     -0.064100
     12 C           3.5760    0.0910    1.7170 c         1 1OL      0.910600
     13 O           4.4070   -0.3770    0.8950 o         1 1OL     -0.845800
     14 H1         -3.5330    1.1070   -3.1930 hc        1 1OL      0.026200
     15 H20        -3.6200   -0.0140   -2.0540 hc        1 1OL      0.026200
     16 H3         -3.7590    1.5330   -1.6670 hc        1 1OL      0.026200
     17 H4         -0.3500    2.3790   -2.4250 hc        1 1OL      0.026200
     18 H5         -1.7340    3.0340   -1.9580 hc        1 1OL      0.026200
     19 H6         -1.5740    2.4810   -3.4510 hc        1 1OL      0.026200
     20 H7         -1.3780    0.2840   -2.5900 hc        1 1OL      0.054700
     21 H8         -2.3020    0.5380   -0.1140 hc        1 1OL      0.050700
     22 H9         -1.1310    1.6180   -0.2320 hc        1 1OL      0.050700
     23 H10        -0.9710   -1.9860   -1.2770 hn        1 1OL      0.340800
     24 H11         0.1730   -0.2660   -1.1960 h1        1 1OL      0.045700
     25 H12         0.5140    0.7970    0.9730 h1        1 1OL      0.069700
     26 H13        -0.6170    0.0990    2.5120 ho        1 1OL      0.460000
     27 H14         2.0640   -0.7590    0.0450 hc        1 1OL      0.021200
     28 H15         1.2920   -1.9310    0.8070 hc        1 1OL      0.021200
     29 H16         1.8020   -0.1950    2.7150 hc        1 1OL      0.036700
     30 H17         3.4060   -1.8420    3.4310 hc        1 1OL      0.018033
     31 H18         3.1670   -2.5920    2.0370 hc        1 1OL      0.018033
     32 H19         1.9700   -2.4610    3.0920 hc        1 1OL      0.018033
     33 OXT         3.7720    1.2220    2.2350 o         1 1OL     -0.845800
     34 H2         -2.0130   -1.4590   -0.3420 hn        1 1OL      0.340800
@<TRIPOS>BOND
     1    1    3 1   
     2    1   14 1   
     3    1   15 1   
     4    1   16 1   
     5    2    3 1   
     6    2   17 1   
     7    2   18 1   
     8    2   19 1   
     9    3    4 1   
    10    3   20 1   
    11    4    6 1   
    12    4   21 1   
    13    4   22 1   
    14    5    6 1   
    15    5   23 1   
    16    5   34 1   
    17    6    7 1   
    18    6   24 1   
    19    7    8 1   
    20    7    9 1   
    21    7   25 1   
    22    8   26 1   
    23    9   10 1   
    24    9   27 1   
    25    9   28 1   
    26   10   11 1   
    27   10   12 1   
    28   10   29 1   
    29   11   30 1   
    30   11   31 1   
    31   11   32 1   
    32   12   13 1   
    33   12   33 1   
@<TRIPOS>SUBSTRUCTURE
     1 1OL         1 TEMP              0 ****  ****    0 ROOT
