@<TRIPOS>MOLECULE
1OM
   52    54     1     0     0
SMALL
bcc


@<TRIPOS>ATOM
      1 O1         -0.2490    0.0670   -0.5400 oh        1 1OM     -0.499100
      2 C5          1.1230    0.0770   -0.4170 ca        1 1OM      0.120100
      3 C4          1.7720    0.3360    0.7970 ca        1 1OM     -0.185500
      4 C3          3.1640    0.3260    0.8400 ca        1 1OM     -0.088500
      5 C2          3.9150    0.0630   -0.3110 ca        1 1OM     -0.104300
      6 C7          3.2490   -0.1940   -1.5160 ca        1 1OM     -0.088500
      7 C6          1.8600   -0.1910   -1.5820 ca        1 1OM     -0.185500
      8 C1          5.4150    0.0590   -0.2220 c3        1 1OM      0.090200
      9 C14         6.0280   -0.9730   -1.1230 ca        1 1OM     -0.115800
     10 C19         6.4160   -0.6820   -2.4330 ca        1 1OM     -0.090000
     11 C18         6.9880   -1.6510   -3.2490 ca        1 1OM     -0.187000
     12 C17         7.2030   -2.9660   -2.7720 ca        1 1OM      0.156600
     13 N2          7.8660   -3.9310   -3.5580 nh        1 1OM     -0.652000
     14 C23         7.9440   -3.6800   -4.9750 c3        1 1OM      0.183100
     15 C22         7.7030   -5.3110   -3.1720 c3        1 1OM      0.183100
     16 C16         6.7980   -3.2550   -1.4460 ca        1 1OM     -0.187000
     17 C15         6.2290   -2.2730   -0.6450 ca        1 1OM     -0.090000
     18 C8          5.9920    1.4240   -0.4550 ca        1 1OM     -0.115800
     19 C13         5.4340    2.3230   -1.3670 ca        1 1OM     -0.090000
     20 C12         5.9810    3.5850   -1.5640 ca        1 1OM     -0.187000
     21 C11         7.1200    4.0030   -0.8360 ca        1 1OM      0.156600
     22 N1          7.6280    5.3140   -0.9580 nh        1 1OM     -0.652000
     23 C21         8.9800    5.5330   -0.5090 c3        1 1OM      0.183100
     24 C20         7.2200    6.0700   -2.1140 c3        1 1OM      0.183100
     25 C10         7.6870    3.0820    0.0780 ca        1 1OM     -0.187000
     26 C9          7.1250    1.8250    0.2620 ca        1 1OM     -0.090000
     27 H1         -0.6260    0.2680    0.3290 ho        1 1OM      0.417000
     28 H2          1.1900    0.5450    1.7050 ha        1 1OM      0.140500
     29 H3          3.6760    0.5330    1.7930 ha        1 1OM      0.138500
     30 H4          3.8360   -0.4090   -2.4250 ha        1 1OM      0.138500
     31 H5          1.3330   -0.3950   -2.5240 ha        1 1OM      0.140500
     32 H7          6.2710    0.3380   -2.8260 ha        1 1OM      0.133500
     33 H8          7.2750   -1.3670   -4.2720 ha        1 1OM      0.132000
     34 H9          8.5960   -2.7830   -5.1490 h1        1 1OM      0.037033
     35 H10         6.9380   -3.4880   -5.4380 h1        1 1OM      0.037033
     36 H11         8.4140   -4.5580   -5.4920 h1        1 1OM      0.037033
     37 H12         8.1740   -5.9800   -3.9390 h1        1 1OM      0.037033
     38 H13         6.6240   -5.6030   -3.0550 h1        1 1OM      0.037033
     39 H14         8.2290   -5.4770   -2.1940 h1        1 1OM      0.037033
     40 H15         6.9310   -4.2620   -1.0230 ha        1 1OM      0.132000
     41 H16         5.9280   -2.5290    0.3830 ha        1 1OM      0.133500
     42 H17         4.5390    2.0280   -1.9400 ha        1 1OM      0.133500
     43 H18         5.5010    4.2530   -2.2940 ha        1 1OM      0.132000
     44 H19         9.7090    4.8040   -0.9580 h1        1 1OM      0.037033
     45 H20         9.3070    6.5730   -0.7730 h1        1 1OM      0.037033
     46 H21         9.0120    5.4300    0.6090 h1        1 1OM      0.037033
     47 H22         6.1170    6.2720   -2.0440 h1        1 1OM      0.037033
     48 H23         7.4270    5.5320   -3.0800 h1        1 1OM      0.037033
     49 H24         7.7540    7.0560   -2.1320 h1        1 1OM      0.037033
     50 H25         8.5790    3.3460    0.6640 ha        1 1OM      0.132000
     51 H26         7.5880    1.1320    0.9820 ha        1 1OM      0.133500
     52 H27         5.6800   -0.2340    0.8420 hc        1 1OM      0.058700
@<TRIPOS>BOND
     1    1    2 1   
     2    1   27 1   
     3    2    3 ar  
     4    2    7 ar  
     5    3    4 ar  
     6    3   28 1   
     7    4    5 ar  
     8    4   29 1   
     9    5    6 ar  
    10    5    8 1   
    11    6    7 ar  
    12    6   30 1   
    13    7   31 1   
    14    8    9 1   
    15    8   18 1   
    16    8   52 1   
    17    9   10 ar  
    18    9   17 ar  
    19   10   11 ar  
    20   10   32 1   
    21   11   12 ar  
    22   11   33 1   
    23   12   13 1   
    24   12   16 ar  
    25   13   14 1   
    26   13   15 1   
    27   14   34 1   
    28   14   35 1   
    29   14   36 1   
    30   15   37 1   
    31   15   38 1   
    32   15   39 1   
    33   16   17 ar  
    34   16   40 1   
    35   17   41 1   
    36   18   19 ar  
    37   18   26 ar  
    38   19   20 ar  
    39   19   42 1   
    40   20   21 ar  
    41   20   43 1   
    42   21   22 1   
    43   21   25 ar  
    44   22   23 1   
    45   22   24 1   
    46   23   44 1   
    47   23   45 1   
    48   23   46 1   
    49   24   47 1   
    50   24   48 1   
    51   24   49 1   
    52   25   26 ar  
    53   25   50 1   
    54   26   51 1   
@<TRIPOS>SUBSTRUCTURE
     1 1OM         1 TEMP              0 ****  ****    0 ROOT
