@<TRIPOS>MOLECULE
1OM
   52    54     1     0     0
SMALL
bcc


@<TRIPOS>ATOM
      1 O1         -0.1940    0.1440   -0.5730 oh        1 1OM     -0.499100
      2 C5          1.1780    0.1360   -0.4550 ca        1 1OM      0.120100
      3 C4          1.8360    0.4030    0.7530 ca        1 1OM     -0.185500
      4 C3          3.2280    0.3750    0.7910 ca        1 1OM     -0.088500
      5 C2          3.9700    0.0860   -0.3600 ca        1 1OM     -0.104300
      6 C7          3.2950   -0.1790   -1.5590 ca        1 1OM     -0.088500
      7 C6          1.9070   -0.1570   -1.6190 ca        1 1OM     -0.185500
      8 C1          5.4700    0.0610   -0.2780 c3        1 1OM      0.090200
      9 C14         6.0620   -1.0010   -1.1580 ca        1 1OM     -0.116300
     10 C19         6.4630   -0.7410   -2.4720 ca        1 1OM     -0.090000
     11 C18         7.0140   -1.7380   -3.2680 ca        1 1OM     -0.187000
     12 C17         7.1950   -3.0490   -2.7670 ca        1 1OM      0.156600
     13 N2          7.8370   -4.0450   -3.5320 nh        1 1OM     -0.652000
     14 C23         7.9440   -3.8150   -4.9510 c3        1 1OM      0.183100
     15 C22         7.6260   -5.4130   -3.1320 c3        1 1OM      0.183100
     16 C16         6.7770   -3.3060   -1.4380 ca        1 1OM     -0.187000
     17 C15         6.2290   -2.2960   -0.6570 ca        1 1OM     -0.090000
     18 C8          6.0660    1.4130   -0.5450 ca        1 1OM     -0.116300
     19 C13         5.5160    2.2990   -1.4750 ca        1 1OM     -0.090000
     20 C12         6.0800    3.5480   -1.7020 ca        1 1OM     -0.187000
     21 C11         7.2410    3.9580   -1.0040 ca        1 1OM      0.156600
     22 N1          7.8720    5.1850   -1.2960 nh        1 1OM     -0.652000
     23 C21         8.8310    5.6740   -0.3380 c3        1 1OM      0.183100
     24 C20         7.0730    6.1890   -1.9520 c3        1 1OM      0.183100
     25 C10         7.7860    3.0580   -0.0560 ca        1 1OM     -0.187000
     26 C9          7.2070    1.8140    0.1590 ca        1 1OM     -0.090000
     27 H1         -0.5650    0.3580    0.2960 ho        1 1OM      0.417000
     28 H2          1.2600    0.6320    1.6600 ha        1 1OM      0.140500
     29 H3          3.7460    0.5860    1.7380 ha        1 1OM      0.138500
     30 H4          3.8760   -0.4150   -2.4660 ha        1 1OM      0.138500
     31 H5          1.3730   -0.3670   -2.5560 ha        1 1OM      0.140500
     32 H7          6.3450    0.2750   -2.8830 ha        1 1OM      0.133750
     33 H8          7.3130   -1.4790   -4.2940 ha        1 1OM      0.132000
     34 H9          6.9500   -3.6070   -5.4330 h1        1 1OM      0.036950
     35 H10         8.4030   -4.7100   -5.4470 h1        1 1OM      0.036950
     36 H11         8.6190   -2.9340   -5.1260 h1        1 1OM      0.036950
     37 H12         8.0770   -6.1080   -3.8880 h1        1 1OM      0.036950
     38 H13         8.1410   -5.5860   -2.1480 h1        1 1OM      0.036950
     39 H14         6.5370   -5.6670   -3.0160 h1        1 1OM      0.036950
     40 H15         6.8850   -4.3080   -0.9980 ha        1 1OM      0.132000
     41 H16         5.9180   -2.5270    0.3740 ha        1 1OM      0.133750
     42 H17         4.6120    2.0050   -2.0340 ha        1 1OM      0.133750
     43 H18         5.6050    4.2080   -2.4420 ha        1 1OM      0.132000
     44 H19         9.7130    4.9790   -0.3210 h1        1 1OM      0.036950
     45 H20         8.4090    5.7440    0.7020 h1        1 1OM      0.036950
     46 H21         9.1940    6.6890   -0.6460 h1        1 1OM      0.036950
     47 H22         6.1010    6.3860   -1.4210 h1        1 1OM      0.036950
     48 H23         6.8470    5.8460   -2.9970 h1        1 1OM      0.036950
     49 H24         7.6450    7.1520   -2.0170 h1        1 1OM      0.036950
     50 H25         8.6810    3.3240    0.5250 ha        1 1OM      0.132000
     51 H26         7.6600    1.1340    0.8970 ha        1 1OM      0.133750
     52 H27         5.7370   -0.2110    0.7900 hc        1 1OM      0.058700
@<TRIPOS>BOND
     1    1    2 1   
     2    1   27 1   
     3    2    3 ar  
     4    2    7 ar  
     5    3    4 ar  
     6    3   28 1   
     7    4    5 ar  
     8    4   29 1   
     9    5    6 ar  
    10    5    8 1   
    11    6    7 ar  
    12    6   30 1   
    13    7   31 1   
    14    8    9 1   
    15    8   18 1   
    16    8   52 1   
    17    9   10 ar  
    18    9   17 ar  
    19   10   11 ar  
    20   10   32 1   
    21   11   12 ar  
    22   11   33 1   
    23   12   13 1   
    24   12   16 ar  
    25   13   14 1   
    26   13   15 1   
    27   14   34 1   
    28   14   35 1   
    29   14   36 1   
    30   15   37 1   
    31   15   38 1   
    32   15   39 1   
    33   16   17 ar  
    34   16   40 1   
    35   17   41 1   
    36   18   19 ar  
    37   18   26 ar  
    38   19   20 ar  
    39   19   42 1   
    40   20   21 ar  
    41   20   43 1   
    42   21   22 1   
    43   21   25 ar  
    44   22   23 1   
    45   22   24 1   
    46   23   44 1   
    47   23   45 1   
    48   23   46 1   
    49   24   47 1   
    50   24   48 1   
    51   24   49 1   
    52   25   26 ar  
    53   25   50 1   
    54   26   51 1   
@<TRIPOS>SUBSTRUCTURE
     1 1OM         1 TEMP              0 ****  ****    0 ROOT
