@<TRIPOS>MOLECULE
1OM
   54    56     1     0     0
SMALL
bcc


@<TRIPOS>ATOM
      1 O1          0.1580    0.0160    0.5060 oh        1 1OM     -0.474100
      2 C5          1.5130   -0.0050    0.3230 ca        1 1OM      0.162100
      3 C4          2.3950   -0.6960    1.1680 ca        1 1OM     -0.180500
      4 C3          3.7610   -0.6630    0.9050 ca        1 1OM     -0.084000
      5 C2          4.2600    0.0480   -0.1940 ca        1 1OM     -0.169300
      6 C7          3.3680    0.7360   -1.0280 ca        1 1OM     -0.084000
      7 C6          2.0020    0.7170   -0.7840 ca        1 1OM     -0.180500
      8 C1          5.7410    0.0670   -0.4380 c3        1 1OM      0.067200
      9 C14         6.1650   -0.9990   -1.4110 ca        1 1OM     -0.024300
     10 C19         7.3750   -1.6740   -1.2010 ca        1 1OM     -0.104000
     11 C18         7.7560   -2.7380   -2.0140 ca        1 1OM     -0.096250
     12 C17         6.9130   -3.1400   -3.0650 ca        1 1OM     -0.049400
     13 N2          7.2660   -4.2950   -3.9090 n4        1 1OM     -0.548800
     14 C23         8.5470   -4.0700   -4.6340 c3        1 1OM      0.087850
     15 C22         7.3200   -5.5500   -3.1070 c3        1 1OM      0.087850
     16 C16         5.7100   -2.4530   -3.3050 ca        1 1OM     -0.096250
     17 C15         5.3490   -1.3910   -2.4800 ca        1 1OM     -0.104000
     18 C8          6.2010    1.4460   -0.8210 ca        1 1OM     -0.024300
     19 C13         6.3040    1.8640   -2.1520 ca        1 1OM     -0.104000
     20 C12         6.6830    3.1680   -2.4660 ca        1 1OM     -0.096250
     21 C11         6.9620    4.0770   -1.4310 ca        1 1OM     -0.049400
     22 N1          7.3340    5.4630   -1.7640 n4        1 1OM     -0.548800
     23 C21         8.7000    5.7930   -1.2700 c3        1 1OM      0.087850
     24 C20         6.3290    6.4310   -1.2370 c3        1 1OM      0.087850
     25 C10         6.8760    3.6650   -0.0890 ca        1 1OM     -0.096250
     26 C9          6.5000    2.3580    0.2030 ca        1 1OM     -0.104000
     27 H1         -0.0570   -0.4950    1.3030 ho        1 1OM      0.439000
     28 H2          2.0100   -1.2540    2.0350 ha        1 1OM      0.162000
     29 H3          4.4490   -1.2030    1.5750 ha        1 1OM      0.131500
     30 H4          3.7530    1.3080   -1.8870 ha        1 1OM      0.131500
     31 H5          1.2940    1.2550   -1.4320 ha        1 1OM      0.162000
     32 H7          8.0370   -1.3770   -0.3680 ha        1 1OM      0.169750
     33 H8          8.7080   -3.2560   -1.8110 ha        1 1OM      0.159750
     34 H9          8.4690   -3.1290   -5.2420 hx        1 1OM      0.108200
     35 H10         9.3870   -3.9700   -3.8960 hx        1 1OM      0.108200
     36 H11         8.7430   -4.9460   -5.3100 hx        1 1OM      0.108200
     37 H12         7.5320   -6.4130   -3.7940 hx        1 1OM      0.108200
     38 H13         6.3330   -5.7030   -2.5930 hx        1 1OM      0.108200
     39 H14         8.1330   -5.4710   -2.3370 hx        1 1OM      0.108200
     40 H15         5.0320   -2.7440   -4.1270 ha        1 1OM      0.159750
     41 H16         4.3880   -0.8750   -2.6560 ha        1 1OM      0.169750
     42 H17         6.0750    1.1590   -2.9680 ha        1 1OM      0.169750
     43 H18         6.7480    3.4640   -3.5270 ha        1 1OM      0.159750
     44 H19         8.7210    5.7360   -0.1500 hx        1 1OM      0.108200
     45 H20         8.9650    6.8340   -1.5990 hx        1 1OM      0.108200
     46 H21         9.4350    5.0590   -1.6960 hx        1 1OM      0.108200
     47 H22         6.3070    6.3790   -0.1160 hx        1 1OM      0.108200
     48 H23         5.3150    6.1680   -1.6420 hx        1 1OM      0.108200
     49 H24         6.6160    7.4670   -1.5630 hx        1 1OM      0.108200
     50 H25         7.0940    4.3590    0.7400 ha        1 1OM      0.159750
     51 H26         6.4230    2.0460    1.2600 ha        1 1OM      0.169750
     52 H27         6.2460   -0.1830    0.5490 hc        1 1OM      0.086700
     53 H211        6.5200   -4.4040   -4.6140 hn        1 1OM      0.455800
     54 H111        7.3410    5.5450   -2.7920 hn        1 1OM      0.455800
@<TRIPOS>BOND
     1    1    2 1   
     2    1   27 1   
     3    2    3 ar  
     4    2    7 ar  
     5    3    4 ar  
     6    3   28 1   
     7    4    5 ar  
     8    4   29 1   
     9    5    6 ar  
    10    5    8 1   
    11    6    7 ar  
    12    6   30 1   
    13    7   31 1   
    14    8    9 1   
    15    8   18 1   
    16    8   52 1   
    17    9   10 ar  
    18    9   17 ar  
    19   10   11 ar  
    20   10   32 1   
    21   11   12 ar  
    22   11   33 1   
    23   12   13 1   
    24   12   16 ar  
    25   13   14 1   
    26   13   15 1   
    27   13   53 1   
    28   14   34 1   
    29   14   35 1   
    30   14   36 1   
    31   15   37 1   
    32   15   38 1   
    33   15   39 1   
    34   16   17 ar  
    35   16   40 1   
    36   17   41 1   
    37   18   19 ar  
    38   18   26 ar  
    39   19   20 ar  
    40   19   42 1   
    41   20   21 ar  
    42   20   43 1   
    43   21   22 1   
    44   21   25 ar  
    45   22   23 1   
    46   22   24 1   
    47   22   54 1   
    48   23   44 1   
    49   23   45 1   
    50   23   46 1   
    51   24   47 1   
    52   24   48 1   
    53   24   49 1   
    54   25   26 ar  
    55   25   50 1   
    56   26   51 1   
@<TRIPOS>SUBSTRUCTURE
     1 1OM         1 TEMP              0 ****  ****    0 ROOT
