@<TRIPOS>MOLECULE
1OM
   52    54     1     0     0
SMALL
bcc


@<TRIPOS>ATOM
      1 O1         -0.2010   -5.8340    1.5740 oh        1 1OM     -0.499100
      2 C5         -0.1960   -4.5660    1.0380 ca        1 1OM      0.121100
      3 C4          0.4020   -4.4200   -0.2250 ca        1 1OM     -0.185000
      4 C3          0.4350   -3.1620   -0.8150 ca        1 1OM     -0.087500
      5 C2         -0.1170   -2.0460   -0.1680 ca        1 1OM     -0.107300
      6 C7         -0.7070   -2.2100    1.0890 ca        1 1OM     -0.087500
      7 C6         -0.7520   -3.4620    1.6980 ca        1 1OM     -0.185000
      8 C1         -0.0640   -0.7080   -0.8470 c3        1 1OM      0.086200
      9 C14        -1.2860    0.1160   -0.5610 ca        1 1OM     -0.101300
     10 C19        -1.3430    1.0170    0.5040 ca        1 1OM     -0.101500
     11 C18        -2.4820    1.7790    0.7410 ca        1 1OM     -0.167250
     12 C17        -3.6210    1.6510   -0.0840 ca        1 1OM      0.130600
     13 N2         -4.8340    2.3440    0.1730 nh        1 1OM     -0.641000
     14 C23        -4.9310    3.0150    1.4470 c3        1 1OM      0.172600
     15 C22        -5.3550    3.1220   -0.9270 c3        1 1OM      0.172600
     16 C16        -3.5580    0.7340   -1.1590 ca        1 1OM     -0.167250
     17 C15        -2.4090   -0.0120   -1.3890 ca        1 1OM     -0.101500
     18 C8          1.2020    0.0330   -0.5250 ca        1 1OM     -0.101300
     19 C13         1.8030   -0.0380    0.7360 ca        1 1OM     -0.101500
     20 C12         2.9760    0.6520    1.0130 ca        1 1OM     -0.167250
     21 C11         3.5980    1.4470    0.0210 ca        1 1OM      0.130600
     22 N1          4.7520    2.2040    0.3550 nh        1 1OM     -0.641000
     23 C21         5.1440    3.2250   -0.5860 c3        1 1OM      0.172600
     24 C20         5.8650    1.4470    0.8800 c3        1 1OM      0.172600
     25 C10         2.9880    1.5100   -1.2500 ca        1 1OM     -0.167250
     26 C9          1.8100    0.8170   -1.5100 ca        1 1OM     -0.101500
     27 H1         -0.6500   -5.7920    2.4300 ho        1 1OM      0.418000
     28 H2          0.8330   -5.2970   -0.7260 ha        1 1OM      0.141000
     29 H3          0.9030   -3.0430   -1.8040 ha        1 1OM      0.139000
     30 H4         -1.1490   -1.3390    1.6000 ha        1 1OM      0.139000
     31 H5         -1.2220   -3.5830    2.6840 ha        1 1OM      0.141000
     32 H7         -0.4650    1.1380    1.1610 ha        1 1OM      0.134750
     33 H8         -2.4750    2.4850    1.5850 ha        1 1OM      0.134250
     34 H9         -4.2750    3.9260    1.5210 h1        1 1OM      0.036283
     35 H10        -5.9970    3.3350    1.5940 h1        1 1OM      0.036283
     36 H11        -4.6540    2.3000    2.2650 h1        1 1OM      0.036283
     37 H12        -5.2680    2.5450   -1.8840 h1        1 1OM      0.036283
     38 H13        -6.4400    3.3280   -0.7280 h1        1 1OM      0.036283
     39 H14        -4.8220    4.1040   -1.0530 h1        1 1OM      0.036283
     40 H15        -4.4270    0.5910   -1.8190 ha        1 1OM      0.134250
     41 H16        -2.3880   -0.7200   -2.2320 ha        1 1OM      0.134750
     42 H17         1.3390   -0.6560    1.5220 ha        1 1OM      0.134750
     43 H18         3.4100    0.5820    2.0220 ha        1 1OM      0.134250
     44 H19         5.5700    2.8080   -1.5400 h1        1 1OM      0.036283
     45 H20         4.2560    3.8630   -0.8330 h1        1 1OM      0.036283
     46 H21         5.9260    3.8670   -0.1010 h1        1 1OM      0.036283
     47 H22         5.5020    0.6810    1.6130 h1        1 1OM      0.036283
     48 H23         6.4490    0.9230    0.0740 h1        1 1OM      0.036283
     49 H24         6.5530    2.1580    1.4120 h1        1 1OM      0.036283
     50 H25         3.4350    2.1080   -2.0590 ha        1 1OM      0.134250
     51 H26         1.3550    0.8890   -2.5100 ha        1 1OM      0.134750
     52 H27        -0.0550   -0.9060   -1.9650 hc        1 1OM      0.060700
@<TRIPOS>BOND
     1    1    2 1   
     2    1   27 1   
     3    2    3 ar  
     4    2    7 ar  
     5    3    4 ar  
     6    3   28 1   
     7    4    5 ar  
     8    4   29 1   
     9    5    6 ar  
    10    5    8 1   
    11    6    7 ar  
    12    6   30 1   
    13    7   31 1   
    14    8    9 1   
    15    8   18 1   
    16    8   52 1   
    17    9   10 ar  
    18    9   17 ar  
    19   10   11 ar  
    20   10   32 1   
    21   11   12 ar  
    22   11   33 1   
    23   12   13 1   
    24   12   16 ar  
    25   13   14 1   
    26   13   15 1   
    27   14   34 1   
    28   14   35 1   
    29   14   36 1   
    30   15   37 1   
    31   15   38 1   
    32   15   39 1   
    33   16   17 ar  
    34   16   40 1   
    35   17   41 1   
    36   18   19 ar  
    37   18   26 ar  
    38   19   20 ar  
    39   19   42 1   
    40   20   21 ar  
    41   20   43 1   
    42   21   22 1   
    43   21   25 ar  
    44   22   23 1   
    45   22   24 1   
    46   23   44 1   
    47   23   45 1   
    48   23   46 1   
    49   24   47 1   
    50   24   48 1   
    51   24   49 1   
    52   25   26 ar  
    53   25   50 1   
    54   26   51 1   
@<TRIPOS>SUBSTRUCTURE
     1 1OM         1 TEMP              0 ****  ****    0 ROOT
