@<TRIPOS>MOLECULE
1OM
   52    44     1     0     0
SMALL
bcc


@<TRIPOS>ATOM
      1 O1         -6.0750    0.2310    1.5440 oh        1 1OM     -0.253000
      2 C5         -4.6770    0.1300    1.5450 c1        1 1OM      0.076000
      3 C4         -3.9840    0.0690    2.7510 c1        1 1OM     -0.131750
      4 C3         -2.5910    0.0360    2.7540 c1        1 1OM     -0.131750
      5 C2         -1.8900    0.0640    1.5490 c1        1 1OM     -0.025500
      6 C7         -2.5820    0.1260    0.3430 c1        1 1OM     -0.119000
      7 C6         -3.9750    0.1590    0.3390 c1        1 1OM     -0.214000
      8 C1         -0.3350    0.0110    1.5510 c2        1 1OM      0.027000
      9 C14         0.2240    1.2580    0.8340 c2        1 1OM     -0.111000
     10 C19         0.2710    2.4770    1.4990 c1        1 1OM     -0.090000
     11 C18         0.8310    3.5930    0.8730 c1        1 1OM     -0.187000
     12 C17         1.3410    3.4850   -0.4130 c1        1 1OM      0.076000
     13 N2          1.8130    4.6860   -1.1160 n2        1 1OM     -0.249000
     14 C23         2.8690    4.5820   -2.0950 c3        1 1OM     -0.097750
     15 C22         1.2110    5.9780   -0.8310 c3        1 1OM     -0.097750
     16 C16         1.2950    2.2630   -1.0810 c2        1 1OM     -0.189000
     17 C15         0.7370    1.1490   -0.4570 c2        1 1OM     -0.089000
     18 C8          0.1380   -1.2630    0.8190 c1        1 1OM     -0.092000
     19 C13         0.5290   -2.3810    1.5550 c1        1 1OM     -0.131750
     20 C12         0.8880   -3.5590    0.9000 c1        1 1OM     -0.131750
     21 C11         0.8560   -3.6190   -0.4840 c1        1 1OM     -0.025500
     22 N1          1.3310   -4.8280   -1.1760 n2        1 1OM     -0.249000
     23 C21         0.4440   -5.9630   -1.3380 c3        1 1OM     -0.097750
     24 C20         2.7120   -4.9460   -1.5390 c3        1 1OM     -0.097750
     25 C10         0.4650   -2.5020   -1.2210 c1        1 1OM     -0.119000
     26 C9          0.1060   -1.3220   -0.5630 c1        1 1OM     -0.104000
     27 H1         -6.3090    1.0860    1.5370 ho        1 1OM      0.217000
     28 H2         -4.4800    0.0480    3.6050 ha        1 1OM      0.136750
     29 H3         -2.1030   -0.0080    3.6030 ha        1 1OM      0.136750
     30 H4         -2.0860    0.1460   -0.5110 ha        1 1OM      0.139000
     31 H5         -4.4650    0.2030   -0.5150 ha        1 1OM      0.132000
     32 H7         -0.0860    2.5540    2.3960 ha        1 1OM      0.130000
     33 H8          0.8640    4.4510    1.3410 ha        1 1OM      0.132000
     34 H9          3.6550    4.1560   -1.6860 h1        1 1OM      0.075917
     35 H10         2.5620    4.0430   -2.8470 h1        1 1OM      0.075917
     36 H11         3.1120    5.4840   -2.4140 h1        1 1OM      0.075917
     37 H12         0.2360    5.8810   -0.7810 h1        1 1OM      0.075917
     38 H13         1.4420    6.6130   -1.5490 h1        1 1OM      0.075917
     39 H14         1.5520    6.3170    0.0300 h1        1 1OM      0.075917
     40 H15         1.6560    2.1860   -1.9900 ha        1 1OM      0.133000
     41 H16         0.7050    0.2920   -0.9240 ha        1 1OM      0.139000
     42 H17         0.5520   -2.3400    2.5330 ha        1 1OM      0.136750
     43 H18         1.1610   -4.3410    1.4170 ha        1 1OM      0.136750
     44 H19         0.3170   -6.1480   -2.2980 h1        1 1OM      0.075917
     45 H20        -0.4200   -5.7620   -0.9270 h1        1 1OM      0.075917
     46 H21         0.8390   -6.7540   -0.9010 h1        1 1OM      0.075917
     47 H22         3.1740   -4.1050   -1.3440 h1        1 1OM      0.075917
     48 H23         3.1250   -5.6750   -1.0220 h1        1 1OM      0.075917
     49 H24         2.7820   -5.1440   -2.4980 h1        1 1OM      0.075917
     50 H25         0.4420   -2.5440   -2.1920 ha        1 1OM      0.139000
     51 H26        -0.1650   -0.5470   -1.0740 ha        1 1OM      0.137000
     52 H27        -0.0130   -0.0060    2.4720 ha        1 1OM      0.099000
@<TRIPOS>BOND
     1    1    2 1   
     2    1   27 1   
     3    2    7 1   
     4    3    4 1   
     5    3   28 1   
     6    4   29 1   
     7    5    6 1   
     8    6   30 1   
     9    7   31 1   
    10    8    9 1   
    11    8   18 1   
    12    8   52 1   
    13    9   10 1   
    14    9   17 1   
    15   10   32 1   
    16   11   12 1   
    17   11   33 1   
    18   12   16 1   
    19   13   14 1   
    20   13   15 1   
    21   14   34 1   
    22   14   35 1   
    23   14   36 1   
    24   15   37 1   
    25   15   38 1   
    26   15   39 1   
    27   16   17 1   
    28   16   40 1   
    29   17   41 1   
    30   18   26 1   
    31   19   20 1   
    32   19   42 1   
    33   20   43 1   
    34   21   25 1   
    35   22   23 1   
    36   22   24 1   
    37   23   44 1   
    38   23   45 1   
    39   23   46 1   
    40   24   47 1   
    41   24   48 1   
    42   24   49 1   
    43   25   50 1   
    44   26   51 1   
@<TRIPOS>SUBSTRUCTURE
     1 1OM         1 TEMP              0 ****  ****    0 ROOT
