@<TRIPOS>MOLECULE
1ON
   18    15     1     0     0
SMALL
bcc


@<TRIPOS>ATOM
      1 O10        -2.7820   -0.0110    1.0470 o         1 1ON     -0.283000
      2 C7         -1.5670   -0.0110    1.0470 c1        1 1ON      0.275000
      3 C8         -0.6780   -0.0110    2.2710 c3        1 1ON     -0.215000
      4 C9          0.7270   -0.0110    1.6960 c3        1 1ON     -0.126000
      5 C6         -0.6720   -0.0110   -0.1860 c1        1 1ON     -0.168000
      6 C1         -1.0910   -0.0110   -1.5330 c1        1 1ON     -0.109250
      7 C2         -0.1130   -0.0110   -2.5180 c1        1 1ON     -0.109250
      8 C5          0.6100   -0.0110    0.1690 c1        1 1ON     -0.045000
      9 C4          1.5960   -0.0110   -0.8250 c1        1 1ON     -0.109250
     10 C3          1.2300   -0.0110   -2.1640 c1        1 1ON     -0.109250
     11 H1         -0.8980   -0.6600    2.9670 hc        1 1ON      0.118000
     12 H2          1.1910   -0.8220    1.9820 hc        1 1ON      0.102000
     13 H3         -2.0390   -0.0110   -1.7650 ha        1 1ON      0.140000
     14 H4         -0.3700   -0.0110   -3.4600 ha        1 1ON      0.140000
     15 H5          2.5400   -0.0110   -0.5770 ha        1 1ON      0.140000
     16 H6          1.9180   -0.0110   -2.8570 ha        1 1ON      0.140000
     17 H7         -0.7940    0.8430    2.7280 hc        1 1ON      0.118000
     18 H8          1.1910    0.7990    1.9820 hc        1 1ON      0.102000
@<TRIPOS>BOND
     1    1    2 1   
     2    2    3 1   
     3    3    4 1   
     4    3   11 1   
     5    3   17 1   
     6    4    8 1   
     7    4   12 1   
     8    4   18 1   
     9    5    8 1   
    10    6    7 1   
    11    6   13 1   
    12    7   14 1   
    13    9   10 1   
    14    9   15 1   
    15   10   16 1   
@<TRIPOS>SUBSTRUCTURE
     1 1ON         1 TEMP              0 ****  ****    0 ROOT
