@<TRIPOS>MOLECULE
1ON
   18    19     1     0     0
SMALL
bcc


@<TRIPOS>ATOM
      1 O10         2.2730   -1.5430   -0.0020 o         1 1ON     -0.522100
      2 C7          1.5830   -0.5250   -0.0020 c         1 1ON      0.584700
      3 C8          2.1140    0.8990   -0.0030 c3        1 1ON     -0.186400
      4 C9          0.8900    1.8250   -0.0020 c3        1 1ON     -0.040100
      5 C6          0.1070   -0.4440   -0.0010 ca        1 1ON     -0.188600
      6 C1         -0.8300   -1.4640   -0.0010 ca        1 1ON     -0.055000
      7 C2         -2.1890   -1.1240    0.0000 ca        1 1ON     -0.150000
      8 C5         -0.2950    0.9150   -0.0010 ca        1 1ON     -0.052300
      9 C4         -1.6400    1.2460   -0.0000 ca        1 1ON     -0.134000
     10 C3         -2.5870    0.2110    0.0010 ca        1 1ON     -0.098000
     11 H1          2.7500    1.0630    0.9020 hc        1 1ON      0.078700
     12 H2          0.8860    2.4840    0.9030 hc        1 1ON      0.062700
     13 H3         -0.5100   -2.5170   -0.0010 ha        1 1ON      0.151000
     14 H4         -2.9470   -1.9210    0.0010 ha        1 1ON      0.137000
     15 H5         -1.9640    2.2960    0.0000 ha        1 1ON      0.138000
     16 H6         -3.6580    0.4620    0.0010 ha        1 1ON      0.134000
     17 H7          2.7480    1.0630   -0.9080 hc        1 1ON      0.078700
     18 H8          0.8840    2.4840   -0.9060 hc        1 1ON      0.062700
@<TRIPOS>BOND
     1    1    2 2   
     2    2    3 1   
     3    2    5 1   
     4    3    4 1   
     5    3   11 1   
     6    3   17 1   
     7    4    8 1   
     8    4   12 1   
     9    4   18 1   
    10    5    6 ar  
    11    5    8 ar  
    12    6    7 ar  
    13    6   13 1   
    14    7   10 ar  
    15    7   14 1   
    16    8    9 ar  
    17    9   10 ar  
    18    9   15 1   
    19   10   16 1   
@<TRIPOS>SUBSTRUCTURE
     1 1ON         1 TEMP              0 ****  ****    0 ROOT
