@<TRIPOS>MOLECULE
1ON
   18    19     1     0     0
SMALL
bcc


@<TRIPOS>ATOM
      1 O10        -0.0380   -0.0040    0.0200 o         1 1ON     -0.522100
      2 C7          1.1910   -0.0040   -0.0110 c         1 1ON      0.584700
      3 C8          2.1030    0.0030    1.2040 c3        1 1ON     -0.186400
      4 C9          3.5430    0.0000    0.6730 c3        1 1ON     -0.040100
      5 C6          2.0560   -0.0090   -1.2100 ca        1 1ON     -0.188600
      6 C1          1.7020   -0.0160   -2.5500 ca        1 1ON     -0.055000
      7 C2          2.7220   -0.0200   -3.5110 ca        1 1ON     -0.150000
      8 C5          3.4160   -0.0070   -0.8160 ca        1 1ON     -0.052300
      9 C4          4.4210   -0.0110   -1.7700 ca        1 1ON     -0.134000
     10 C3          4.0610   -0.0180   -3.1240 ca        1 1ON     -0.098000
     11 H1          1.8990   -0.9000    1.8320 hc        1 1ON      0.078700
     12 H2          4.1010   -0.9030    1.0290 hc        1 1ON      0.062700
     13 H3          0.6430   -0.0170   -2.8480 ha        1 1ON      0.151000
     14 H4          2.4600   -0.0250   -4.5790 ha        1 1ON      0.137000
     15 H5          5.4800   -0.0100   -1.4760 ha        1 1ON      0.138000
     16 H6          4.8500   -0.0220   -3.8920 ha        1 1ON      0.134000
     17 H7          1.8980    0.9110    1.8230 hc        1 1ON      0.078700
     18 H8          4.1000    0.9070    1.0200 hc        1 1ON      0.062700
@<TRIPOS>BOND
     1    1    2 2   
     2    2    3 1   
     3    2    5 1   
     4    3    4 1   
     5    3   11 1   
     6    3   17 1   
     7    4    8 1   
     8    4   12 1   
     9    4   18 1   
    10    5    6 ar  
    11    5    8 ar  
    12    6    7 ar  
    13    6   13 1   
    14    7   10 ar  
    15    7   14 1   
    16    8    9 ar  
    17    9   10 ar  
    18    9   15 1   
    19   10   16 1   
@<TRIPOS>SUBSTRUCTURE
     1 1ON         1 TEMP              0 ****  ****    0 ROOT
