@<TRIPOS>MOLECULE
1OO
   45    48     1     0     0
SMALL
bcc


@<TRIPOS>ATOM
      1 F33        -0.2410    0.2490    0.4790 f         1 1OO     -0.230633
      2 C30         1.0860    0.1160    0.1580 c3        1 1OO      0.682200
      3 F31         1.7090   -0.0960    1.3650 f         1 1OO     -0.230633
      4 F32         1.1650   -1.0970   -0.4800 f         1 1OO     -0.230633
      5 C27         1.6700    1.2840   -0.6350 ca        1 1OO     -0.106300
      6 C28         2.7720    1.0700   -1.4640 ca        1 1OO     -0.110000
      7 C29         3.3230    2.1430   -2.1610 ca        1 1OO     -0.020500
      8 C26         1.1080    2.5560   -0.5140 ca        1 1OO     -0.110000
      9 C25         1.6680    3.6200   -1.2190 ca        1 1OO     -0.020500
     10 C24         2.7860    3.4290   -2.0390 ca        1 1OO     -0.356500
     11 S21         3.4490    4.7290   -2.9040 sy        1 1OO      1.515200
     12 O22         4.2720    4.2060   -3.9170 o         1 1OO     -0.639300
     13 O23         2.4090    5.5960   -3.2830 o         1 1OO     -0.639300
     14 N20         4.3320    5.5050   -1.7720 nu        1 1OO     -0.771500
     15 C19         5.5590    5.1150   -1.2170 ca        1 1OO      0.107600
     16 C13         5.8420    5.3820    0.1570 ca        1 1OO      0.141900
     17 F17         4.9200    6.0250    0.9140 f         1 1OO     -0.124900
     18 C34         6.5530    4.4790   -1.9890 ca        1 1OO     -0.115000
     19 C18         7.7620    4.1000   -1.4260 ca        1 1OO     -0.159000
     20 C12         8.0300    4.3600   -0.0690 ca        1 1OO      0.162900
     21 F16         9.2220    3.9880    0.4520 f         1 1OO     -0.119900
     22 C11         7.0690    5.0040    0.7340 ca        1 1OO     -0.208600
     23 C10         7.3630    5.3340    2.1600 c         1 1OO      0.630900
     24 O15         7.8750    6.4190    2.4580 o         1 1OO     -0.506100
     25 C09         7.0160    4.3240    3.1410 cc        1 1OO     -0.226400
     26 C08         6.4340    3.0680    2.9090 cd        1 1OO     -0.025100
     27 C05         7.2110    4.4370    4.5690 ca        1 1OO     -0.148100
     28 C06         6.7200    3.2000    5.1530 ca        1 1OO      0.406800
     29 N07         6.2510    2.3870    4.1010 na        1 1OO     -0.270100
     30 N04         6.7300    2.9190    6.4910 nb        1 1OO     -0.652000
     31 C03         7.2370    3.8830    7.2630 ca        1 1OO      0.421200
     32 C02         7.7420    5.1270    6.7830 ca        1 1OO     -0.123900
     33 Cl          8.3540    6.2460    7.8970 cl        1 1OO     -0.072400
     34 C01         7.7320    5.4130    5.4220 ca        1 1OO     -0.036000
     35 H1          3.1950    0.0570   -1.5710 ha        1 1OO      0.162500
     36 H2          4.1860    1.9760   -2.8310 ha        1 1OO      0.164000
     37 H3          0.2260    2.7140    0.1280 ha        1 1OO      0.162500
     38 H4          1.2130    4.6240   -1.1420 ha        1 1OO      0.164000
     39 H5          3.9670    6.3340   -1.3490 hn        1 1OO      0.467800
     40 H6          6.3780    4.2770   -3.0630 ha        1 1OO      0.184000
     41 H7          8.5300    3.6050   -2.0410 ha        1 1OO      0.165000
     42 H8          6.1380    2.6160    1.9580 h4        1 1OO      0.177000
     43 H9          5.8610    1.4860    4.2110 hn        1 1OO      0.318700
     44 H10         7.2490    3.6620    8.3480 h4        1 1OO      0.039100
     45 H11         8.1130    6.3620    5.0100 ha        1 1OO      0.180000
@<TRIPOS>BOND
     1    1    2 1   
     2    2    3 1   
     3    2    4 1   
     4    2    5 1   
     5    5    6 ar  
     6    5    8 ar  
     7    6    7 ar  
     8    6   35 1   
     9    7   10 ar  
    10    7   36 1   
    11    8    9 ar  
    12    8   37 1   
    13    9   10 ar  
    14    9   38 1   
    15   10   11 1   
    16   11   12 2   
    17   11   13 2   
    18   11   14 1   
    19   14   15 1   
    20   14   39 1   
    21   15   16 ar  
    22   15   18 ar  
    23   16   17 1   
    24   16   22 ar  
    25   18   19 ar  
    26   18   40 1   
    27   19   20 ar  
    28   19   41 1   
    29   20   21 1   
    30   20   22 ar  
    31   22   23 1   
    32   23   24 2   
    33   23   25 1   
    34   25   26 2   
    35   25   27 1   
    36   26   29 1   
    37   26   42 1   
    38   27   28 ar  
    39   27   34 ar  
    40   28   29 1   
    41   28   30 ar  
    42   29   43 1   
    43   30   31 ar  
    44   31   32 ar  
    45   31   44 1   
    46   32   33 1   
    47   32   34 ar  
    48   34   45 1   
@<TRIPOS>SUBSTRUCTURE
     1 1OO         1 TEMP              0 ****  ****    0 ROOT
