@<TRIPOS>MOLECULE
1OO
   45    48     1     0     0
SMALL
bcc


@<TRIPOS>ATOM
      1 F33        -0.2460    0.2600    0.4860 f         1 1OO     -0.230633
      2 C30         1.0810    0.1240    0.1620 c3        1 1OO      0.682200
      3 F31         1.7050   -0.0890    1.3680 f         1 1OO     -0.230633
      4 F32         1.1560   -1.0890   -0.4760 f         1 1OO     -0.230633
      5 C27         1.6660    1.2920   -0.6310 ca        1 1OO     -0.106300
      6 C28         2.7670    1.0750   -1.4620 ca        1 1OO     -0.110000
      7 C29         3.3180    2.1470   -2.1600 ca        1 1OO     -0.020500
      8 C26         1.1070    2.5640   -0.5090 ca        1 1OO     -0.110000
      9 C25         1.6680    3.6270   -1.2150 ca        1 1OO     -0.020500
     10 C24         2.7840    3.4350   -2.0370 ca        1 1OO     -0.356500
     11 S21         3.4490    4.7330   -2.9020 sy        1 1OO      1.515200
     12 O22         4.2700    4.2080   -3.9160 o         1 1OO     -0.639300
     13 O23         2.4090    5.6010   -3.2810 o         1 1OO     -0.639300
     14 N20         4.3330    5.5070   -1.7720 nh        1 1OO     -0.771500
     15 C19         5.5610    5.1150   -1.2180 ca        1 1OO      0.107600
     16 C13         5.8440    5.3810    0.1570 ca        1 1OO      0.141900
     17 F17         4.9240    6.0250    0.9150 f         1 1OO     -0.124900
     18 C34         6.5530    4.4780   -1.9900 ca        1 1OO     -0.115000
     19 C18         7.7610    4.0970   -1.4280 ca        1 1OO     -0.159000
     20 C12         8.0310    4.3560   -0.0720 ca        1 1OO      0.162900
     21 F16         9.2220    3.9820    0.4480 f         1 1OO     -0.119900
     22 C11         7.0710    5.0000    0.7320 ca        1 1OO     -0.209600
     23 C10         7.3670    5.3290    2.1590 c         1 1OO      0.630900
     24 O15         7.8810    6.4130    2.4570 o         1 1OO     -0.506100
     25 C09         7.0180    4.3190    3.1390 cc        1 1OO     -0.226400
     26 C08         6.4340    3.0640    2.9070 cd        1 1OO     -0.025100
     27 C05         7.2140    4.4310    4.5670 ca        1 1OO     -0.148100
     28 C06         6.7200    3.1940    5.1510 ca        1 1OO      0.406800
     29 N07         6.2500    2.3830    4.0980 na        1 1OO     -0.270100
     30 N04         6.7310    2.9130    6.4880 nb        1 1OO     -0.652000
     31 C03         7.2400    3.8750    7.2610 ca        1 1OO      0.421200
     32 C02         7.7470    5.1180    6.7820 ca        1 1OO     -0.123900
     33 CL          8.3610    6.2360    7.8960 cl        1 1OO     -0.072400
     34 C01         7.7370    5.4050    5.4200 ca        1 1OO     -0.036000
     35 H1          3.1870    0.0620   -1.5690 ha        1 1OO      0.162500
     36 H2          4.1810    1.9780   -2.8310 ha        1 1OO      0.164000
     37 H3          0.2260    2.7240    0.1340 ha        1 1OO      0.162500
     38 H4          1.2150    4.6320   -1.1370 ha        1 1OO      0.164000
     39 H5          3.9710    6.3370   -1.3490 hn        1 1OO      0.467800
     40 H6          6.3770    4.2780   -3.0650 ha        1 1OO      0.184000
     41 H7          8.5280    3.6020   -2.0450 ha        1 1OO      0.165000
     42 H8          6.1370    2.6140    1.9550 h4        1 1OO      0.177000
     43 H9          5.8580    1.4830    4.2070 hn        1 1OO      0.318700
     44 H10         7.2520    3.6530    8.3450 h4        1 1OO      0.039100
     45 H11         8.1200    6.3540    5.0090 ha        1 1OO      0.180000
@<TRIPOS>BOND
     1    1    2 1   
     2    2    3 1   
     3    2    4 1   
     4    2    5 1   
     5    5    6 ar  
     6    5    8 ar  
     7    6    7 ar  
     8    6   35 1   
     9    7   10 ar  
    10    7   36 1   
    11    8    9 ar  
    12    8   37 1   
    13    9   10 ar  
    14    9   38 1   
    15   10   11 1   
    16   11   12 2   
    17   11   13 2   
    18   11   14 1   
    19   14   15 1   
    20   14   39 1   
    21   15   16 ar  
    22   15   18 ar  
    23   16   17 1   
    24   16   22 ar  
    25   18   19 ar  
    26   18   40 1   
    27   19   20 ar  
    28   19   41 1   
    29   20   21 1   
    30   20   22 ar  
    31   22   23 1   
    32   23   24 2   
    33   23   25 1   
    34   25   26 2   
    35   25   27 1   
    36   26   29 1   
    37   26   42 1   
    38   27   28 ar  
    39   27   34 ar  
    40   28   29 1   
    41   28   30 ar  
    42   29   43 1   
    43   30   31 ar  
    44   31   32 ar  
    45   31   44 1   
    46   32   33 1   
    47   32   34 ar  
    48   34   45 1   
@<TRIPOS>SUBSTRUCTURE
     1 1OO         1 TEMP              0 ****  ****    0 ROOT
