@<TRIPOS>MOLECULE
1OP
   39    39     1     0     0
SMALL
bcc


@<TRIPOS>ATOM
      1 C10         6.4370    0.0330   -0.3100 c3        1 1OP     -0.082400
      2 C11         7.4560   -1.0870   -0.4310 c3        1 1OP      0.130400
      3 N          -4.4610    0.9650   -1.5210 n3        1 1OP     -0.888800
      4 C          -5.7940   -0.9090   -0.4390 c         1 1OP      0.887600
      5 O          -6.7960   -0.4470   -1.0540 o         1 1OP     -0.841300
      6 CA         -4.4090   -0.2120   -0.6630 c3        1 1OP      0.021500
      7 CB         -3.7940    0.0760    0.7120 c3        1 1OP     -0.032100
      8 CG         -2.3270    0.3170    0.6530 ca        1 1OP     -0.060300
      9 CD1        -1.8200    1.5730    0.2930 ca        1 1OP     -0.100000
     10 CD2        -1.4310   -0.7110    0.9640 ca        1 1OP     -0.100000
     11 CE1        -0.4500    1.8060    0.2460 ca        1 1OP     -0.181000
     12 CE2        -0.0530   -0.4990    0.9280 ca        1 1OP     -0.181000
     13 CZ          0.4330    0.7620    0.5700 ca        1 1OP      0.087100
     14 O1          1.7810    1.0990    0.5420 os        1 1OP     -0.343900
     15 C07         2.6780   -0.0110    0.4530 c3        1 1OP      0.132400
     16 C08         4.0400    0.5730    0.1150 c3        1 1OP     -0.085400
     17 C09         5.0700   -0.5300    0.0110 c3        1 1OP     -0.078400
     18 O2          8.7120   -0.4850   -0.7060 oh        1 1OP     -0.603800
     19 H1          6.7630    0.7450    0.4910 hc        1 1OP      0.055700
     20 H2          6.4040    0.6090   -1.2720 hc        1 1OP      0.055700
     21 H3          7.5170   -1.6710    0.5260 h1        1 1OP      0.019200
     22 H4          7.1780   -1.7870   -1.2640 h1        1 1OP      0.019200
     23 H5         -4.9810    0.7080   -2.3440 hn        1 1OP      0.330300
     24 H6         -5.0080    1.6690   -1.0560 hn        1 1OP      0.330300
     25 HA         -3.7560   -0.9690   -1.1880 h1        1 1OP      0.045700
     26 HB1        -4.3000    0.9620    1.1800 hc        1 1OP      0.058700
     27 HB2        -4.0140   -0.8200    1.3570 hc        1 1OP      0.058700
     28 H9         -2.5220    2.3780    0.0230 ha        1 1OP      0.141000
     29 H10        -1.8210   -1.7050    1.2360 ha        1 1OP      0.141000
     30 H11        -0.0490    2.7870   -0.0390 ha        1 1OP      0.126000
     31 H12         0.6320   -1.3190    1.1790 ha        1 1OP      0.126000
     32 H13         2.7060   -0.5410    1.4420 h1        1 1OP      0.034700
     33 H14         2.3370   -0.7240   -0.3410 h1        1 1OP      0.034700
     34 H15         3.9730    1.1350   -0.8530 hc        1 1OP      0.055200
     35 H16         4.3370    1.3090    0.9060 hc        1 1OP      0.055200
     36 H17         4.7640   -1.2570   -0.7870 hc        1 1OP      0.039700
     37 H18         5.1140   -1.0980    0.9780 hc        1 1OP      0.039700
     38 H19         9.3460   -1.2050   -0.8000 ho        1 1OP      0.395000
     39 OXT        -5.8250   -1.9100    0.3300 o         1 1OP     -0.841300
@<TRIPOS>BOND
     1    1    2 1   
     2    1   17 1   
     3    1   19 1   
     4    1   20 1   
     5    2   18 1   
     6    2   21 1   
     7    2   22 1   
     8    3    6 1   
     9    3   23 1   
    10    3   24 1   
    11    4    5 1   
    12    4    6 1   
    13    4   39 1   
    14    6    7 1   
    15    6   25 1   
    16    7    8 1   
    17    7   26 1   
    18    7   27 1   
    19    8    9 ar  
    20    8   10 ar  
    21    9   11 ar  
    22    9   28 1   
    23   10   12 ar  
    24   10   29 1   
    25   11   13 ar  
    26   11   30 1   
    27   12   13 ar  
    28   12   31 1   
    29   13   14 1   
    30   14   15 1   
    31   15   16 1   
    32   15   32 1   
    33   15   33 1   
    34   16   17 1   
    35   16   34 1   
    36   16   35 1   
    37   17   36 1   
    38   17   37 1   
    39   18   38 1   
@<TRIPOS>SUBSTRUCTURE
     1 1OP         1 TEMP              0 ****  ****    0 ROOT
