@<TRIPOS>MOLECULE
1OP
   39    34     1     0     0
SMALL
bcc


@<TRIPOS>ATOM
      1 C10         2.5800    1.9160   -4.6340 c3        1 1OP     -0.161000
      2 C11         2.8540    3.3600   -5.0840 c3        1 1OP     -0.020000
      3 N          -3.8800   -2.6310    4.4140 n3        1 1OP     -0.318000
      4 C          -1.8950   -2.6560    5.7780 c1        1 1OP      0.306000
      5 O          -2.2110   -1.8690    6.7480 o         1 1OP     -0.575500
      6 CA         -2.4940   -2.4280    4.3720 c2        1 1OP     -0.124000
      7 CB         -2.2110   -1.0250    3.9290 c3        1 1OP     -0.124000
      8 CG         -1.5100   -1.0500    2.5620 c1        1 1OP     -0.024000
      9 CD1        -2.2240   -0.7020    1.4100 c1        1 1OP     -0.141000
     10 CD2        -0.1170   -1.2870    2.4870 c1        1 1OP     -0.121000
     11 CE1        -1.5860   -0.5930    0.2270 c1        1 1OP     -0.141000
     12 CE2         0.5210   -1.1780    1.3050 c1        1 1OP     -0.140000
     13 CZ         -0.1920   -0.8300    0.1510 c1        1 1OP      0.013000
     14 O1          0.4820   -0.7530   -1.1160 o         1 1OP     -0.234000
     15 C07         0.9220    0.5330   -1.4480 c3        1 1OP     -0.017000
     16 C08         1.5840    0.5060   -2.8550 c3        1 1OP     -0.164000
     17 C09         1.9060    1.9290   -3.2840 c3        1 1OP     -0.157000
     18 O2          3.8050    3.3520   -6.1580 oh        1 1OP     -0.330000
     19 H1          1.9750    1.4600   -5.3080 hc        1 1OP      0.095000
     20 H2          3.4180    1.4350   -4.5710 hc        1 1OP      0.095000
     21 H3          3.2200    3.8820   -4.3200 h1        1 1OP      0.058000
     22 H4          2.0980    3.7320   -5.3610 h1        1 1OP      0.058000
     23 H5         -4.3240   -1.8060    4.7220 hn        1 1OP      0.125500
     24 H6         -4.1820   -2.8450    3.5760 hn        1 1OP      0.125500
     25 HA         -2.0670   -3.0940    3.7030 h4        1 1OP      0.084000
     26 HB1        -1.6030   -0.5650    4.6170 hc        1 1OP      0.100000
     27 HB2        -3.0640   -0.5250    3.8540 hc        1 1OP      0.100000
     28 H9         -3.1650   -0.5430    1.4620 ha        1 1OP      0.126000
     29 H10         0.3830   -1.4960    3.2880 ha        1 1OP      0.146000
     30 H11        -2.0820   -0.3530   -0.5680 ha        1 1OP      0.126000
     31 H12         1.5270   -1.3510    1.2530 ha        1 1OP      0.130000
     32 H13         1.5610    0.8290   -0.8000 h1        1 1OP      0.068500
     33 H14         0.2070    1.1090   -1.4570 h1        1 1OP      0.068500
     34 H15         2.4230   -0.0290   -2.8160 hc        1 1OP      0.094000
     35 H16         0.9650    0.1000   -3.4990 hc        1 1OP      0.094000
     36 H17         1.1060    2.4280   -3.3360 hc        1 1OP      0.078500
     37 H18         2.5100    2.3430   -2.6190 hc        1 1OP      0.078500
     38 H19         3.8240    4.1860   -6.5630 ho        1 1OP      0.193000
     39 OXT        -1.0660   -3.4890    5.9380 o         1 1OP     -0.575500
@<TRIPOS>BOND
     1    1    2 1   
     2    1   17 1   
     3    1   19 1   
     4    1   20 1   
     5    2   18 1   
     6    2   21 1   
     7    2   22 1   
     8    3    6 1   
     9    3   23 1   
    10    3   24 1   
    11    4    5 1   
    12    4   39 1   
    13    6    7 1   
    14    6   25 1   
    15    7    8 1   
    16    7   26 1   
    17    7   27 1   
    18    8   10 1   
    19    9   11 1   
    20    9   28 1   
    21   10   29 1   
    22   11   30 1   
    23   12   13 1   
    24   12   31 1   
    25   14   15 1   
    26   15   16 1   
    27   15   32 1   
    28   15   33 1   
    29   16   17 1   
    30   16   34 1   
    31   16   35 1   
    32   17   36 1   
    33   17   37 1   
    34   18   38 1   
@<TRIPOS>SUBSTRUCTURE
     1 1OP         1 TEMP              0 ****  ****    0 ROOT
