@<TRIPOS>MOLECULE
1OQ
   28    29     1     0     0
SMALL
bcc


@<TRIPOS>ATOM
      1 F4          0.1710   -0.5750   -0.6570 f         1 1OQ     -0.227633
      2 C14         1.1280    0.0880    0.0660 c3        1 1OQ      0.599600
      3 F2          0.5030    0.4640    1.2260 f         1 1OQ     -0.227633
      4 F3          2.0050   -0.8950    0.4530 f         1 1OQ     -0.227633
      5 C10         1.7970    1.2520   -0.6950 ca        1 1OQ      0.331600
      6 N2          0.9840    2.2480   -1.1090 nb        1 1OQ     -0.623000
      7 C11         3.1850    1.2280   -0.9150 ca        1 1OQ     -0.192300
      8 C12         3.7570    2.2980   -1.6070 ca        1 1OQ     -0.091000
      9 C13         2.9390    3.3370   -2.0480 ca        1 1OQ     -0.201300
     10 C9          1.5530    3.2770   -1.7780 ca        1 1OQ      0.409600
     11 C7          0.6370    4.3870   -2.2650 c3        1 1OQ      0.003400
     12 C8          1.2990    5.6760   -2.1460 c1        1 1OQ      0.210700
     13 N1          1.8020    6.7180   -2.0260 n1        1 1OQ     -0.354800
     14 C4          0.1850    4.0990   -3.6670 ca        1 1OQ     -0.112300
     15 C3         -0.8950    3.2270   -3.8570 ca        1 1OQ     -0.086500
     16 C2         -1.3480    2.9320   -5.1370 ca        1 1OQ     -0.165000
     17 C5          0.8120    4.6750   -4.7750 ca        1 1OQ     -0.086500
     18 C6          0.3710    4.3940   -6.0640 ca        1 1OQ     -0.165000
     19 C1         -0.7140    3.5180   -6.2490 ca        1 1OQ      0.137900
     20 F1         -1.1510    3.2390   -7.5000 f         1 1OQ     -0.135900
     21 H1          3.7960    0.3890   -0.5510 ha        1 1OQ      0.168000
     22 H2          4.8400    2.3180   -1.8010 ha        1 1OQ      0.154000
     23 H3          3.3580    4.1910   -2.5990 ha        1 1OQ      0.159000
     24 H4         -0.2840    4.4320   -1.5990 hc        1 1OQ      0.116700
     25 H5         -1.3860    2.7650   -2.9850 ha        1 1OQ      0.148500
     26 H6         -2.1950    2.2470   -5.2900 ha        1 1OQ      0.155000
     27 H7          1.6630    5.3620   -4.6370 ha        1 1OQ      0.148500
     28 H8          0.8600    4.8500   -6.9380 ha        1 1OQ      0.155000
@<TRIPOS>BOND
     1    1    2 1   
     2    2    3 1   
     3    2    4 1   
     4    2    5 1   
     5    5    6 ar  
     6    5    7 ar  
     7    6   10 ar  
     8    7    8 ar  
     9    7   21 1   
    10    8    9 ar  
    11    8   22 1   
    12    9   10 ar  
    13    9   23 1   
    14   10   11 1   
    15   11   12 1   
    16   11   14 1   
    17   11   24 1   
    18   12   13 3   
    19   14   15 ar  
    20   14   17 ar  
    21   15   16 ar  
    22   15   25 1   
    23   16   19 ar  
    24   16   26 1   
    25   17   18 ar  
    26   17   27 1   
    27   18   19 ar  
    28   18   28 1   
    29   19   20 1   
@<TRIPOS>SUBSTRUCTURE
     1 1OQ         1 TEMP              0 ****  ****    0 ROOT
