@<TRIPOS>MOLECULE
1OQ
   28    29     1     0     0
SMALL
bcc


@<TRIPOS>ATOM
      1 F4          0.1400   -0.5630   -0.6520 f         1 1OQ     -0.227633
      2 C14         1.1040    0.0910    0.0690 c3        1 1OQ      0.599600
      3 F2          0.4830    0.4750    1.2290 f         1 1OQ     -0.227633
      4 F3          1.9730   -0.8990    0.4570 f         1 1OQ     -0.227633
      5 C10         1.7830    1.2490   -0.6930 ca        1 1OQ      0.331600
      6 N2          0.9780    2.2510   -1.1080 nb        1 1OQ     -0.623000
      7 C11         3.1710    1.2110   -0.9150 ca        1 1OQ     -0.192300
      8 C12         3.7510    2.2760   -1.6090 ca        1 1OQ     -0.091000
      9 C13         2.9430    3.3210   -2.0510 ca        1 1OQ     -0.201300
     10 C9          1.5560    3.2740   -1.7790 ca        1 1OQ      0.409600
     11 C7          0.6500    4.3920   -2.2670 c3        1 1OQ      0.003400
     12 C8          1.3250    5.6750   -2.1510 c1        1 1OQ      0.210700
     13 N1          1.8360    6.7120   -2.0330 n1        1 1OQ     -0.354800
     14 C4          0.1950    4.1060   -3.6680 ca        1 1OQ     -0.112300
     15 C3         -0.8940    3.2440   -3.8560 ca        1 1OQ     -0.086500
     16 C2         -1.3510    2.9510   -5.1360 ca        1 1OQ     -0.165000
     17 C5          0.8270    4.6740   -4.7780 ca        1 1OQ     -0.086500
     18 C6          0.3810    4.3950   -6.0660 ca        1 1OQ     -0.165000
     19 C1         -0.7130    3.5300   -6.2490 ca        1 1OQ      0.137900
     20 F1         -1.1520    3.2520   -7.4990 f         1 1OQ     -0.135900
     21 H1          3.7750    0.3670   -0.5500 ha        1 1OQ      0.168000
     22 H2          4.8350    2.2860   -1.8040 ha        1 1OQ      0.154000
     23 H3          3.3690    4.1710   -2.6030 ha        1 1OQ      0.159000
     24 H4         -0.2690    4.4460   -1.6010 hc        1 1OQ      0.116700
     25 H5         -1.3890    2.7880   -2.9830 ha        1 1OQ      0.148500
     26 H6         -2.2050    2.2740   -5.2870 ha        1 1OQ      0.155000
     27 H7          1.6830    5.3530   -4.6420 ha        1 1OQ      0.148500
     28 H8          0.8740    4.8440   -6.9410 ha        1 1OQ      0.155000
@<TRIPOS>BOND
     1    1    2 1   
     2    2    3 1   
     3    2    4 1   
     4    2    5 1   
     5    5    6 ar  
     6    5    7 ar  
     7    6   10 ar  
     8    7    8 ar  
     9    7   21 1   
    10    8    9 ar  
    11    8   22 1   
    12    9   10 ar  
    13    9   23 1   
    14   10   11 1   
    15   11   12 1   
    16   11   14 1   
    17   11   24 1   
    18   12   13 3   
    19   14   15 ar  
    20   14   17 ar  
    21   15   16 ar  
    22   15   25 1   
    23   16   19 ar  
    24   16   26 1   
    25   17   18 ar  
    26   17   27 1   
    27   18   19 ar  
    28   18   28 1   
    29   19   20 1   
@<TRIPOS>SUBSTRUCTURE
     1 1OQ         1 TEMP              0 ****  ****    0 ROOT
