@<TRIPOS>MOLECULE
1OR
   52    55     1     0     0
SMALL
bcc


@<TRIPOS>ATOM
      1 P           1.7950    0.4070    0.3790 p5        1 1OR      1.607500
      2 O1P         1.2750    0.6390   -1.0980 oh        1 1OR     -0.730400
      3 O2P         2.5360    1.5200    0.9430 o         1 1OR     -0.804300
      4 C5'         2.8230   -1.6710    1.5200 c3        1 1OR      0.170400
      5 O5'         2.5830   -0.9920    0.3010 os        1 1OR     -0.551200
      6 C4'         1.4610   -1.9070    2.1630 c3        1 1OR      0.047100
      7 O4'         1.4940   -2.5480    3.4320 os        1 1OR     -0.402600
      8 C3'         0.8030   -0.5320    2.4300 c3        1 1OR      0.060100
      9 O3'         0.4350    0.0450    1.2060 os        1 1OR     -0.521200
     10 C2'        -0.3340   -0.9070    3.3860 c3        1 1OR      0.130100
     11 O2'        -1.4750   -1.4080    2.7300 oh        1 1OR     -0.582800
     12 C1'         0.2960   -2.1300    4.1690 c3        1 1OR      0.245800
     13 N1          0.4170   -3.8450    9.1110 nb        1 1OR     -0.784000
     14 C2         -0.2020   -4.3220    8.0040 ca        1 1OR      0.683900
     15 N3         -0.2430   -3.8170    6.7470 nb        1 1OR     -0.726000
     16 C4          0.4670   -2.6600    6.6320 ca        1 1OR      0.466800
     17 C5          1.1880   -2.0240    7.7350 ca        1 1OR     -0.202200
     18 C6          1.1460   -2.6810    9.0130 ca        1 1OR      0.749200
     19 N7          1.8210   -0.8600    7.2650 nc        1 1OR     -0.528100
     20 C8          1.5130   -0.7760    5.9690 cd        1 1OR      0.408700
     21 N9          0.6580   -1.8180    5.5170 na        1 1OR     -0.282000
     22 N6          1.8880   -2.2210   10.1030 nh        1 1OR     -0.743300
     23 C26         1.9670   -3.0360   11.3030 c3        1 1OR      0.202800
     24 C27         0.7990   -2.9290   12.2830 c3        1 1OR     -0.107400
     25 C28         1.0300   -3.8340   13.4650 c3        1 1OR     -0.090600
     26 C23         2.0760   -0.7950   10.2950 c3        1 1OR      0.202800
     27 C24         0.8040    0.0510   10.3730 c3        1 1OR     -0.107400
     28 C25         1.1590    1.5010   10.5760 c3        1 1OR     -0.090600
     29 H1          1.5180    1.4750   -1.4960 ho        1 1OR      0.491000
     30 H2          3.4890   -1.0400    2.1660 h1        1 1OR      0.083700
     31 H3          3.3330   -2.6340    1.2560 h1        1 1OR      0.083700
     32 H4          0.8130   -2.5350    1.4840 h1        1 1OR      0.094700
     33 H5          1.5140    0.1700    2.9590 h1        1 1OR      0.078700
     34 H6         -0.6230   -0.0590    4.0580 h1        1 1OR      0.082700
     35 H7         -1.6360   -0.8350    1.9660 ho        1 1OR      0.436000
     36 H8         -0.4130   -3.0110    4.1550 h2        1 1OR      0.140700
     37 H10         1.8510    0.0130    5.2860 h5        1 1OR      0.070800
     38 H11         2.0930   -4.1150   11.0030 h1        1 1OR      0.063450
     39 H12         2.9130   -2.7280   11.8370 h1        1 1OR      0.063450
     40 H13        -0.1580   -3.2120   11.7720 hc        1 1OR      0.049200
     41 H14         0.6940   -1.8690   12.6350 hc        1 1OR      0.049200
     42 H15         0.1820   -3.7470   14.1870 hc        1 1OR      0.035700
     43 H16         1.1050   -4.9000   13.1380 hc        1 1OR      0.035700
     44 H17         1.9740   -3.5620   13.9960 hc        1 1OR      0.035700
     45 H18         2.7330   -0.4060    9.4670 h1        1 1OR      0.063450
     46 H19         2.6470   -0.6570   11.2590 h1        1 1OR      0.063450
     47 H20         0.1580   -0.3040   11.2180 hc        1 1OR      0.049200
     48 H21         0.2100   -0.0650    9.4280 hc        1 1OR      0.049200
     49 H22         1.7300    1.6410   11.5250 hc        1 1OR      0.035700
     50 H23         1.7840    1.8770    9.7300 hc        1 1OR      0.035700
     51 H24         0.2300    2.1190   10.6300 hc        1 1OR      0.035700
     52 H9         -0.7650   -5.2690    8.1540 h5        1 1OR      0.054100
@<TRIPOS>BOND
     1    1    2 1   
     2    1    3 2   
     3    1    5 1   
     4    1    9 1   
     5    2   29 1   
     6    4    5 1   
     7    4    6 1   
     8    4   30 1   
     9    4   31 1   
    10    6    7 1   
    11    6    8 1   
    12    6   32 1   
    13    7   12 1   
    14    8    9 1   
    15    8   10 1   
    16    8   33 1   
    17   10   11 1   
    18   10   12 1   
    19   10   34 1   
    20   11   35 1   
    21   12   21 1   
    22   12   36 1   
    23   13   14 ar  
    24   13   18 ar  
    25   14   15 ar  
    26   14   52 1   
    27   15   16 ar  
    28   16   17 ar  
    29   16   21 1   
    30   17   18 ar  
    31   17   19 1   
    32   18   22 1   
    33   19   20 2   
    34   20   21 1   
    35   20   37 1   
    36   22   23 1   
    37   22   26 1   
    38   23   24 1   
    39   23   38 1   
    40   23   39 1   
    41   24   25 1   
    42   24   40 1   
    43   24   41 1   
    44   25   42 1   
    45   25   43 1   
    46   25   44 1   
    47   26   27 1   
    48   26   45 1   
    49   26   46 1   
    50   27   28 1   
    51   27   47 1   
    52   27   48 1   
    53   28   49 1   
    54   28   50 1   
    55   28   51 1   
@<TRIPOS>SUBSTRUCTURE
     1 1OR         1 TEMP              0 ****  ****    0 ROOT
