@<TRIPOS>MOLECULE
1OR
   52    47     1     0     0
SMALL
bcc


@<TRIPOS>ATOM
      1 P          -1.0550    2.0130   -6.7910 p3        1 1OR      2.577000
      2 O1P        -1.7140    1.8730   -8.2070 oh        1 1OR     -0.763000
      3 O2P        -1.5540    3.3560   -6.3640 o         1 1OR     -1.073000
      4 C5'         1.3290    1.9650   -5.4980 c3        1 1OR      0.020000
      5 O5'         0.6440    1.9760   -6.8830 os        1 1OR     -0.712000
      6 C4'         0.7820    0.8450   -4.6050 c3        1 1OR     -0.066000
      7 O4'         1.2470    0.7630   -3.4460 os        1 1OR     -0.261000
      8 C3'        -0.8940    0.8380   -4.4650 c3        1 1OR     -0.049000
      9 O3'        -1.5760    0.7770   -5.7270 o         1 1OR     -0.681000
     10 C2'        -1.1890   -0.0580   -3.5980 c3        1 1OR      0.021000
     11 O2'        -1.3680   -1.3490   -4.2380 oh        1 1OR     -0.310000
     12 C1'         0.0930   -0.0780   -2.6360 c3        1 1OR      0.171000
     13 N1         -0.4650   -1.7540    1.8860 n1        1 1OR     -0.259000
     14 C2         -0.7510   -2.4110    0.7190 c1        1 1OR      0.017000
     15 N3         -0.6840   -1.7380   -0.4950 n1        1 1OR     -0.203000
     16 C4         -0.3310   -0.4130   -0.5290 c1        1 1OR     -0.074500
     17 C5         -0.0460    0.2410    0.6260 c1        1 1OR     -0.074500
     18 C6         -0.1150   -0.4470    1.8610 c1        1 1OR      0.226000
     19 N7          0.2980    1.5290    0.3070 n1        1 1OR     -0.112000
     20 C8          0.2230    1.6620   -1.0440 c1        1 1OR     -0.032000
     21 N9         -0.1650    0.4650   -1.5650 n2        1 1OR     -0.213000
     22 N6          0.1070   -0.2250    3.2870 n2        1 1OR     -0.233000
     23 C26        -1.0290   -0.1660    4.1890 c3        1 1OR     -0.034000
     24 C27        -1.0740   -1.4380    5.0430 c3        1 1OR     -0.186500
     25 C28        -2.2600   -1.3770    5.9730 c3        1 1OR     -0.208500
     26 C23         1.4160    0.1900    3.7530 c3        1 1OR     -0.034000
     27 C24         2.0820   -0.9880    4.5860 c3        1 1OR     -0.186500
     28 C25         3.5760   -0.7060    4.7600 c3        1 1OR     -0.208500
     29 H1         -1.2150    2.2790   -8.8040 ho        1 1OR      0.290000
     30 H2          1.1780    2.8190   -5.0630 h1        1 1OR      0.120000
     31 H3          2.2830    1.8360   -5.6180 h1        1 1OR      0.120000
     32 H4          1.0260    0.0000   -5.0560 h1        1 1OR      0.138000
     33 H5         -1.1480    1.7180   -4.0560 h1        1 1OR      0.127000
     34 H6         -1.9890    0.1960   -3.1000 h1        1 1OR      0.138000
     35 H7         -2.2430   -1.6010   -4.1730 ho        1 1OR      0.232000
     36 H8          0.3830   -0.9820   -2.4890 h2        1 1OR      0.157000
     37 H9         -1.0060   -3.3640    0.7400 ha        1 1OR      0.191000
     38 H10         0.3570    2.4900   -1.5480 DU        1 1OR      0.214000
     39 H11        -1.8510   -0.0940    3.6710 h1        1 1OR      0.102500
     40 H12        -0.9410    0.6130    4.7710 h1        1 1OR      0.102500
     41 H13        -0.2520   -1.5060    5.5690 hc        1 1OR      0.089000
     42 H14        -1.1560   -2.2240    4.4590 hc        1 1OR      0.089000
     43 H15        -3.0840   -1.3430    5.4500 hc        1 1OR      0.074833
     44 H16        -2.2680   -2.1640    6.5370 hc        1 1OR      0.074833
     45 H17        -2.1950   -0.5710    6.5350 hc        1 1OR      0.074833
     46 H18         1.9830    0.4080    2.9840 h1        1 1OR      0.102500
     47 H19         1.3220    0.9840    4.3230 h1        1 1OR      0.102500
     48 H20         1.9610   -1.8450    4.1010 hc        1 1OR      0.089000
     49 H21         1.6510   -1.0500    5.4770 hc        1 1OR      0.089000
     50 H22         3.9820   -1.4160    5.2890 hc        1 1OR      0.074833
     51 H23         3.6940    0.1420    5.2120 hc        1 1OR      0.074833
     52 H24         4.0010   -0.6690    3.8880 hc        1 1OR      0.074833
@<TRIPOS>BOND
     1    1    2 1   
     2    1    3 1   
     3    1    5 1   
     4    2   29 1   
     5    4    5 1   
     6    4    6 1   
     7    4   30 1   
     8    4   31 1   
     9    6    7 1   
    10    6    8 1   
    11    6   32 1   
    12    7   12 1   
    13    8    9 1   
    14    8   10 1   
    15    8   33 1   
    16   10   11 1   
    17   10   12 1   
    18   10   34 1   
    19   11   35 1   
    20   12   21 1   
    21   12   36 1   
    22   13   18 1   
    23   14   15 1   
    24   14   37 1   
    25   16   17 1   
    26   19   20 1   
    27   20   21 1   
    28   22   23 1   
    29   22   26 1   
    30   23   24 1   
    31   23   39 1   
    32   23   40 1   
    33   24   25 1   
    34   24   41 1   
    35   24   42 1   
    36   25   43 1   
    37   25   44 1   
    38   25   45 1   
    39   26   27 1   
    40   26   46 1   
    41   26   47 1   
    42   27   28 1   
    43   27   48 1   
    44   27   49 1   
    45   28   50 1   
    46   28   51 1   
    47   28   52 1   
@<TRIPOS>SUBSTRUCTURE
     1 1OR         1 TEMP              0 ****  ****    0 ROOT
