@<TRIPOS>MOLECULE
1OR
   52    55     1     0     0
SMALL
bcc


@<TRIPOS>ATOM
      1 P           1.8060    0.4030    0.3770 p5        1 1OR      1.607500
      2 O1P         1.2910    0.6250   -1.1030 oh        1 1OR     -0.730400
      3 O2P         2.5310    1.5270    0.9430 o         1 1OR     -0.804300
      4 C5'         2.8530   -1.6610    1.5290 c3        1 1OR      0.170400
      5 O5'         2.6110   -0.9860    0.3070 os        1 1OR     -0.551200
      6 C4'         1.4900   -1.9110    2.1650 c3        1 1OR      0.047100
      7 O4'         1.5250   -2.5490    3.4350 os        1 1OR     -0.402600
      8 C3'         0.8150   -0.5430    2.4260 c3        1 1OR      0.060100
      9 O3'         0.4460    0.0260    1.1980 os        1 1OR     -0.521200
     10 C2'        -0.3220   -0.9300    3.3770 c3        1 1OR      0.130100
     11 O2'        -1.4550   -1.4460    2.7160 oh        1 1OR     -0.582800
     12 C1'         0.3170   -2.1440    4.1650 c3        1 1OR      0.245800
     13 N1          0.4350   -3.8490    9.1110 nb        1 1OR     -0.784000
     14 C2         -0.1710   -4.3360    8.0010 ca        1 1OR      0.683900
     15 N3         -0.2120   -3.8330    6.7430 nb        1 1OR     -0.726000
     16 C4          0.4830   -2.6670    6.6300 ca        1 1OR      0.466800
     17 C5          1.1900   -2.0210    7.7360 ca        1 1OR     -0.202200
     18 C6          1.1500   -2.6750    9.0140 ca        1 1OR      0.749200
     19 N7          1.8100   -0.8490    7.2670 nc        1 1OR     -0.528100
     20 C8          1.5080   -0.7710    5.9690 cd        1 1OR      0.408700
     21 N9          0.6680   -1.8250    5.5150 na        1 1OR     -0.282000
     22 N6          1.8800   -2.2050   10.1070 nh        1 1OR     -0.743300
     23 C26         1.9640   -3.0160   11.3090 c3        1 1OR      0.202800
     24 C27         0.7890   -2.9230   12.2830 c3        1 1OR     -0.107400
     25 C28         1.0250   -3.8230   13.4680 c3        1 1OR     -0.090600
     26 C23         2.0490   -0.7760   10.2980 c3        1 1OR      0.202800
     27 C24         0.7660    0.0540   10.3670 c3        1 1OR     -0.107400
     28 C25         1.1010    1.5090   10.5700 c3        1 1OR     -0.090600
     29 H1          1.5250    1.4640   -1.5010 ho        1 1OR      0.491000
     30 H2          3.5080   -1.0200    2.1760 h1        1 1OR      0.083700
     31 H3          3.3760   -2.6180    1.2690 h1        1 1OR      0.083700
     32 H4          0.8530   -2.5480    1.4840 h1        1 1OR      0.094700
     33 H5          1.5150    0.1680    2.9570 h1        1 1OR      0.078700
     34 H6         -0.6250   -0.0840    4.0450 h1        1 1OR      0.082700
     35 H7         -1.6180   -0.8760    1.9500 ho        1 1OR      0.436000
     36 H8         -0.3800   -3.0330    4.1490 h2        1 1OR      0.140700
     37 H10         1.8390    0.0210    5.2870 h5        1 1OR      0.070800
     38 H11         2.1050   -4.0940   11.0120 h1        1 1OR      0.063450
     39 H12         2.9030   -2.6950   11.8480 h1        1 1OR      0.063450
     40 H13         0.6680   -1.8630   12.6320 hc        1 1OR      0.049200
     41 H14        -0.1610   -3.2180   11.7670 hc        1 1OR      0.049200
     42 H15         1.9630   -3.5380   14.0030 hc        1 1OR      0.035700
     43 H16         0.1730   -3.7460   14.1850 hc        1 1OR      0.035700
     44 H17         1.1160   -4.8880   13.1430 hc        1 1OR      0.035700
     45 H18         2.7050   -0.3800    9.4730 h1        1 1OR      0.063450
     46 H19         2.6130   -0.6290   11.2640 h1        1 1OR      0.063450
     47 H20         0.1200   -0.3080   11.2100 hc        1 1OR      0.049200
     48 H21         0.1780   -0.0710    9.4200 hc        1 1OR      0.049200
     49 H22         1.6660    1.6570   11.5220 hc        1 1OR      0.035700
     50 H23         0.1640    2.1150   10.6180 hc        1 1OR      0.035700
     51 H24         1.7260    1.8910    9.7270 hc        1 1OR      0.035700
     52 H9         -0.7230   -5.2900    8.1500 h5        1 1OR      0.054100
@<TRIPOS>BOND
     1    1    2 1   
     2    1    3 2   
     3    1    5 1   
     4    1    9 1   
     5    2   29 1   
     6    4    5 1   
     7    4    6 1   
     8    4   30 1   
     9    4   31 1   
    10    6    7 1   
    11    6    8 1   
    12    6   32 1   
    13    7   12 1   
    14    8    9 1   
    15    8   10 1   
    16    8   33 1   
    17   10   11 1   
    18   10   12 1   
    19   10   34 1   
    20   11   35 1   
    21   12   21 1   
    22   12   36 1   
    23   13   14 ar  
    24   13   18 ar  
    25   14   15 ar  
    26   14   52 1   
    27   15   16 ar  
    28   16   17 ar  
    29   16   21 1   
    30   17   18 ar  
    31   17   19 1   
    32   18   22 1   
    33   19   20 2   
    34   20   21 1   
    35   20   37 1   
    36   22   23 1   
    37   22   26 1   
    38   23   24 1   
    39   23   38 1   
    40   23   39 1   
    41   24   25 1   
    42   24   40 1   
    43   24   41 1   
    44   25   42 1   
    45   25   43 1   
    46   25   44 1   
    47   26   27 1   
    48   26   45 1   
    49   26   46 1   
    50   27   28 1   
    51   27   47 1   
    52   27   48 1   
    53   28   49 1   
    54   28   50 1   
    55   28   51 1   
@<TRIPOS>SUBSTRUCTURE
     1 1OR         1 TEMP              0 ****  ****    0 ROOT
