@<TRIPOS>MOLECULE
1OR
   52    55     1     0     0
SMALL
bcc


@<TRIPOS>ATOM
      1 P           4.9070   -0.8970    1.1580 p5        1 1OR      1.597500
      2 O1P         6.3710   -0.3770    1.4670 oh        1 1OR     -0.726400
      3 O2P         4.2960   -1.6400    2.2470 o         1 1OR     -0.806300
      4 C5'         3.8880   -1.9890   -0.9430 c3        1 1OR      0.167400
      5 O5'         5.0720   -1.7160   -0.2200 os        1 1OR     -0.547200
      6 C4'         3.2460   -0.6420   -1.2560 c3        1 1OR      0.042100
      7 O4'         2.0020   -0.7280   -1.9550 os        1 1OR     -0.403600
      8 C3'         2.9060    0.0650    0.0780 c3        1 1OR      0.111100
      9 O3'         4.0910    0.4410    0.7220 os        1 1OR     -0.498200
     10 C2'         1.9440    1.1660   -0.3820 c3        1 1OR      0.133100
     11 O2'         2.6580    2.2600   -0.9020 oh        1 1OR     -0.567800
     12 C1'         1.2130    0.4400   -1.5890 c3        1 1OR      0.227800
     13 N1         -3.5940    1.9990   -0.2660 nb        1 1OR     -0.787000
     14 C2         -2.4220    2.6700   -0.3840 ca        1 1OR      0.683900
     15 N3         -1.1880    2.2100   -0.6980 nb        1 1OR     -0.750000
     16 C4         -1.1840    0.8650   -0.9280 ca        1 1OR      0.442800
     17 C5         -2.3650    0.0070   -0.8420 ca        1 1OR     -0.195200
     18 C6         -3.6110    0.6430   -0.5020 ca        1 1OR      0.752200
     19 N7         -2.0020   -1.3130   -1.1570 nc        1 1OR     -0.541100
     20 C8         -0.6910   -1.2800   -1.4190 cd        1 1OR      0.427700
     21 N9         -0.1260    0.0120   -1.2860 na        1 1OR     -0.292000
     22 N6         -4.8180   -0.0560   -0.5000 nh        1 1OR     -0.742300
     23 C26        -6.0640    0.6740   -0.3420 c3        1 1OR      0.203800
     24 C27        -6.4730    1.0290    1.0870 c3        1 1OR     -0.106900
     25 C28        -7.7770    1.7830    1.0810 c3        1 1OR     -0.091100
     26 C23        -4.8450   -1.4490   -0.0950 c3        1 1OR      0.203800
     27 C24        -4.2930   -1.7600    1.2970 c3        1 1OR     -0.106900
     28 C25        -4.3910   -3.2380    1.5730 c3        1 1OR     -0.091100
     29 H1          6.7070   -0.5950    2.3370 ho        1 1OR      0.489000
     30 H2          4.1960   -2.5320   -1.8740 h1        1 1OR      0.079700
     31 H3          3.2170   -2.6350   -0.3160 h1        1 1OR      0.079700
     32 H4          3.9380   -0.0080   -1.8830 h1        1 1OR      0.103700
     33 H5          2.3340   -0.6280    0.7670 h1        1 1OR      0.077700
     34 H6          1.2410    1.4710    0.4330 h1        1 1OR      0.094700
     35 H7          2.0980    3.0400   -0.7920 ho        1 1OR      0.425000
     36 H8          1.2030    1.1170   -2.4940 h2        1 1OR      0.102700
     37 H10        -0.0680   -2.1340   -1.7170 h5        1 1OR      0.086800
     38 H11        -6.0110    1.6210   -0.9510 h1        1 1OR      0.063700
     39 H12        -6.8720    0.0310   -0.7980 h1        1 1OR      0.063700
     40 H13        -6.5820    0.0920    1.6950 hc        1 1OR      0.049450
     41 H14        -5.6770    1.6530    1.5700 hc        1 1OR      0.049450
     42 H15        -8.0820    2.0320    2.1260 hc        1 1OR      0.036033
     43 H16        -7.6790    2.7360    0.5060 hc        1 1OR      0.036033
     44 H17        -8.5870    1.1730    0.6130 hc        1 1OR      0.036033
     45 H18        -5.9220   -1.7880   -0.1280 h1        1 1OR      0.063700
     46 H19        -4.2880   -2.0570   -0.8630 h1        1 1OR      0.063700
     47 H20        -3.2230   -1.4330    1.3650 hc        1 1OR      0.049450
     48 H21        -4.8670   -1.1900    2.0740 hc        1 1OR      0.049450
     49 H22        -3.9850   -3.4650    2.5890 hc        1 1OR      0.036033
     50 H23        -5.4530   -3.5800    1.5330 hc        1 1OR      0.036033
     51 H24        -3.8040   -3.8200    0.8210 hc        1 1OR      0.036033
     52 H9         -2.4890    3.7620   -0.1850 h5        1 1OR      0.052100
@<TRIPOS>BOND
     1    1    2 1   
     2    1    3 2   
     3    1    5 1   
     4    1    9 1   
     5    2   29 1   
     6    4    5 1   
     7    4    6 1   
     8    4   30 1   
     9    4   31 1   
    10    6    7 1   
    11    6    8 1   
    12    6   32 1   
    13    7   12 1   
    14    8    9 1   
    15    8   10 1   
    16    8   33 1   
    17   10   11 1   
    18   10   12 1   
    19   10   34 1   
    20   11   35 1   
    21   12   21 1   
    22   12   36 1   
    23   13   14 ar  
    24   13   18 ar  
    25   14   15 ar  
    26   14   52 1   
    27   15   16 ar  
    28   16   17 ar  
    29   16   21 1   
    30   17   18 ar  
    31   17   19 1   
    32   18   22 1   
    33   19   20 2   
    34   20   21 1   
    35   20   37 1   
    36   22   23 1   
    37   22   26 1   
    38   23   24 1   
    39   23   38 1   
    40   23   39 1   
    41   24   25 1   
    42   24   40 1   
    43   24   41 1   
    44   25   42 1   
    45   25   43 1   
    46   25   44 1   
    47   26   27 1   
    48   26   45 1   
    49   26   46 1   
    50   27   28 1   
    51   27   47 1   
    52   27   48 1   
    53   28   49 1   
    54   28   50 1   
    55   28   51 1   
@<TRIPOS>SUBSTRUCTURE
     1 1OR         1 TEMP              0 ****  ****    0 ROOT
