@<TRIPOS>MOLECULE
1OR
   53    56     1     0     0
SMALL
bcc


@<TRIPOS>ATOM
      1 P          -0.0580    0.4510    0.4490 p5        1 1OR      1.611500
      2 O1P        -0.6100    0.3440   -1.0240 oh        1 1OR     -0.725400
      3 O2P        -0.3640    1.6570    1.1970 o         1 1OR     -0.804300
      4 C5'         2.1860   -0.1720    1.5510 c3        1 1OR      0.174400
      5 O5'         1.5100    0.1020    0.3390 os        1 1OR     -0.542200
      6 C4'         1.4910   -1.3870    2.1590 c3        1 1OR      0.041100
      7 O4'         1.9880   -1.8110    3.4290 os        1 1OR     -0.398600
      8 C3'         0.0110   -1.0160    2.4230 c3        1 1OR      0.066100
      9 O3'        -0.6500   -0.8850    1.1970 os        1 1OR     -0.514200
     10 C2'        -0.4460   -2.1540    3.3410 c3        1 1OR      0.136100
     11 O2'        -0.8050   -3.3340    2.6680 oh        1 1OR     -0.580800
     12 C1'         0.8960   -2.4870    4.1150 c3        1 1OR      0.225800
     13 N1          1.9850   -3.7390    9.1120 nb        1 1OR     -0.688000
     14 C2          1.9710   -4.4950    7.9760 ca        1 1OR      0.670900
     15 N3          1.6490   -4.1260    6.7100 nb        1 1OR     -0.623000
     16 C4          1.3020   -2.8200    6.5940 ca        1 1OR      0.466800
     17 C5          1.2740   -1.8870    7.7420 ca        1 1OR     -0.144200
     18 C6          1.6320   -2.4340    8.9900 ca        1 1OR      0.553200
     19 N7          0.8830   -0.6120    7.3090 nc        1 1OR     -0.579100
     20 C8          0.6820   -0.7410    5.9860 cd        1 1OR      0.501700
     21 N9          0.8880   -2.0510    5.4930 na        1 1OR     -0.258000
     22 N6          1.6380   -1.5600   10.1880 n4        1 1OR     -0.671100
     23 C26         0.6740   -2.0450   11.2350 c3        1 1OR      0.113300
     24 C27        -0.7840   -1.9370   10.8070 c3        1 1OR     -0.102900
     25 C28        -1.6700   -2.4210   11.9290 c3        1 1OR     -0.100600
     26 C23         3.0340   -1.4510   10.7410 c3        1 1OR      0.113300
     27 C24         3.2470   -0.1970   11.5810 c3        1 1OR     -0.102900
     28 C25         4.6910   -0.1330   12.0170 c3        1 1OR     -0.100600
     29 H1         -1.0820    1.1070   -1.3630 ho        1 1OR      0.503000
     30 H2          2.1200    0.7270    2.2190 h1        1 1OR      0.087200
     31 H3          3.2530   -0.3890    1.2820 h1        1 1OR      0.087200
     32 H4          1.5680   -2.2690    1.4580 h1        1 1OR      0.105700
     33 H5         -0.0710   -0.0370    2.9860 h1        1 1OR      0.080700
     34 H6         -1.2800   -1.8460    4.0220 h1        1 1OR      0.082700
     35 H7         -1.2350   -3.0760    1.8370 ho        1 1OR      0.451000
     36 H8          1.1090   -3.5970    4.0750 h2        1 1OR      0.146700
     37 H10         0.3710    0.0790    5.3170 h5        1 1OR      0.104800
     38 H11         0.9270   -3.1150   11.4850 hx        1 1OR      0.108450
     39 H12         0.8480   -1.4110   12.1530 hx        1 1OR      0.108450
     40 H13        -0.9650   -2.5560    9.8890 hc        1 1OR      0.064950
     41 H14        -1.0400   -0.8730   10.5570 hc        1 1OR      0.064950
     42 H15        -1.4520   -3.4880   12.1780 hc        1 1OR      0.059033
     43 H16        -1.5250   -1.8040   12.8480 hc        1 1OR      0.059033
     44 H17        -2.7410   -2.3430   11.6180 hc        1 1OR      0.059033
     45 H18         3.7460   -1.4370    9.8650 hx        1 1OR      0.108450
     46 H19         3.2380   -2.3760   11.3510 hx        1 1OR      0.108450
     47 H20         2.9940    0.7220   10.9860 hc        1 1OR      0.064950
     48 H21         2.5840   -0.2090   12.4860 hc        1 1OR      0.064950
     49 H22         4.8510    0.7790   12.6430 hc        1 1OR      0.059033
     50 H23         4.9650   -1.0300   12.6230 hc        1 1OR      0.059033
     51 H24         5.3730   -0.0770   11.1340 hc        1 1OR      0.059033
     52 H61         1.3320   -0.6220    9.8840 hn        1 1OR      0.469800
     53 H9          2.2680   -5.5620    8.1120 h5        1 1OR      0.096100
@<TRIPOS>BOND
     1    1    2 1   
     2    1    3 2   
     3    1    5 1   
     4    1    9 1   
     5    2   29 1   
     6    4    5 1   
     7    4    6 1   
     8    4   30 1   
     9    4   31 1   
    10    6    7 1   
    11    6    8 1   
    12    6   32 1   
    13    7   12 1   
    14    8    9 1   
    15    8   10 1   
    16    8   33 1   
    17   10   11 1   
    18   10   12 1   
    19   10   34 1   
    20   11   35 1   
    21   12   21 1   
    22   12   36 1   
    23   13   14 ar  
    24   13   18 ar  
    25   14   15 ar  
    26   14   53 1   
    27   15   16 ar  
    28   16   17 ar  
    29   16   21 1   
    30   17   18 ar  
    31   17   19 1   
    32   18   22 1   
    33   19   20 2   
    34   20   21 1   
    35   20   37 1   
    36   22   23 1   
    37   22   26 1   
    38   22   52 1   
    39   23   24 1   
    40   23   38 1   
    41   23   39 1   
    42   24   25 1   
    43   24   40 1   
    44   24   41 1   
    45   25   42 1   
    46   25   43 1   
    47   25   44 1   
    48   26   27 1   
    49   26   45 1   
    50   26   46 1   
    51   27   28 1   
    52   27   47 1   
    53   27   48 1   
    54   28   49 1   
    55   28   50 1   
    56   28   51 1   
@<TRIPOS>SUBSTRUCTURE
     1 1OR         1 TEMP              0 ****  ****    0 ROOT
