@<TRIPOS>MOLECULE
1OS
   25    24     1     0     0
SMALL
bcc


@<TRIPOS>ATOM
      1 O1          3.5890    0.6390   -1.3050 o         1 1OS     -0.821500
      2 P           3.4870   -0.4150   -0.2720 p4        1 1OS      1.507300
      3 O2          3.0390   -1.7750   -0.6270 o         1 1OS     -0.821500
      4 O3          4.2290   -0.2220    0.9960 o         1 1OS     -0.870300
      5 C6          1.3280    0.4420    0.9210 ce        1 1OS     -0.104200
      6 N3          2.0820    1.6390    0.8680 nh        1 1OS     -0.493100
      7 C5         -0.0050    0.3610    0.5920 ca        1 1OS     -0.010900
      8 C7         -0.7730    1.4330    0.0080 ca        1 1OS     -0.247500
      9 C8         -2.1100    1.3110   -0.2430 ca        1 1OS     -0.043000
     10 C2         -2.8310    0.1200    0.0460 ca        1 1OS     -0.419900
     11 C1         -4.2630    0.0290   -0.1790 ce        1 1OS      0.660800
     12 N1         -4.9600   -1.0910    0.4550 nh        1 1OS     -0.935800
     13 N2         -4.9300    0.9080   -0.8890 n2        1 1OS     -0.895100
     14 C3         -2.0700   -0.9700    0.5490 ca        1 1OS     -0.043000
     15 C4         -0.7350   -0.8690    0.8080 ca        1 1OS     -0.247500
     16 H3          1.7820   -0.4040    1.4740 h4        1 1OS     -0.014200
     17 H4          2.9740    1.5060    1.3110 hn        1 1OS      0.209700
     18 H5          2.2310    1.9150   -0.0890 hn        1 1OS      0.209700
     19 H7         -0.2510    2.3700   -0.2270 ha        1 1OS      0.105000
     20 H8         -2.6560    2.1630   -0.6760 ha        1 1OS      0.077500
     21 H9         -4.5450   -1.2680    1.3510 hn        1 1OS      0.339300
     22 H10        -4.8310   -1.9110   -0.1080 hn        1 1OS      0.339300
     23 H11        -5.9130    0.7370   -0.9390 hn        1 1OS      0.335400
     24 H12        -2.5540   -1.9460    0.7210 ha        1 1OS      0.077500
     25 H13        -0.1680   -1.7370    1.1700 ha        1 1OS      0.105000
@<TRIPOS>BOND
     1    1    2 1   
     2    2    3 1   
     3    2    4 2   
     4    5    6 2   
     5    5    7 1   
     6    5   16 1   
     7    6   17 1   
     8    6   18 1   
     9    7    8 ar  
    10    7   15 ar  
    11    8    9 ar  
    12    8   19 1   
    13    9   10 ar  
    14    9   20 1   
    15   10   11 1   
    16   10   14 ar  
    17   11   12 1   
    18   11   13 2   
    19   12   21 1   
    20   12   22 1   
    21   13   23 1   
    22   14   15 ar  
    23   14   24 1   
    24   15   25 1   
@<TRIPOS>SUBSTRUCTURE
     1 1OS         1 TEMP              0 ****  ****    0 ROOT
