@<TRIPOS>MOLECULE
1OS
   27    26     1     0     0
SMALL
bcc


@<TRIPOS>ATOM
      1 O1          0.6400   -0.6460    0.1250 o         1 1OS     -1.148667
      2 P           0.3550   -2.0040   -0.3810 p3        1 1OS      2.478000
      3 O2          0.0250   -3.0610    0.6050 o         1 1OS     -1.148667
      4 O3          0.4110   -2.3200   -1.8040 o         1 1OS     -1.148667
      5 C6          2.3890    0.5310    2.9730 c2        1 1OS     -0.500000
      6 N3          1.8030    1.1590    1.8210 n4        1 1OS      0.048000
      7 C5          1.7300   -0.4740    3.6580 ca        1 1OS      0.153000
      8 C7          0.3290   -0.7240    3.4950 ca        1 1OS     -0.245000
      9 C8         -0.1830   -1.9690    3.7510 ca        1 1OS     -0.014500
     10 C2          0.6500   -2.9930    4.2540 ca        1 1OS     -0.345000
     11 C1          0.2700   -4.3880    4.1000 c2        1 1OS      0.120000
     12 N1         -0.1150   -4.6740    2.6750 n4        1 1OS     -0.055000
     13 N2          0.2550   -5.3800    4.9200 n2        1 1OS     -0.273000
     14 C3          1.9330   -2.6440    4.7330 ca        1 1OS     -0.014500
     15 C4          2.4550   -1.3990    4.4800 ca        1 1OS     -0.245000
     16 H3          3.4260    0.8160    3.1750 hx        1 1OS      0.156000
     17 H4          0.8880    0.7250    1.5920 hn        1 1OS      0.234000
     18 H5          2.4000    0.9950    1.0050 hn        1 1OS      0.234000
     19 H7         -0.3350    0.0730    3.1360 ha        1 1OS      0.125500
     20 H8         -1.2470   -2.1750    3.5560 ha        1 1OS      0.113000
     21 H9         -0.4670   -5.6170    2.5280 hn        1 1OS      0.268000
     22 H10        -0.8090   -3.9740    2.3550 hn        1 1OS      0.268000
     23 H11         0.4940   -5.1540    5.8620 hn        1 1OS      0.199000
     24 H12         2.5270   -3.3940    5.2770 ha        1 1OS      0.113000
     25 H13         3.4540   -1.1190    4.8390 ha        1 1OS      0.125500
     26 H33         1.6870    2.1610    1.9610 hn        1 1OS      0.234000
     27 H131        0.7050   -4.5010    2.0680 hn        1 1OS      0.268000
@<TRIPOS>BOND
     1    1    2 1   
     2    2    3 1   
     3    2    4 1   
     4    5    6 1   
     5    5    7 1   
     6    5   16 1   
     7    6   17 1   
     8    6   18 1   
     9    6   26 1   
    10    7    8 1   
    11    7   15 1   
    12    8    9 1   
    13    8   19 1   
    14    9   10 1   
    15    9   20 1   
    16   10   11 1   
    17   10   14 1   
    18   11   12 1   
    19   11   13 1   
    20   12   21 1   
    21   12   22 1   
    22   12   27 1   
    23   13   23 1   
    24   14   15 1   
    25   14   24 1   
    26   15   25 1   
@<TRIPOS>SUBSTRUCTURE
     1 1OS         1 TEMP              0 ****  ****    0 ROOT
