@<TRIPOS>MOLECULE
1OS
   27    26     1     0     0
SMALL
bcc


@<TRIPOS>ATOM
      1 O1          0.6170   -0.5440    0.1780 o         1 1OS     -1.148667
      2 P           0.3560   -1.8860   -0.3820 p3        1 1OS      2.478000
      3 O2          0.0470   -2.9870    0.5600 o         1 1OS     -1.148667
      4 O3          0.4170   -2.1430   -1.8160 o         1 1OS     -1.148667
      5 C6          2.3440    0.5500    3.0730 c2        1 1OS     -0.500000
      6 N3          1.7470    1.2130    1.9470 nz        1 1OS      0.048000
      7 C5          1.7030   -0.4930    3.7170 ca        1 1OS      0.153000
      8 C7          0.3070   -0.7630    3.5420 ca        1 1OS     -0.245000
      9 C8         -0.1820   -2.0260    3.7470 ca        1 1OS     -0.014000
     10 C2          0.6690   -3.0530    4.2100 ca        1 1OS     -0.345000
     11 C1          0.3150   -4.4480    4.0000 c2        1 1OS      0.120000
     12 N1         -0.0640   -4.6840    2.5640 nz        1 1OS     -0.055000
     13 N2          0.3180   -5.4720    4.7800 n2        1 1OS     -0.273000
     14 C3          1.9460   -2.7010    4.7040 ca        1 1OS     -0.014000
     15 C4          2.4450   -1.4380    4.5020 ca        1 1OS     -0.245000
     16 H3          3.3760    0.8460    3.2870 hx        1 1OS      0.156000
     17 H4          0.8400    0.7710    1.7000 hn        1 1OS      0.234000
     18 H5          2.3470    1.0920    1.1250 hn        1 1OS      0.234000
     19 H7         -0.3710    0.0360    3.2140 ha        1 1OS      0.125500
     20 H8         -1.2420   -2.2440    3.5430 ha        1 1OS      0.113000
     21 H9          0.7520   -4.4710    1.9660 hn        1 1OS      0.268000
     22 H10        -0.3990   -5.6270    2.3790 hn        1 1OS      0.268000
     23 H11         0.5520   -5.2800    5.7300 hn        1 1OS      0.199000
     24 H12         2.5530   -3.4610    5.2180 ha        1 1OS      0.113000
     25 H13         3.4380   -1.1540    4.8730 ha        1 1OS      0.125500
     26 H33         1.6120    2.2050    2.1270 hn        1 1OS      0.234000
     27 H131       -0.7710   -3.9850    2.2720 hn        1 1OS      0.268000
@<TRIPOS>BOND
     1    1    2 1   
     2    2    3 1   
     3    2    4 1   
     4    5    6 1   
     5    5    7 1   
     6    5   16 1   
     7    6   17 1   
     8    6   18 1   
     9    6   26 1   
    10    7    8 1   
    11    7   15 1   
    12    8    9 1   
    13    8   19 1   
    14    9   10 1   
    15    9   20 1   
    16   10   11 1   
    17   10   14 1   
    18   11   12 1   
    19   11   13 1   
    20   12   21 1   
    21   12   22 1   
    22   12   27 1   
    23   13   23 1   
    24   14   15 1   
    25   14   24 1   
    26   15   25 1   
@<TRIPOS>SUBSTRUCTURE
     1 1OS         1 TEMP              0 ****  ****    0 ROOT
