@<TRIPOS>MOLECULE
1OS
   25    21     1     0     0
SMALL
bcc


@<TRIPOS>ATOM
      1 O1          0.9030   -3.0100   -3.6510 o         1 1OS     -1.120000
      2 P           0.6970   -1.6920   -2.9440 p3        1 1OS      2.361000
      3 O2          1.6010   -0.6470   -3.5530 os        1 1OS     -1.120000
      4 O3         -0.7420   -1.2610   -3.0930 o         1 1OS     -1.120000
      5 C6          1.0920   -1.8820   -1.1830 c3        1 1OS     -0.380000
      6 N3          2.4970   -1.7630   -0.9980 n3        1 1OS     -0.258000
      7 C5          0.3870   -0.8070   -0.3900 c2        1 1OS      0.065000
      8 C7          0.8640    0.4950   -0.4100 c1        1 1OS     -0.292000
      9 C8          0.2350    1.4750    0.3420 c1        1 1OS     -0.030000
     10 C2         -0.8710    1.1540    1.1140 c1        1 1OS     -0.340000
     11 C1         -1.5710    2.2280    1.9160 c2        1 1OS      0.163000
     12 N1         -1.1000    2.5670    3.2110 n3        1 1OS     -0.337000
     13 N2         -2.6100    2.8440    1.4170 n1        1 1OS     -0.395000
     14 C3         -1.3480   -0.1480    1.1340 c1        1 1OS     -0.035000
     15 C4         -0.7190   -1.1280    0.3820 c2        1 1OS     -0.264000
     16 H3          0.7960   -2.7610   -0.8760 h1        1 1OS      0.109000
     17 H4          2.7150   -2.0190   -0.1450 hn        1 1OS      0.094000
     18 H5          2.9310   -2.3020   -1.5980 hn        1 1OS      0.094000
     19 H7          1.6430    0.7210   -0.9530 ha        1 1OS      0.087000
     20 H8          0.5830    2.3870    0.3430 ha        1 1OS      0.071000
     21 H9         -0.4060    2.1010    3.5820 hn        1 1OS      0.167000
     22 H10        -1.4970    3.2450    3.6790 hn        1 1OS      0.167000
     23 H11        -2.9130    2.6260    0.5830 DU        1 1OS      0.130000
     24 H12        -2.1260   -0.3740    1.6770 ha        1 1OS      0.088000
     25 H13        -1.0420   -2.0480    0.4120 ha        1 1OS      0.096000
@<TRIPOS>BOND
     1    1    2 1   
     2    2    4 1   
     3    2    5 1   
     4    5    6 1   
     5    5    7 1   
     6    5   16 1   
     7    6   17 1   
     8    6   18 1   
     9    7    8 1   
    10    7   15 1   
    11    8   19 1   
    12    9   10 1   
    13    9   20 1   
    14   10   11 1   
    15   11   12 1   
    16   11   13 1   
    17   12   21 1   
    18   12   22 1   
    19   14   15 1   
    20   14   24 1   
    21   15   25 1   
@<TRIPOS>SUBSTRUCTURE
     1 1OS         1 TEMP              0 ****  ****    0 ROOT
