@<TRIPOS>MOLECULE
1OS
   27    26     1     0     0
SMALL
bcc


@<TRIPOS>ATOM
      1 O1          0.6830   -0.6310    0.1270 o         1 1OS     -1.148667
      2 P           0.3690   -1.9810   -0.3840 p3        1 1OS      2.478000
      3 O2          0.0080   -3.0310    0.5980 o         1 1OS     -1.148667
      4 O3          0.4260   -2.2950   -1.8060 o         1 1OS     -1.148667
      5 C6          2.4480    0.4950    2.9860 c2        1 1OS     -0.500000
      6 N3          1.8820    1.1410    1.8340 n4        1 1OS      0.048000
      7 C5          1.7620   -0.4950    3.6660 ca        1 1OS      0.153000
      8 C7          0.3550   -0.7110    3.4960 ca        1 1OS     -0.245000
      9 C8         -0.1880   -1.9440    3.7470 ca        1 1OS     -0.014500
     10 C2          0.6180   -2.9890    4.2490 ca        1 1OS     -0.345000
     11 C1          0.2040   -4.3740    4.0900 c2        1 1OS      0.120000
     12 N1         -0.1820   -4.6460    2.6620 n4        1 1OS     -0.055000
     13 N2          0.1620   -5.3670    4.9070 n2        1 1OS     -0.273000
     14 C3          1.9070   -2.6730    4.7340 ca        1 1OS     -0.014500
     15 C4          2.4610   -1.4410    4.4870 ca        1 1OS     -0.245000
     16 H3          3.4910    0.7540    3.1920 hx        1 1OS      0.156000
     17 H4          2.4780    0.9650    1.0200 hn        1 1OS      0.234000
     18 H5          0.9580    0.7290    1.6000 hn        1 1OS      0.234000
     19 H7         -0.2870    0.1030    3.1370 ha        1 1OS      0.125500
     20 H8         -1.2560   -2.1230    3.5480 ha        1 1OS      0.113000
     21 H9         -0.8560   -3.9290    2.3420 hn        1 1OS      0.267667
     22 H10         0.6450   -4.4930    2.0600 hn        1 1OS      0.267667
     23 H11         0.4020   -5.1500    5.8510 hn        1 1OS      0.199000
     24 H12         2.4810   -3.4390    5.2790 ha        1 1OS      0.113000
     25 H13         3.4650   -1.1870    4.8510 ha        1 1OS      0.125500
     26 H33         1.7890    2.1440    1.9770 hn        1 1OS      0.234000
     27 H131       -0.5570   -5.5800    2.5120 hn        1 1OS      0.267667
@<TRIPOS>BOND
     1    1    2 1   
     2    2    3 1   
     3    2    4 1   
     4    5    6 1   
     5    5    7 1   
     6    5   16 1   
     7    6   17 1   
     8    6   18 1   
     9    6   26 1   
    10    7    8 1   
    11    7   15 1   
    12    8    9 1   
    13    8   19 1   
    14    9   10 1   
    15    9   20 1   
    16   10   11 1   
    17   10   14 1   
    18   11   12 1   
    19   11   13 1   
    20   12   21 1   
    21   12   22 1   
    22   12   27 1   
    23   13   23 1   
    24   14   15 1   
    25   14   24 1   
    26   15   25 1   
@<TRIPOS>SUBSTRUCTURE
     1 1OS         1 TEMP              0 ****  ****    0 ROOT
