@<TRIPOS>MOLECULE
1OT
   27    23     1     0     0
SMALL
bcc


@<TRIPOS>ATOM
      1 O1          3.6140   -0.6630   -0.1060 o         1 1OT     -0.800500
      2 P           3.3460   -1.7970   -1.0870 p5        1 1OT      1.402500
      3 O2          4.5060   -1.8840   -2.1110 o         1 1OT     -0.800500
      4 O3          3.2490   -3.0670   -0.3470 o         1 1OT     -0.800500
      5 C1          1.7450   -1.4720   -1.9810 c3        1 1OT     -0.372000
      6 N1          1.1410   -2.6760   -2.3280 n3        1 1OT     -0.259000
      7 C2          0.8140   -0.6890   -1.0740 c2        1 1OT      0.058000
      8 C10         0.1750   -1.3240   -0.0230 c1        1 1OT     -0.288000
      9 C9         -0.7150   -0.6080    0.7890 c1        1 1OT     -0.023000
     10 C5         -0.9510    0.7290    0.5380 c1        1 1OT     -0.216000
     11 C4         -0.3040    1.3660   -0.5250 c1        1 1OT     -0.057000
     12 C3          0.5720    0.6600   -1.3240 c2        1 1OT     -0.254000
     13 N2         -1.8500    1.4560    1.3560 n3        1 1OT      0.036000
     14 N3         -3.1760    1.6270    1.1230 n2        1 1OT     -0.107000
     15 C8         -3.6940    2.3720    2.1400 c1        1 1OT     -0.221000
     16 C7         -2.7130    2.6570    2.9850 c1        1 1OT     -0.274000
     17 C6         -1.5470    2.0800    2.4930 c1        1 1OT     -0.164000
     18 H3          1.9280   -0.9460   -2.8010 h1        1 1OT      0.110000
     19 H4          0.4940   -2.5250   -2.9510 hn        1 1OT      0.096000
     20 H5          1.7640   -3.2460   -2.6670 hn        1 1OT      0.096000
     21 H7          0.3560   -2.3250    0.1600 ha        1 1OT      0.092000
     22 H8         -1.1540   -1.0380    1.5070 ha        1 1OT      0.106000
     23 H9         -0.5420    2.2450   -0.7610 ha        1 1OT      0.090000
     24 H10         0.9950    1.0840   -2.0190 ha        1 1OT      0.099000
     25 H11        -4.5840    2.6330    2.2250 DU        1 1OT      0.150333
     26 H12        -2.8020    3.2280    3.8820 DU        1 1OT      0.150333
     27 H13        -0.6690    2.1230    2.9050 DU        1 1OT      0.150333
@<TRIPOS>BOND
     1    1    2 1   
     2    2    3 1   
     3    2    4 1   
     4    2    5 1   
     5    5    6 1   
     6    5    7 1   
     7    5   18 1   
     8    6   19 1   
     9    6   20 1   
    10    7    8 1   
    11    7   12 1   
    12    8   21 1   
    13    9   10 1   
    14    9   22 1   
    15   10   13 1   
    16   11   12 1   
    17   11   23 1   
    18   12   24 1   
    19   13   14 1   
    20   13   17 1   
    21   14   15 1   
    22   15   16 1   
    23   16   17 1   
@<TRIPOS>SUBSTRUCTURE
     1 1OT         1 TEMP              0 ****  ****    0 ROOT
