@<TRIPOS>MOLECULE
1OT
   28    28     1     0     0
SMALL
bcc


@<TRIPOS>ATOM
      1 O1          0.2750   -0.2760   -0.6780 o         1 1OT     -0.819167
      2 P           1.7100   -0.5060   -0.4800 p4        1 1OT      1.544300
      3 O2          2.2310   -1.8330   -0.0480 o         1 1OT     -0.819167
      4 O3          2.7620    0.4170   -0.9800 o         1 1OT     -0.867967
      5 C1          2.2200    0.1420    1.8820 c2        1 1OT     -0.563000
      6 N1          3.5720   -0.1380    1.4840 nz        1 1OT     -0.697400
      7 C2          1.8760    1.3610    2.5090 cc        1 1OT      0.130000
      8 C10         0.5680    1.5170    3.0400 cc        1 1OT     -0.217000
      9 C9          0.1780    2.6800    3.6730 cd        1 1OT     -0.159600
     10 C5          1.0860    3.7550    3.8060 cd        1 1OT      0.149900
     11 C4          2.3830    3.6240    3.2780 cd        1 1OT     -0.159600
     12 C3          2.7650    2.4540    2.6390 cc        1 1OT     -0.217000
     13 N2          0.7000    4.9680    4.4540 na        1 1OT      0.108400
     14 N3         -0.0610    5.0350    5.5550 nc        1 1OT     -0.514800
     15 C8         -0.1970    6.3570    5.8570 cd        1 1OT      0.265200
     16 C7          0.5130    7.1660    4.9010 cd        1 1OT     -0.325300
     17 C6          1.0790    6.2410    4.0080 cc        1 1OT     -0.153300
     18 H3          1.5980   -0.7510    2.0460 hx        1 1OT      0.172000
     19 H4          4.2390   -0.0040    2.2390 hn        1 1OT      0.434800
     20 H5          3.5960   -1.1190    1.1320 hn        1 1OT      0.434800
     21 H7         -0.1500    0.6920    2.9190 ha        1 1OT      0.122000
     22 H8         -0.8440    2.7670    4.0740 ha        1 1OT      0.122500
     23 H9          3.1040    4.4500    3.3640 ha        1 1OT      0.122500
     24 H10         3.7730    2.4050    2.2080 ha        1 1OT      0.122000
     25 H11        -0.7780    6.6900    6.7140 h4        1 1OT      0.026100
     26 H12         0.5880    8.2450    4.8790 ha        1 1OT      0.149000
     27 H13         1.6880    6.3780    3.1160 h4        1 1OT      0.174000
     28 H131        3.8080    0.4870    0.6830 hn        1 1OT      0.434800
@<TRIPOS>BOND
     1    1    2 1   
     2    2    3 1   
     3    2    4 2   
     4    5    6 1   
     5    5    7 2   
     6    5   18 1   
     7    6   19 1   
     8    6   20 1   
     9    6   28 1   
    10    7    8 1   
    11    7   12 1   
    12    8    9 2   
    13    8   21 1   
    14    9   10 1   
    15    9   22 1   
    16   10   11 1   
    17   10   13 2   
    18   11   12 2   
    19   11   23 1   
    20   12   24 1   
    21   13   14 1   
    22   13   17 1   
    23   14   15 2   
    24   15   16 1   
    25   15   25 1   
    26   16   17 2   
    27   16   26 1   
    28   17   27 1   
@<TRIPOS>SUBSTRUCTURE
     1 1OT         1 TEMP              0 ****  ****    0 ROOT
