@<TRIPOS>MOLECULE
1OT
   28    28     1     0     0
SMALL
bcc


@<TRIPOS>ATOM
      1 O1          0.1930   -0.3980   -0.5400 o         1 1OT     -0.819167
      2 P           1.6450   -0.5680   -0.4220 p4        1 1OT      1.544300
      3 O2          2.2420   -1.8640    0.0040 o         1 1OT     -0.819167
      4 O3          2.6290    0.3840   -1.0000 o         1 1OT     -0.867967
      5 C1          2.2650    0.1500    1.8940 c2        1 1OT     -0.563000
      6 N1          3.6010   -0.0860    1.4220 n4        1 1OT     -0.697400
      7 C2          1.9090    1.3680    2.5170 cc        1 1OT      0.130000
      8 C10         0.6280    1.4840    3.1200 cc        1 1OT     -0.217000
      9 C9          0.2290    2.6440    3.7520 cd        1 1OT     -0.159600
     10 C5          1.1000    3.7560    3.8120 cd        1 1OT      0.149900
     11 C4          2.3690    3.6640    3.2110 cd        1 1OT     -0.159600
     12 C3          2.7590    2.4970    2.5730 cc        1 1OT     -0.217000
     13 N2          0.7040    4.9670    4.4580 na        1 1OT      0.108400
     14 N3          0.0060    5.0280    5.6000 nc        1 1OT     -0.514800
     15 C8         -0.1650    6.3500    5.8840 cd        1 1OT      0.265200
     16 C7          0.4560    7.1650    4.8720 cd        1 1OT     -0.325300
     17 C6          1.0050    6.2440    3.9650 cc        1 1OT     -0.153300
     18 H3          1.6890   -0.7630    2.1110 hx        1 1OT      0.172000
     19 H4          4.3050    0.0890    2.1350 hn        1 1OT      0.434800
     20 H5          3.6440   -1.0730    1.0890 hn        1 1OT      0.434800
     21 H7         -0.0620    0.6300    3.0570 ha        1 1OT      0.122000
     22 H8         -0.7700    2.7000    4.2100 ha        1 1OT      0.122500
     23 H9          3.0600    4.5200    3.2390 ha        1 1OT      0.122500
     24 H10         3.7420    2.4770    2.0840 ha        1 1OT      0.122000
     25 H11        -0.7080    6.6780    6.7680 h4        1 1OT      0.026100
     26 H12         0.4850    8.2450    4.8250 ha        1 1OT      0.149000
     27 H13         1.5550    6.3850    3.0370 h4        1 1OT      0.174000
     28 H131        3.7650    0.5300    0.5970 hn        1 1OT      0.434800
@<TRIPOS>BOND
     1    1    2 1   
     2    2    3 1   
     3    2    4 2   
     4    5    6 1   
     5    5    7 2   
     6    5   18 1   
     7    6   19 1   
     8    6   20 1   
     9    6   28 1   
    10    7    8 1   
    11    7   12 1   
    12    8    9 2   
    13    8   21 1   
    14    9   10 1   
    15    9   22 1   
    16   10   11 1   
    17   10   13 2   
    18   11   12 2   
    19   11   23 1   
    20   12   24 1   
    21   13   14 1   
    22   13   17 1   
    23   14   15 2   
    24   15   16 1   
    25   15   25 1   
    26   16   17 2   
    27   16   26 1   
    28   17   27 1   
@<TRIPOS>SUBSTRUCTURE
     1 1OT         1 TEMP              0 ****  ****    0 ROOT
