@<TRIPOS>MOLECULE
1OT
   27    27     1     0     0
SMALL
bcc


@<TRIPOS>ATOM
      1 O1         -3.6150    1.7420   -0.7130 o         1 1OT     -0.821500
      2 P          -4.0680    0.3730   -0.4040 p4        1 1OT      1.506300
      3 O2         -4.9090    0.1570    0.7970 o         1 1OT     -0.821500
      4 O3         -4.0660   -0.6740   -1.4490 o         1 1OT     -0.870300
      5 C1         -2.0040   -0.4700    0.9520 ce        1 1OT     -0.106200
      6 N1         -2.7410   -1.6730    0.8360 nh        1 1OT     -0.494100
      7 C2         -0.6520   -0.3760    0.7110 ca        1 1OT     -0.014900
      8 C10         0.0660    0.8400    1.0130 ca        1 1OT     -0.237000
      9 C9          1.4110    0.9650    0.8090 ca        1 1OT     -0.054500
     10 C5          2.1730   -0.1080    0.2680 ca        1 1OT     -0.300200
     11 C4          1.4870   -1.3110   -0.0600 ca        1 1OT     -0.054500
     12 C3          0.1420   -1.4380    0.1430 ca        1 1OT     -0.237000
     13 N2          3.5710    0.0030    0.0520 na        1 1OT      0.317300
     14 N3          4.3960    0.7970    0.7420 nc        1 1OT     -0.560800
     15 C8          5.6570    0.6100    0.2270 cd        1 1OT      0.228200
     16 C7          5.6240   -0.3510   -0.8280 cd        1 1OT     -0.352300
     17 C6          4.2610   -0.7210   -0.9240 cc        1 1OT     -0.215300
     18 H3         -2.4990    0.3630    1.4880 h4        1 1OT     -0.011200
     19 H4         -3.6640   -1.5500    1.2160 hn        1 1OT      0.210200
     20 H5         -2.8200   -1.9420   -0.1310 hn        1 1OT      0.210200
     21 H7         -0.5130    1.6870    1.4060 ha        1 1OT      0.109500
     22 H8          1.9130    1.9110    1.0620 ha        1 1OT      0.087000
     23 H9          2.0510   -2.1610   -0.4750 ha        1 1OT      0.087000
     24 H10        -0.3620   -2.3760   -0.1220 ha        1 1OT      0.109500
     25 H11         6.5100    1.1550    0.6200 h4        1 1OT      0.000100
     26 H12         6.4480   -0.7150   -1.4230 ha        1 1OT      0.124000
     27 H13         3.7570   -1.4070   -1.5980 h4        1 1OT      0.163000
@<TRIPOS>BOND
     1    1    2 1   
     2    2    3 1   
     3    2    4 2   
     4    5    6 2   
     5    5    7 1   
     6    5   18 1   
     7    6   19 1   
     8    6   20 1   
     9    7    8 ar  
    10    7   12 ar  
    11    8    9 ar  
    12    8   21 1   
    13    9   10 ar  
    14    9   22 1   
    15   10   11 ar  
    16   10   13 1   
    17   11   12 ar  
    18   11   23 1   
    19   12   24 1   
    20   13   14 1   
    21   13   17 1   
    22   14   15 2   
    23   15   16 1   
    24   15   25 1   
    25   16   17 2   
    26   16   26 1   
    27   17   27 1   
@<TRIPOS>SUBSTRUCTURE
     1 1OT         1 TEMP              0 ****  ****    0 ROOT
