@<TRIPOS>MOLECULE
1OU
   29    28     1     0     0
SMALL
bcc


@<TRIPOS>ATOM
      1 O1          0.0890    1.0050    0.0480 o         1 1OU     -0.798167
      2 P           1.3920    0.5860   -0.5230 p4        1 1OU      1.507300
      3 O2          1.5770   -0.6350   -1.3080 o         1 1OU     -0.798167
      4 O3          2.4940    1.5590   -0.3070 o         1 1OU     -0.846967
      5 C6          2.1070   -0.0900    1.9060 c2        1 1OU     -0.450000
      6 N4          1.6440    1.2460    2.1680 nz        1 1OU     -0.718400
      7 C5          1.5960   -1.2130    2.5390 cc        1 1OU      0.142000
      8 C7          2.1330   -2.5000    2.2000 cc        1 1OU     -0.225000
      9 C8          1.6380   -3.6470    2.7560 cd        1 1OU     -0.131600
     10 C2          0.5740   -3.5990    3.7000 cd        1 1OU     -0.049100
     11 C3          0.0450   -2.3370    4.0590 cd        1 1OU     -0.131600
     12 C4          0.5400   -1.1830    3.5000 cc        1 1OU     -0.225000
     13 N3         -0.0160   -4.7830    4.2120 nu        1 1OU     -0.307200
     14 C1          0.5150   -5.1650    5.4950 c2        1 1OU      0.537700
     15 N1          1.2960   -4.5840    6.3410 n2        1 1OU     -0.812100
     16 N2         -0.1660   -6.4160    6.0650 nz        1 1OU     -0.831600
     17 H3          3.0140   -0.1440    1.2810 hx        1 1OU      0.192000
     18 H4          0.6440    1.3190    1.8690 hn        1 1OU      0.452467
     19 H5          2.1950    1.8940    1.5580 hn        1 1OU      0.452467
     20 H7          2.9300   -2.5450    1.4420 ha        1 1OU      0.133000
     21 H8          2.0550   -4.6200    2.4530 ha        1 1OU      0.110500
     22 H9         -0.7850   -2.2760    4.7810 ha        1 1OU      0.110500
     23 H10         0.0810   -0.2230    3.7720 ha        1 1OU      0.133000
     24 H11         0.0480   -5.5340    3.5460 hn        1 1OU      0.239700
     25 H12         1.7690   -3.7590    6.0340 hn        1 1OU      0.487400
     26 H13        -1.1790   -6.2760    6.0460 hn        1 1OU      0.457800
     27 H14         0.1380   -6.5840    7.0290 hn        1 1OU      0.457800
     28 H43         1.7410    1.4950    3.1470 hn        1 1OU      0.452467
     29 H23         0.0810   -7.2190    5.4850 hn        1 1OU      0.457800
@<TRIPOS>BOND
     1    1    2 1   
     2    2    3 1   
     3    2    4 2   
     4    5    6 1   
     5    5    7 2   
     6    5   17 1   
     7    6   18 1   
     8    6   19 1   
     9    6   28 1   
    10    7    8 1   
    11    7   12 1   
    12    8    9 2   
    13    8   20 1   
    14    9   10 1   
    15    9   21 1   
    16   10   11 1   
    17   10   13 2   
    18   11   12 2   
    19   11   22 1   
    20   12   23 1   
    21   13   14 1   
    22   13   24 1   
    23   14   15 2   
    24   14   16 1   
    25   15   25 1   
    26   16   26 1   
    27   16   27 1   
    28   16   29 1   
@<TRIPOS>SUBSTRUCTURE
     1 1OU         1 TEMP              0 ****  ****    0 ROOT
