@<TRIPOS>MOLECULE
1OU
   27    26     1     0     0
SMALL
bcc


@<TRIPOS>ATOM
      1 O1          4.9800    1.3360   -0.3020 o         1 1OU     -0.837500
      2 P           4.7720    0.4640    0.8760 p4        1 1OU      1.540300
      3 O2          5.2900   -0.9200    0.8630 o         1 1OU     -0.837500
      4 O3          4.4110    1.0990    2.1640 o         1 1OU     -0.886300
      5 C6          1.3500   -0.5520   -0.0170 ce        1 1OU     -0.032200
      6 N4          2.3800    0.3590    0.3120 nh        1 1OU     -0.491100
      7 C5          0.0280   -0.2710   -0.2350 ca        1 1OU     -0.050900
      8 C7         -0.9080   -1.3240   -0.5550 ca        1 1OU     -0.270500
      9 C8         -2.2390   -1.0810   -0.7530 ca        1 1OU     -0.054000
     10 C2         -2.7750    0.2300   -0.6530 ca        1 1OU     -0.245400
     11 C3         -1.8690    1.2850   -0.3620 ca        1 1OU     -0.054000
     12 C4         -0.5360    1.0560   -0.1650 ca        1 1OU     -0.270500
     13 N3         -4.1630    0.4550   -0.8730 nh        1 1OU     -0.621600
     14 C1         -4.9790    0.5250    0.3060 c2        1 1OU      0.735100
     15 N1         -6.0400    1.3060    0.3300 n2        1 1OU     -0.931100
     16 N2         -4.6690   -0.4060    1.3750 nh        1 1OU     -0.913800
     17 H3          1.7150   -1.5880   -0.0880 h4        1 1OU     -0.012200
     18 H4          2.5240    1.0230   -0.4310 hn        1 1OU      0.196200
     19 H5          2.1540    0.8760    1.1460 hn        1 1OU      0.196200
     20 H7         -0.5130   -2.3450   -0.6390 ha        1 1OU      0.096000
     21 H8         -2.9150   -1.9150   -0.9980 ha        1 1OU      0.077500
     22 H9         -2.2560    2.3160   -0.2980 ha        1 1OU      0.077500
     23 H10         0.1390    1.8950    0.0500 ha        1 1OU      0.096000
     24 H11        -4.3180    1.2410   -1.4760 hn        1 1OU      0.382800
     25 H12        -6.6130    1.1930    1.1380 hn        1 1OU      0.357400
     26 H13        -3.9020   -1.0110    1.1370 hn        1 1OU      0.376300
     27 H14        -4.4370    0.1010    2.2070 hn        1 1OU      0.376300
@<TRIPOS>BOND
     1    1    2 1   
     2    2    3 1   
     3    2    4 2   
     4    5    6 2   
     5    5    7 1   
     6    5   17 1   
     7    6   18 1   
     8    6   19 1   
     9    7    8 ar  
    10    7   12 ar  
    11    8    9 ar  
    12    8   20 1   
    13    9   10 ar  
    14    9   21 1   
    15   10   11 ar  
    16   10   13 1   
    17   11   12 ar  
    18   11   22 1   
    19   12   23 1   
    20   13   14 1   
    21   13   24 1   
    22   14   15 2   
    23   14   16 1   
    24   15   25 1   
    25   16   26 1   
    26   16   27 1   
@<TRIPOS>SUBSTRUCTURE
     1 1OU         1 TEMP              0 ****  ****    0 ROOT
