@<TRIPOS>MOLECULE
1OU
   29    28     1     0     0
SMALL
bcc


@<TRIPOS>ATOM
      1 O1          0.2140    0.8710   -0.1430 o         1 1OU     -0.797833
      2 P           1.5750    0.4640   -0.5700 p4        1 1OU      1.507300
      3 O2          1.8630   -0.7880   -1.2690 o         1 1OU     -0.797833
      4 O3          2.6260    1.4800   -0.3040 o         1 1OU     -0.846633
      5 C6          2.0720   -0.0590    1.9530 c2        1 1OU     -0.448000
      6 N4          1.5560    1.2760    2.0930 n4        1 1OU     -0.719400
      7 C5          1.5280   -1.1590    2.5980 cc        1 1OU      0.141000
      8 C7          2.1320   -2.4450    2.4040 cc        1 1OU     -0.223000
      9 C8          1.6160   -3.5740    2.9790 cd        1 1OU     -0.134100
     10 C2          0.4590   -3.5030    3.8040 cd        1 1OU     -0.042100
     11 C3         -0.1390   -2.2380    4.0220 cd        1 1OU     -0.134100
     12 C4          0.3730   -1.1050    3.4380 cc        1 1OU     -0.223000
     13 N3         -0.1120   -4.6970    4.3120 nh        1 1OU     -0.304200
     14 C1          0.6120   -5.2340    5.4360 c2        1 1OU      0.533700
     15 N1          1.7390   -4.9370    5.9890 n2        1 1OU     -0.813100
     16 N2          0.0420   -6.5740    5.9140 n4        1 1OU     -0.829600
     17 H3          3.0360   -0.1210    1.4210 hx        1 1OU      0.192000
     18 H4          1.5530    1.5820    3.0600 hn        1 1OU      0.452467
     19 H5          2.1470    1.9050    1.5000 hn        1 1OU      0.452467
     20 H7          3.0060   -2.5100    1.7380 ha        1 1OU      0.133500
     21 H8          2.0880   -4.5500    2.7850 ha        1 1OU      0.110500
     22 H9         -1.0400   -2.1590    4.6510 ha        1 1OU      0.110500
     23 H10        -0.1420   -0.1480    3.5940 ha        1 1OU      0.133500
     24 H11        -1.0880   -4.5740    4.5210 hn        1 1OU      0.236700
     25 H12         2.1760   -4.0820    5.7070 hn        1 1OU      0.487400
     26 H13        -0.0220   -7.2070    5.1120 hn        1 1OU      0.457467
     27 H14         0.6500   -6.9900    6.6280 hn        1 1OU      0.457467
     28 H43         0.5870    1.3040    1.6960 hn        1 1OU      0.452467
     29 H23        -0.8870   -6.4200    6.3050 hn        1 1OU      0.457467
@<TRIPOS>BOND
     1    1    2 1   
     2    2    3 1   
     3    2    4 2   
     4    5    6 1   
     5    5    7 2   
     6    5   17 1   
     7    6   18 1   
     8    6   19 1   
     9    6   28 1   
    10    7    8 1   
    11    7   12 1   
    12    8    9 2   
    13    8   20 1   
    14    9   10 1   
    15    9   21 1   
    16   10   11 1   
    17   10   13 2   
    18   11   12 2   
    19   11   22 1   
    20   12   23 1   
    21   13   14 1   
    22   13   24 1   
    23   14   15 2   
    24   14   16 1   
    25   15   25 1   
    26   16   26 1   
    27   16   27 1   
    28   16   29 1   
@<TRIPOS>SUBSTRUCTURE
     1 1OU         1 TEMP              0 ****  ****    0 ROOT
