@<TRIPOS>MOLECULE
1OU
   27    26     1     0     0
SMALL
bcc


@<TRIPOS>ATOM
      1 O1        134.3170  467.5360-1145.7920 o         1 1OU     -0.800500
      2 P         135.3260  466.4910-1146.0450 p4        1 1OU      1.451300
      3 O2        136.2870  466.1230-1144.9910 o         1 1OU     -0.800500
      4 O3        135.3720  465.8140-1147.3540 o         1 1OU     -0.849300
      5 C6        -21.5220  -80.6810  201.6380 ce        1 1OU     -0.124200
      6 N4        -21.4320  -80.3560  200.2670 nh        1 1OU     -0.410100
      7 C5        -21.6730  -81.9340  202.1840 ca        1 1OU     -0.017900
      8 C7        -21.7500  -82.1140  203.6100 ca        1 1OU     -0.277000
      9 C8        -21.8890  -83.3510  204.1810 ca        1 1OU     -0.049000
     10 C2        -21.9670  -84.5240  203.3870 ca        1 1OU     -0.190400
     11 C3        -21.9100  -84.3680  201.9810 ca        1 1OU     -0.049000
     12 C4        -21.7620  -83.1350  201.3990 ca        1 1OU     -0.277000
     13 N3        -22.0410  -85.8030  204.0080 nh        1 1OU     -0.652600
     14 C1        -23.3690  -86.2490  204.3700 c2        1 1OU      0.706100
     15 N1        -24.4180  -85.4920  204.5740 n2        1 1OU     -0.905100
     16 N2        -23.4910  -87.6750  204.5890 nh        1 1OU     -0.884800
     17 H3        -21.4590  -79.7970  202.2880 h4        1 1OU     -0.021200
     18 H4        -20.6670  -80.8670  199.8530 hn        1 1OU      0.141700
     19 H5        -22.2610  -80.6800  199.7930 hn        1 1OU      0.141700
     20 H7        -21.6950  -81.2170  204.2420 ha        1 1OU      0.091500
     21 H8        -21.9410  -83.4430  205.2780 ha        1 1OU      0.085500
     22 H9        -21.9760  -85.2620  201.3390 ha        1 1OU      0.085500
     23 H10       -21.7120  -83.0550  200.3060 ha        1 1OU      0.091500
     24 H11       -21.5600  -86.4870  203.4540 hn        1 1OU      0.370800
     25 H12       -24.2980  -84.5360  204.3100 hn        1 1OU      0.413400
     26 H13       -22.7380  -88.0200  205.1480 hn        1 1OU      0.365300
     27 H14       -24.3670  -87.9080  205.0130 hn        1 1OU      0.365300
@<TRIPOS>BOND
     1    1    2 1   
     2    2    3 1   
     3    2    4 2   
     4    5    6 2   
     5    5    7 1   
     6    5   17 1   
     7    6   18 1   
     8    6   19 1   
     9    7    8 ar  
    10    7   12 ar  
    11    8    9 ar  
    12    8   20 1   
    13    9   10 ar  
    14    9   21 1   
    15   10   11 ar  
    16   10   13 1   
    17   11   12 ar  
    18   11   22 1   
    19   12   23 1   
    20   13   14 1   
    21   13   24 1   
    22   14   15 2   
    23   14   16 1   
    24   15   25 1   
    25   16   26 1   
    26   16   27 1   
@<TRIPOS>SUBSTRUCTURE
     1 1OU         1 TEMP              0 ****  ****    0 ROOT
