@<TRIPOS>MOLECULE
1OU
   27    23     1     0     0
SMALL
bcc


@<TRIPOS>ATOM
      1 O1          0.3910   -1.7120   -3.9720 o         1 1OU     -1.120000
      2 P           1.3860   -2.0850   -2.9010 p3        1 1OU      2.361000
      3 O2          2.1050   -3.3510   -3.3010 os        1 1OU     -1.120000
      4 O3          2.3870   -0.9690   -2.7330 o         1 1OU     -1.120000
      5 C6          0.5130   -2.3560   -1.3300 c3        1 1OU     -0.387000
      6 N4          1.2740   -3.2320   -0.5110 n3        1 1OU     -0.257000
      7 C5          0.3300   -1.0320   -0.6190 c2        1 1OU      0.064000
      8 C7         -0.9320   -0.4530   -0.5440 c1        1 1OU     -0.273000
      9 C8         -1.1080    0.7340    0.1450 c1        1 1OU     -0.035000
     10 C2         -0.0230    1.3480    0.7600 c1        1 1OU     -0.285000
     11 C3          1.2360    0.7700    0.6840 c1        1 1OU     -0.060000
     12 C4          1.4130   -0.4190   -0.0050 c2        1 1OU     -0.288000
     13 N3         -0.2060    2.5580    1.4760 n3        1 1OU     -0.225000
     14 C1         -1.4210    2.7910    2.1790 c2        1 1OU      0.151000
     15 N1         -1.4060    3.4490    3.3100 n1        1 1OU     -0.399000
     16 N2         -2.6530    2.3100    1.6510 n3        1 1OU     -0.334000
     17 H3         -0.3630   -2.7550   -1.5080 h1        1 1OU      0.109000
     18 H4          1.9730   -3.5660   -0.9920 hn        1 1OU      0.093000
     19 H5          0.7420   -3.9220   -0.2250 hn        1 1OU      0.093000
     20 H7         -1.6770   -0.8480   -1.0270 ha        1 1OU      0.096000
     21 H8         -1.9800    1.1650    0.1560 ha        1 1OU      0.092000
     22 H9          1.9930    1.1900    1.1350 ha        1 1OU      0.083000
     23 H10         2.2830   -0.8560   -0.0050 ha        1 1OU      0.088000
     24 H11         0.4730    3.1670    1.5240 hn        1 1OU      0.164000
     25 H12        -0.6110    3.7590    3.6500 DU        1 1OU      0.123000
     26 H13        -3.2630    2.8990    1.3020 hn        1 1OU      0.194000
     27 H14        -2.8550    1.4180    1.7010 hn        1 1OU      0.194000
@<TRIPOS>BOND
     1    1    2 1   
     2    2    4 1   
     3    2    5 1   
     4    5    6 1   
     5    5    7 1   
     6    5   17 1   
     7    6   18 1   
     8    6   19 1   
     9    7    8 1   
    10    7   12 1   
    11    8   20 1   
    12    9   10 1   
    13    9   21 1   
    14   10   13 1   
    15   11   12 1   
    16   11   22 1   
    17   12   23 1   
    18   13   14 1   
    19   13   24 1   
    20   14   15 1   
    21   14   16 1   
    22   16   26 1   
    23   16   27 1   
@<TRIPOS>SUBSTRUCTURE
     1 1OU         1 TEMP              0 ****  ****    0 ROOT
