@<TRIPOS>MOLECULE
1OV
   26    22     1     0     0
SMALL
bcc


@<TRIPOS>ATOM
      1 N1         -2.3550    0.2230    3.4700 n1        1 1OV     -0.349000
      2 C1         -1.5620   -0.7870    3.2200 c1        1 1OV      0.144000
      3 N2         -1.1490   -1.6440    4.2740 n3        1 1OV     -0.354000
      4 N3         -1.1100   -1.0290    1.8810 n2        1 1OV     -0.318000
      5 C2         -0.2300   -0.0870    1.2360 c3        1 1OV     -0.069000
      6 C3         -0.2890   -0.2900   -0.2790 c3        1 1OV     -0.154000
      7 C4          0.7980    0.5390   -0.9460 c3        1 1OV     -0.142000
      8 C5          0.6820    0.4070   -2.4500 c3        1 1OV     -0.666000
      9 N4          1.4380   -0.7100   -2.8860 n3        1 1OV     -0.334000
     10 P           1.3170    1.9120   -3.2410 p3        1 1OV      2.560000
     11 O1          2.7650    2.1070   -2.8620 o         1 1OV     -1.267500
     12 O3          0.5130    3.1000   -2.7790 o         1 1OV     -1.267500
     13 O2          1.2020    1.7800   -4.7410 os        1 1OV     -1.266000
     14 H1         -2.6450    0.3770    4.3290 DU        1 1OV      0.135000
     15 H2         -0.6510   -1.3110    4.9660 hn        1 1OV      0.163000
     16 H3         -1.4340   -2.5090    4.2940 hn        1 1OV      0.163000
     17 H4         -1.3970   -1.7680    1.4290 hn        1 1OV      0.211000
     18 H5          0.6940   -0.2300    1.5520 h1        1 1OV      0.072000
     19 H6         -0.5120    0.8250    1.4540 h1        1 1OV      0.072000
     20 H7         -1.1660   -0.0080   -0.6130 hc        1 1OV      0.070000
     21 H8         -0.1490   -1.2400   -0.4870 hc        1 1OV      0.070000
     22 H9          1.6730    0.2200   -0.6590 hc        1 1OV      0.105000
     23 H10         0.6940    1.4780   -0.6930 hc        1 1OV      0.105000
     24 H11        -0.2500    0.2820   -2.6930 h1        1 1OV      0.068000
     25 H12         2.1870   -0.4190   -3.3290 hn        1 1OV      0.124500
     26 H13         0.9310   -1.2200   -3.4490 hn        1 1OV      0.124500
@<TRIPOS>BOND
     1    1    2 1   
     2    2    3 1   
     3    3   15 1   
     4    3   16 1   
     5    4    5 1   
     6    4   17 1   
     7    5    6 1   
     8    5   18 1   
     9    5   19 1   
    10    6    7 1   
    11    6   20 1   
    12    6   21 1   
    13    7    8 1   
    14    7   22 1   
    15    7   23 1   
    16    8    9 1   
    17    8   10 1   
    18    8   24 1   
    19    9   25 1   
    20    9   26 1   
    21   10   11 1   
    22   10   12 1   
@<TRIPOS>SUBSTRUCTURE
     1 1OV         1 TEMP              0 ****  ****    0 ROOT
