@<TRIPOS>MOLECULE
1OV
   29    28     1     0     0
SMALL
bcc


@<TRIPOS>ATOM
      1 N1          0.0000    0.0000    0.0000 n2        1 1OV     -0.622100
      2 C1          1.3040    0.0000    0.0000 c2        1 1OV     -0.220900
      3 N2          1.9910    0.0000    1.1910 nz        1 1OV      0.227400
      4 N3          1.9920   -0.0000   -1.1900 ny        1 1OV      0.249000
      5 C2          1.2590   -0.0000   -2.4600 c3        1 1OV     -0.028200
      6 C3          2.2540   -0.0000   -3.6220 c3        1 1OV     -0.076400
      7 C4          1.4890   -0.0000   -4.9470 c3        1 1OV      0.031600
      8 C5          2.4840   -0.0010   -6.1100 c3        1 1OV     -0.154700
      9 N4          1.7500   -0.0010   -7.3820 nz        1 1OV      0.145400
     10 P           3.5320   -1.4890   -6.0130 p5        1 1OV      0.530700
     11 O1          2.6740   -2.6940   -5.9700 o         1 1OV     -0.491833
     12 O3          4.4880   -1.5570   -7.3060 o         1 1OV     -0.491833
     13 O2          4.4340   -1.4250   -4.6810 o         1 1OV     -0.491833
     14 H1         -0.5010    0.0000    0.8660 hn        1 1OV      0.354400
     15 H2          1.7480   -0.8170    1.7160 hn        1 1OV      0.198467
     16 H3          1.7480    0.8170    1.7160 hn        1 1OV      0.198467
     17 H4          2.5740   -0.8140   -1.1900 hn        1 1OV      0.191300
     18 H5          0.6360    0.8840   -2.5170 hx        1 1OV      0.085200
     19 H6          0.6360   -0.8850   -2.5170 hx        1 1OV      0.085200
     20 H7          2.8760    0.8850   -3.5650 hc        1 1OV      0.072700
     21 H8          2.8770   -0.8850   -3.5650 hc        1 1OV      0.072700
     22 H9          0.8660    0.8840   -5.0040 hc        1 1OV      0.019700
     23 H10         0.8660   -0.8850   -5.0040 hc        1 1OV      0.019700
     24 H11         3.1060    0.8840   -6.0530 hx        1 1OV      0.091700
     25 H12         2.3990    0.0330   -8.1430 hn        1 1OV      0.205800
     26 H13         1.1490    0.7980   -7.4210 hn        1 1OV      0.205800
     27 H23         2.9750   -0.0010    1.0090 hn        1 1OV      0.198467
     28 H32         2.5750    0.8140   -1.1900 hn        1 1OV      0.191300
     29 H43         1.2020   -0.8360   -7.4510 hn        1 1OV      0.205800
@<TRIPOS>BOND
     1    1    2 2   
     2    1   14 1   
     3    2    3 1   
     4    2    4 1   
     5    3   15 1   
     6    3   16 1   
     7    3   27 1   
     8    4    5 1   
     9    4   17 1   
    10    4   28 1   
    11    5    6 1   
    12    5   18 1   
    13    5   19 1   
    14    6    7 1   
    15    6   20 1   
    16    6   21 1   
    17    7    8 1   
    18    7   22 1   
    19    7   23 1   
    20    8    9 1   
    21    8   10 1   
    22    8   24 1   
    23    9   25 1   
    24    9   26 1   
    25    9   29 1   
    26   10   11 1   
    27   10   12 1   
    28   10   13 1   
@<TRIPOS>SUBSTRUCTURE
     1 1OV         1 TEMP              0 ****  ****    0 ROOT
