@<TRIPOS>MOLECULE
1OV
   26    25     1     0     0
SMALL
bcc


@<TRIPOS>ATOM
      1 N1          0.4940   -0.1090   -0.1480 n2        1 1OV     -0.936100
      2 C1          1.5520   -0.3370   -0.9000 c2        1 1OV      0.764100
      3 N2          2.3070   -1.5840   -0.8150 nh        1 1OV     -0.948800
      4 N3          2.0580    0.6790   -1.7690 nh        1 1OV     -0.849200
      5 C2          1.1090    1.4550   -2.5290 c3        1 1OV      0.209800
      6 C3          1.3890    1.4830   -4.0360 c3        1 1OV     -0.088400
      7 C4          1.2900    0.1100   -4.6820 c3        1 1OV     -0.056400
      8 C5          2.5880   -0.3820   -5.2940 c3        1 1OV     -0.042700
      9 N4          2.4430   -0.8550   -6.6460 n3        1 1OV     -0.893800
     10 P           3.2400   -1.7250   -4.2440 p5        1 1OV      1.215700
     11 O1          2.0700   -2.4680   -3.6400 o         1 1OV     -0.935167
     12 O3          4.1350   -2.5020   -5.1770 o         1 1OV     -0.935167
     13 O2          3.9520   -0.9490   -3.1470 o         1 1OV     -0.935167
     14 H1          0.2750   -0.8720    0.4570 hn        1 1OV      0.354400
     15 H2          3.2940   -1.3790   -0.8280 hn        1 1OV      0.411300
     16 H3          2.1270   -2.1060   -1.6840 hn        1 1OV      0.411300
     17 H4          2.8210    0.3100   -2.3640 hn        1 1OV      0.486800
     18 H5          1.1570    2.5170   -2.1410 h1        1 1OV      0.007200
     19 H6          0.0500    1.1030   -2.3790 h1        1 1OV      0.007200
     20 H7          0.6390    2.1790   -4.4980 hc        1 1OV      0.009200
     21 H8          2.4000    1.9340   -4.2140 hc        1 1OV      0.009200
     22 H9          0.4710    0.1590   -5.4520 hc        1 1OV      0.043700
     23 H10         0.9620   -0.6600   -3.9250 hc        1 1OV      0.043700
     24 H11         3.3680    0.4250   -5.2240 h1        1 1OV      0.008700
     25 H12         2.7710   -0.1610   -7.2950 hn        1 1OV      0.319300
     26 H13         3.0260   -1.6730   -6.7550 hn        1 1OV      0.319300
@<TRIPOS>BOND
     1    1    2 2   
     2    1   14 1   
     3    2    3 1   
     4    2    4 1   
     5    3   15 1   
     6    3   16 1   
     7    4    5 1   
     8    4   17 1   
     9    5    6 1   
    10    5   18 1   
    11    5   19 1   
    12    6    7 1   
    13    6   20 1   
    14    6   21 1   
    15    7    8 1   
    16    7   22 1   
    17    7   23 1   
    18    8    9 1   
    19    8   10 1   
    20    8   24 1   
    21    9   25 1   
    22    9   26 1   
    23   10   11 1   
    24   10   12 1   
    25   10   13 1   
@<TRIPOS>SUBSTRUCTURE
     1 1OV         1 TEMP              0 ****  ****    0 ROOT
