@<TRIPOS>MOLECULE
1OV
   26    25     1     0     0
SMALL
bcc


@<TRIPOS>ATOM
      1 N1          4.1650    0.7160    0.7260 n2        1 1OV     -0.953100
      2 C1          3.2700   -0.1280    0.2380 c2        1 1OV      0.773100
      3 N2          2.9900   -1.4110    0.8370 nh        1 1OV     -0.940800
      4 N3          2.6630    0.1320   -1.0380 nh        1 1OV     -0.804200
      5 C2          2.1900    1.4800   -1.2790 c3        1 1OV      0.195800
      6 C3          0.6670    1.6040   -1.4080 c3        1 1OV     -0.086400
      7 C4         -0.0520    1.3290   -0.0990 c3        1 1OV     -0.049400
      8 C5         -1.3670    0.5960   -0.2750 c3        1 1OV     -0.044700
      9 N4         -2.4850    1.0760    0.4880 n3        1 1OV     -0.873800
     10 P          -1.0580   -1.1510    0.2420 p5        1 1OV      1.234700
     11 O1         -1.1240   -1.0650    1.7480 o         1 1OV     -0.949833
     12 O3         -2.1120   -1.9690   -0.4460 o         1 1OV     -0.949833
     13 O2          0.3570   -1.4210   -0.2600 o         1 1OV     -0.949833
     14 H1          4.5680    0.4070    1.5860 hn        1 1OV      0.343400
     15 H2          2.8080   -1.3020    1.8150 hn        1 1OV      0.410800
     16 H3          2.1920   -1.8750    0.4090 hn        1 1OV      0.410800
     17 H4          1.9090   -0.5380   -1.2160 hn        1 1OV      0.470800
     18 H5          2.5390    2.2040   -0.4920 h1        1 1OV      0.016200
     19 H6          2.6550    1.8060   -2.2560 h1        1 1OV      0.016200
     20 H7          0.4360    2.6430   -1.7620 hc        1 1OV      0.022200
     21 H8          0.3080    0.8970   -2.2020 hc        1 1OV      0.022200
     22 H9          0.5980    0.7020    0.5740 hc        1 1OV      0.017200
     23 H10        -0.1870    2.3190    0.4250 hc        1 1OV      0.017200
     24 H11        -1.6720    0.5910   -1.3510 h1        1 1OV      0.033700
     25 H12        -2.5060    0.5710    1.3640 hn        1 1OV      0.309800
     26 H13        -2.3720    2.0500    0.7140 hn        1 1OV      0.309800
@<TRIPOS>BOND
     1    1    2 2   
     2    1   14 1   
     3    2    3 1   
     4    2    4 1   
     5    3   15 1   
     6    3   16 1   
     7    4    5 1   
     8    4   17 1   
     9    5    6 1   
    10    5   18 1   
    11    5   19 1   
    12    6    7 1   
    13    6   20 1   
    14    6   21 1   
    15    7    8 1   
    16    7   22 1   
    17    7   23 1   
    18    8    9 1   
    19    8   10 1   
    20    8   24 1   
    21    9   25 1   
    22    9   26 1   
    23   10   11 1   
    24   10   12 1   
    25   10   13 1   
@<TRIPOS>SUBSTRUCTURE
     1 1OV         1 TEMP              0 ****  ****    0 ROOT
