@<TRIPOS>MOLECULE
1OX
   33    23     1     0     0
SMALL
bcc


@<TRIPOS>ATOM
      1 C1         -2.6880   -0.0070   -4.9270 c1        1 1OX     -0.111750
      2 C2         -1.3090    0.0920   -4.8910 c1        1 1OX     -0.111750
      3 C3         -3.3840   -0.3980   -3.7970 c1        1 1OX     -0.111750
      4 C4         -0.6190   -0.2030   -3.7140 c1        1 1OX     -0.111750
      5 C5         -2.0040   -1.3830   -0.6250 c1        1 1OX     -0.007000
      6 C6         -2.6860   -0.6970   -2.6050 c1        1 1OX     -0.048500
      7 C7         -1.3250   -0.6000   -2.5670 c1        1 1OX     -0.048500
      8 C8          1.8940   -0.1040    5.3050 c1        1 1OX     -0.111750
      9 C9          1.4480   -0.8930    4.1270 c1        1 1OX     -0.111750
     10 C10         2.2270    1.3270    5.1530 c1        1 1OX     -0.111750
     11 C11         1.1060    1.0490    0.1750 c1        1 1OX     -0.306000
     12 C12         2.1150    1.9880    3.8010 c1        1 1OX     -0.111750
     13 C13         0.7780   -0.3990    0.3300 c1        1 1OX      0.040000
     14 C14         1.3340   -0.2300    2.7730 c1        1 1OX      0.164000
     15 C15         1.5470    1.8330    1.3500 c1        1 1OX      0.338000
     16 C16         0.4550   -1.2640   -0.9260 c3        1 1OX      0.038000
     17 N17        -3.1050   -1.1790   -1.4080 n1        1 1OX     -0.145000
     18 N18         0.8900   -1.0170    1.6010 n1        1 1OX     -0.232000
     19 N19        -0.9070   -1.0250   -1.3410 n2        1 1OX     -0.202000
     20 N20         1.6680    1.2000    2.6230 DU        1 1OX     -0.193000
     21 O21         1.8120    2.9930    1.2320 o         1 1OX     -0.340000
     22 H1         -3.1650    0.1980   -5.7410 ha        1 1OX      0.152625
     23 H2         -0.8060    0.3740   -5.7070 ha        1 1OX      0.152625
     24 H3         -4.3740   -0.4680   -3.8240 ha        1 1OX      0.152625
     25 H4          0.3200   -0.1360   -3.6900 ha        1 1OX      0.152625
     26 H5         -2.0110   -1.6770    0.3200 DU        1 1OX      0.207000
     27 H6          1.9650   -0.5200    6.1570 ha        1 1OX      0.152625
     28 H7          1.2310   -1.8220    4.2260 ha        1 1OX      0.152625
     29 H8          2.5300    1.8630    5.9540 ha        1 1OX      0.152625
     30 H9          1.0920    1.4620   -0.7110 ha        1 1OX      0.172000
     31 H11         2.3320    2.9190    3.7020 ha        1 1OX      0.152625
     32 H12         0.5720   -2.2530   -0.6960 h1        1 1OX      0.117000
     33 H13         1.0680   -1.0230   -1.6570 h1        1 1OX      0.117000
@<TRIPOS>BOND
     1    1    3 1   
     2    1   22 1   
     3    2    4 1   
     4    2   23 1   
     5    3   24 1   
     6    4   25 1   
     7    5   17 1   
     8    5   19 1   
     9    6    7 1   
    10    8    9 1   
    11    8   27 1   
    12    9   28 1   
    13   10   12 1   
    14   10   29 1   
    15   11   13 1   
    16   11   30 1   
    17   12   31 1   
    18   13   16 1   
    19   14   18 1   
    20   15   21 1   
    21   16   19 1   
    22   16   32 1   
    23   16   33 1   
@<TRIPOS>SUBSTRUCTURE
     1 1OX         1 TEMP              0 ****  ****    0 ROOT
