@<TRIPOS>MOLECULE
1OX
   33    47     1     0     0
SMALL
bcc


@<TRIPOS>ATOM
      1 C1          0.0000    0.0000    0.0000 c3        1 1OX      0.443000
      2 C2          1.3870    0.0000    0.0000 DU        1 1OX     -0.060000
      3 C3         -0.6980    0.0000    1.1760 c2        1 1OX      0.125000
      4 C4          2.0860    0.0000    1.1900 c2        1 1OX     -0.266000
      5 C5          0.6370   -0.0150    4.4670 c2        1 1OX     -0.272000
      6 C6         -0.0110   -0.0060    2.3920 c2        1 1OX     -0.130000
      7 C7          1.3940   -0.0000    2.3930 DU        1 1OX     -0.449000
      8 C8          5.6320    5.0700    2.0740 c2        1 1OX      0.303000
      9 C9          5.1740    3.7870    2.0550 c2        1 1OX     -0.361000
     10 C10         5.5590    5.8120    3.2600 c2        1 1OX     -0.059000
     11 C11         3.5760    2.1310    5.4660 c2        1 1OX     -0.103000
     12 C12         5.0360    5.2580    4.3780 c2        1 1OX     -0.369000
     13 C13         3.6620    1.4140    4.2890 c2        1 1OX     -0.068000
     14 C14         4.6290    3.2290    3.2260 c3        1 1OX     -0.169000
     15 C15         4.0590    3.4440    5.4970 DU        1 1OX      0.520000
     16 N17        -0.4070   -0.0080    3.6910 n2        1 1OX     -0.044000
     17 N18         4.1820    1.9750    3.2090 n2        1 1OX     -0.090000
     18 N19         1.7740   -0.0010    3.7200 na        1 1OX      0.504000
     19 N20         4.5760    3.9760    4.3680 nx        1 1OX     -0.015000
     20 O21         4.0010    4.1030    6.5230 o         1 1OX     -0.260000
     21 H1          0.6140   -0.0320    0.8920 DU        1 1OX     -0.338000
     22 H2          0.4150   -0.0000   -0.4780 DU        1 1OX      0.178000
     23 H3          0.1450    0.0000    0.4950 DU        1 1OX     -0.440000
     24 H4          1.0030    0.0000    1.1820 DU        1 1OX      0.498000
     25 H5          1.2990   -0.0110    3.6100 DU        1 1OX      0.098000
     26 H7          4.4580    3.1880    2.6040 DU        1 1OX      0.277000
     27 H8          5.4520    4.9750    2.5810 ha        1 1OX     -0.024000
     28 H9          4.0220    3.0260    5.0510 DU        1 1OX     -0.115000
     29 H11         4.6220    4.3830    4.8640 DU        1 1OX      0.329000
     30 C16         3.1480   -0.0010    4.2300 c3        1 1OX     -0.019000
     31 H6          6.0510    5.5130    1.1790 ha        1 1OX      0.150000
     32 H12         2.8200   -0.5670    5.0940 h1        1 1OX      0.114000
     33 H13         3.4310   -0.7730    3.5250 h1        1 1OX      0.114000
@<TRIPOS>BOND
     1    1    2 1   
     2    1    3 1   
     3    1   21 1   
     4    1   22 1   
     5    2    4 1   
     6    2   21 1   
     7    2   22 1   
     8    2   24 1   
     9    3    6 1   
    10    3   23 1   
    11    4    7 1   
    12    4   24 1   
    13    5   16 1   
    14    5   18 1   
    15    5   25 1   
    16    6    7 1   
    17    6   16 1   
    18    7   18 1   
    19    7   24 1   
    20    7   25 1   
    21    8    9 1   
    22    8   10 1   
    23    8   31 1   
    24    9   14 1   
    25    9   26 1   
    26   10   12 1   
    27   10   27 1   
    28   11   13 1   
    29   11   15 1   
    30   11   28 1   
    31   12   19 1   
    32   12   29 1   
    33   13   17 1   
    34   13   30 1   
    35   14   17 1   
    36   14   19 1   
    37   14   26 1   
    38   15   19 1   
    39   15   20 1   
    40   15   28 1   
    41   15   29 1   
    42   18   30 1   
    43   19   29 1   
    44   21   23 1   
    45   21   24 1   
    46   30   32 1   
    47   30   33 1   
@<TRIPOS>SUBSTRUCTURE
     1 1OX         1 TEMP              0 ****  ****    0 ROOT
