@<TRIPOS>MOLECULE
1OX
   33    36     1     0     0
SMALL
bcc


@<TRIPOS>ATOM
      1 C1          4.4460    2.1220   -0.1780 ca        1 1OX     -0.155000
      2 C2          3.6520    2.1570    0.9800 ca        1 1OX     -0.115000
      3 C3          4.3680    1.0750   -1.0860 ca        1 1OX     -0.069000
      4 C4          2.7490    1.1460    1.2800 ca        1 1OX     -0.124000
      5 C5          2.2380   -1.7760   -0.8280 cc        1 1OX      0.423700
      6 C6          3.4670    0.0360   -0.8240 ca        1 1OX      0.063400
      7 C7          2.6530    0.0800    0.3800 ca        1 1OX     -0.054200
      8 C8         -3.4370    2.4150   -0.8590 cc        1 1OX     -0.062000
      9 C9         -2.2030    2.0060   -0.4580 cd        1 1OX     -0.155000
     10 C10        -4.5350    1.5040   -0.8440 cc        1 1OX     -0.203000
     11 C11        -1.5770   -1.9710    0.8250 cc        1 1OX     -0.333200
     12 C12        -4.3370    0.2170   -0.4240 cd        1 1OX     -0.028300
     13 C13        -0.5630   -1.0390    0.7890 cd        1 1OX      0.173400
     14 C14        -1.9790    0.6320   -0.0060 cd        1 1OX      0.135700
     15 C15        -2.9220   -1.6040    0.4270 c         1 1OX      0.588500
     16 N17         3.1710   -1.1440   -1.5460 nd        1 1OX     -0.561100
     17 N18        -0.7480    0.2610    0.3840 nc        1 1OX     -0.355600
     18 N19         1.9020   -1.1090    0.3780 na        1 1OX     -0.172300
     19 N20        -3.0930   -0.2390   -0.0060 n         1 1OX     -0.100200
     20 O21        -3.9120   -2.3550    0.4280 o         1 1OX     -0.617500
     21 H1          5.1470    2.9480   -0.3670 ha        1 1OX      0.131000
     22 H2          3.7490    3.0110    1.6680 ha        1 1OX      0.130000
     23 H3          4.9940    1.0530   -1.9890 ha        1 1OX      0.147000
     24 H4          2.1250    1.1870    2.1830 ha        1 1OX      0.136000
     25 H5          1.7750   -2.7340   -1.0940 h5        1 1OX      0.067800
     26 H7         -1.3300    2.6770   -0.4600 ha        1 1OX      0.176000
     27 H8         -5.5310    1.8370   -1.1680 ha        1 1OX      0.160000
     28 H9         -1.4340   -3.0100    1.1450 ha        1 1OX      0.171000
     29 H11        -5.1470   -0.5400   -0.3900 h4        1 1OX      0.193000
     30 C16         0.8280   -1.4480    1.2510 c3        1 1OX      0.100500
     31 H6         -3.6080    3.4480   -1.2010 ha        1 1OX      0.151000
     32 H12         1.0130   -0.9560    2.2520 h1        1 1OX      0.077700
     33 H13         0.8330   -2.5690    1.3920 h1        1 1OX      0.077700
@<TRIPOS>BOND
     1    1    2 ar  
     2    1    3 ar  
     3    1   21 1   
     4    2    4 ar  
     5    2   22 1   
     6    3    6 ar  
     7    3   23 1   
     8    4    7 ar  
     9    4   24 1   
    10    5   16 2   
    11    5   18 1   
    12    5   25 1   
    13    6    7 ar  
    14    6   16 1   
    15    7   18 1   
    16    8    9 2   
    17    8   10 1   
    18    8   31 1   
    19    9   14 1   
    20    9   26 1   
    21   10   12 2   
    22   10   27 1   
    23   11   13 2   
    24   11   15 1   
    25   11   28 1   
    26   12   19 1   
    27   12   29 1   
    28   13   17 1   
    29   13   30 1   
    30   14   17 2   
    31   14   19 1   
    32   15   19 1   
    33   15   20 2   
    34   18   30 1   
    35   30   32 1   
    36   30   33 1   
@<TRIPOS>SUBSTRUCTURE
     1 1OX         1 TEMP              0 ****  ****    0 ROOT
