@<TRIPOS>MOLECULE
1OX
   33    31     1     0     0
SMALL
bcc


@<TRIPOS>ATOM
      1 C1         -1.7120    2.2270   -1.5810 c1        1 1OX     -0.157000
      2 C2          3.8160   -1.7500    2.2290 c1        1 1OX     -0.160000
      3 C3         -0.8830    1.6560   -0.9250 c1        1 1OX     -0.108000
      4 C4          2.9960   -0.9260    2.5160 c1        1 1OX     -0.145000
      5 C5          1.2460    0.5240    1.8280 c1        1 1OX     -0.244000
      6 C6          0.1000    0.9270   -0.3050 c1        1 1OX     -0.027000
      7 C7          2.0060    0.0470    2.8140 c2        1 1OX      0.221000
      8 C8          2.9460    5.6610    2.4950 c2        1 1OX     -0.113000
      9 C9          2.9560    5.2440    3.7720 c2        1 1OX     -0.147000
     10 C10         4.8500    6.6350    3.3390 c1        1 1OX      0.087000
     11 C11         5.1080    1.6590    5.2480 c1        1 1OX     -0.613000
     12 C12         5.5660    5.6970    3.9780 c2        1 1OX     -0.318000
     13 C13         3.8310    1.7900    4.8910 c2        1 1OX      0.253000
     14 C14         3.7990    4.0950    4.2360 c2        1 1OX      0.215000
     15 C15         6.2700    1.3460    5.6280 c1        1 1OX      0.346000
     16 N17         0.6140    0.7860    0.8050 n2        1 1OX      0.098000
     17 N18         3.1970    2.9360    4.4550 n2        1 1OX     -0.285000
     18 N19         1.7920    0.4320    4.1560 n3        1 1OX     -0.240000
     19 N20         5.1310    4.4350    4.4030 n3        1 1OX     -0.251000
     20 O21         7.4010    1.1410    5.9690 o         1 1OX     -0.209000
     21 H1         -0.1880   -6.6430    0.4370 ha        1 1OX      0.000000
     22 H2          4.5440   -2.4780    1.9760 ha        1 1OX      0.230000
     23 H3         -2.4420    2.7240   -2.1680 ha        1 1OX      0.230000
     24 H4         -0.0860   -7.3110    0.4590 ha        1 1OX      0.000000
     25 H5          1.1650    1.2120    4.2290 hn        1 1OX      0.209000
     26 H7          2.3500    5.7130    4.5640 ha        1 1OX      0.171000
     27 H8          3.4990    5.1550    1.6900 ha        1 1OX      0.143500
     28 H9          5.8050    3.7570    4.6940 hn        1 1OX      0.267000
     29 H11         6.6260    5.9250    4.2270 h4        1 1OX      0.189000
     30 C16         2.9400    0.5480    5.0160 c3        1 1OX     -0.035000
     31 H6          2.3330    6.5190    2.1780 ha        1 1OX      0.143500
     32 H12         2.5520    0.5450    6.0770 h1        1 1OX      0.124500
     33 H13         3.5980   -0.3570    4.8750 h1        1 1OX      0.124500
@<TRIPOS>BOND
     1    1    3 1   
     2    1   23 1   
     3    2    4 1   
     4    2   22 1   
     5    3    6 1   
     6    4    7 1   
     7    5    7 1   
     8    5   16 1   
     9    6   16 1   
    10    7   18 1   
    11    8    9 1   
    12    8   27 1   
    13    8   31 1   
    14    9   14 1   
    15    9   26 1   
    16   10   12 1   
    17   11   13 1   
    18   11   15 1   
    19   12   19 1   
    20   12   29 1   
    21   13   17 1   
    22   13   30 1   
    23   14   17 1   
    24   14   19 1   
    25   15   20 1   
    26   18   25 1   
    27   18   30 1   
    28   19   28 1   
    29   21   24 1   
    30   30   32 1   
    31   30   33 1   
@<TRIPOS>SUBSTRUCTURE
     1 1OX         1 TEMP              0 ****  ****    0 ROOT
