@<TRIPOS>MOLECULE
1OY
   69    71     1     0     0
SMALL
bcc


@<TRIPOS>ATOM
      1 C1          0.3030   -0.5110   -0.0310 c3        1 1OY      0.142500
      2 C10        -0.3640   -1.8880   -0.2170 c         1 1OY      0.533100
      3 N11        -1.8630   -1.9150    0.0490 ny        1 1OY     -0.683800
      4 C12        -2.5990   -2.8310   -0.8700 c3        1 1OY      0.101800
      5 C13        -4.0730   -2.9660   -0.5120 c3        1 1OY     -0.108400
      6 C14        -4.8060   -3.5950   -1.6980 c3        1 1OY      0.149100
      7 O14        -4.6400   -2.7060   -2.7920 oh        1 1OY     -0.624800
      8 C15        -6.2890   -3.7880   -1.3600 c3        1 1OY      0.098400
      9 O15        -6.8820   -4.2740   -2.5510 oh        1 1OY     -0.607800
     10 O10         0.1350   -2.9350   -0.5820 o         1 1OY     -0.381100
     11 N1          1.7280   -0.6810    0.1300 n7        1 1OY     -0.815200
     12 C2         -0.2640    0.2220    1.2200 c3        1 1OY     -0.036400
     13 C21        -1.3460    1.1760    0.8490 ca        1 1OY     -0.158300
     14 C26        -1.1550    2.2090   -0.0710 ca        1 1OY     -0.095000
     15 C25        -2.1700    3.1280   -0.3380 ca        1 1OY     -0.108000
     16 C22        -2.6270    1.0270    1.4420 ca        1 1OY      0.092900
     17 F2         -2.8630   -0.0470    2.2410 f         1 1OY     -0.145900
     18 C23        -3.6500    1.9630    1.1790 ca        1 1OY     -0.008600
     19 Cl2        -5.1700    1.8280    1.9070 cl        1 1OY     -0.025400
     20 C24        -3.4040    3.0200    0.2950 ca        1 1OY     -0.079000
     21 C3          0.9900    0.7940    1.9520 c3        1 1OY      0.073400
     22 C37         1.2360    2.1750    1.5580 c1        1 1OY      0.202700
     23 N37         1.4620    3.2710    1.2400 n1        1 1OY     -0.327800
     24 C31         0.8690    0.6620    3.4470 ca        1 1OY     -0.132300
     25 C32         0.6600   -0.5890    4.0770 ca        1 1OY      0.128900
     26 F3          0.5200   -1.7310    3.3520 f         1 1OY     -0.153900
     27 C33         0.5820   -0.6980    5.4770 ca        1 1OY     -0.154000
     28 C36         0.9790    1.7880    4.2740 ca        1 1OY     -0.080000
     29 C35         0.8990    1.6930    5.6600 ca        1 1OY     -0.126000
     30 C34         0.7030    0.4470    6.2640 ca        1 1OY      0.054400
     31 Cl3         0.6100    0.3220    7.9470 cl        1 1OY     -0.038400
     32 C4          2.1710   -0.1090    1.4000 c3        1 1OY      0.187500
     33 C41         3.4880    0.6630    1.3400 c3        1 1OY     -0.086400
     34 C42         4.7540   -0.1950    1.2950 c3        1 1OY     -0.052000
     35 C45         5.9430    0.7640    1.2410 c3        1 1OY     -0.093100
     36 C44         4.8790   -1.0530    2.5450 c3        1 1OY     -0.093100
     37 C43         4.7900   -1.0830    0.0620 c3        1 1OY     -0.093100
     38 H1          0.0410    0.0520   -0.9790 h1        1 1OY      0.094700
     39 H2         -2.0150   -2.2120    1.0210 hn        1 1OY      0.458300
     40 H3         -2.5000   -2.4200   -1.9190 hx        1 1OY      0.122700
     41 H4         -2.0950   -3.8400   -0.8340 hx        1 1OY      0.122700
     42 H5         -4.5310   -1.9640   -0.3000 hc        1 1OY      0.073200
     43 H6         -4.2070   -3.6180    0.3890 hc        1 1OY      0.073200
     44 H7         -4.3490   -4.5910   -1.9620 h1        1 1OY      0.064700
     45 H8         -5.2550   -2.9900   -3.4850 ho        1 1OY      0.450000
     46 H9         -6.7560   -2.8120   -1.0640 h1        1 1OY      0.043700
     47 H10        -6.4050   -4.5320   -0.5290 h1        1 1OY      0.043700
     48 H11        -7.8240   -4.3890   -2.3740 ho        1 1OY      0.429000
     49 H12         2.2560   -0.3660   -0.6600 hn        1 1OY      0.413800
     50 H14        -0.6890   -0.5420    1.9340 hc        1 1OY      0.085700
     51 H15        -0.1920    2.3100   -0.5980 ha        1 1OY      0.155000
     52 H16        -1.9890    3.9510   -1.0490 ha        1 1OY      0.170000
     53 H17        -4.1960    3.7640    0.0990 ha        1 1OY      0.177000
     54 H18         0.4280   -1.6890    5.9330 ha        1 1OY      0.175000
     55 H19         1.1360    2.7910    3.8450 ha        1 1OY      0.159000
     56 H20         0.9930    2.6020    6.2770 ha        1 1OY      0.170000
     57 H21         2.2960   -0.9800    2.1100 h1        1 1OY      0.104700
     58 H22         3.4950    1.3520    0.4520 hc        1 1OY      0.061700
     59 H23         3.5410    1.3020    2.2640 hc        1 1OY      0.061700
     60 H24         5.8930    1.3950    0.3220 hc        1 1OY      0.041922
     61 H25         6.8990    0.1880    1.2260 hc        1 1OY      0.041922
     62 H26         5.9450    1.4320    2.1360 hc        1 1OY      0.041922
     63 H27         4.1110   -1.8620    2.5570 hc        1 1OY      0.041922
     64 H28         4.7600   -0.4270    3.4620 hc        1 1OY      0.041922
     65 H29         5.8870   -1.5340    2.5740 hc        1 1OY      0.041922
     66 H30         4.5560   -0.4920   -0.8550 hc        1 1OY      0.041922
     67 H31         5.8110   -1.5220   -0.0570 hc        1 1OY      0.041922
     68 H32         4.0640   -1.9260    0.1530 hc        1 1OY      0.041922
     69 H112       -2.2410   -0.9630   -0.0420 hn        1 1OY      0.458300
@<TRIPOS>BOND
     1    1    2 1   
     2    1   11 1   
     3    1   12 1   
     4    1   38 1   
     5    2    3 1   
     6    2   10 2   
     7    3    4 1   
     8    3   39 1   
     9    3   69 1   
    10    4    5 1   
    11    4   40 1   
    12    4   41 1   
    13    5    6 1   
    14    5   42 1   
    15    5   43 1   
    16    6    7 1   
    17    6    8 1   
    18    6   44 1   
    19    7   45 1   
    20    8    9 1   
    21    8   46 1   
    22    8   47 1   
    23    9   48 1   
    24   11   32 1   
    25   11   49 1   
    26   12   13 1   
    27   12   21 1   
    28   12   50 1   
    29   13   14 ar  
    30   13   16 ar  
    31   14   15 ar  
    32   14   51 1   
    33   15   20 ar  
    34   15   52 1   
    35   16   17 1   
    36   16   18 ar  
    37   18   19 1   
    38   18   20 ar  
    39   20   53 1   
    40   21   22 1   
    41   21   24 1   
    42   21   32 1   
    43   22   23 3   
    44   24   25 ar  
    45   24   28 ar  
    46   25   26 1   
    47   25   27 ar  
    48   27   30 ar  
    49   27   54 1   
    50   28   29 ar  
    51   28   55 1   
    52   29   30 ar  
    53   29   56 1   
    54   30   31 1   
    55   32   33 1   
    56   32   57 1   
    57   33   34 1   
    58   33   58 1   
    59   33   59 1   
    60   34   35 1   
    61   34   36 1   
    62   34   37 1   
    63   35   60 1   
    64   35   61 1   
    65   35   62 1   
    66   36   63 1   
    67   36   64 1   
    68   36   65 1   
    69   37   66 1   
    70   37   67 1   
    71   37   68 1   
@<TRIPOS>SUBSTRUCTURE
     1 1OY         1 TEMP              0 ****  ****    0 ROOT
