@<TRIPOS>MOLECULE
1OY
   68    62     1     0     0
SMALL
bcc


@<TRIPOS>ATOM
      1 C1         -0.2000    0.6390   -0.7440 c3        1 1OY     -0.058000
      2 C10        -0.7060   -0.8100   -0.7150 c1        1 1OY      0.312000
      3 N11        -1.8930   -1.1680   -1.4340 n2        1 1OY     -0.363000
      4 C12        -1.9750   -2.4490   -2.1030 c3        1 1OY     -0.028000
      5 C13        -3.0810   -2.3970   -3.1900 c3        1 1OY     -0.177000
      6 C14        -3.3160   -3.8030   -3.7470 c3        1 1OY      0.035000
      7 O14        -2.1890   -4.2170   -4.4490 oh        1 1OY     -0.334000
      8 C15        -4.5210   -3.7850   -4.6830 c3        1 1OY     -0.059000
      9 O15        -4.6130   -5.0310   -5.3610 oh        1 1OY     -0.340000
     10 O10        -0.1480   -1.6340   -0.0170 o         1 1OY     -0.387000
     11 N1          1.0410    0.6440   -0.7470 n3        1 1OY     -0.272000
     12 C2         -0.5300    1.3480    0.6450 c3        1 1OY     -0.083000
     13 C21        -1.0410    2.7120    0.4060 c2        1 1OY     -0.107000
     14 C26        -0.4960    3.4910   -0.6140 c2        1 1OY     -0.102000
     15 C25        -1.0160    4.7520   -0.8770 c1        1 1OY     -0.129000
     16 C22        -2.0980    3.1950    1.1550 c1        1 1OY      0.118000
     17 F2         -2.6850    2.4100    2.0630 f         1 1OY     -0.088000
     18 C23        -2.6180    4.4600    0.8900 c2        1 1OY     -0.100000
     19 CL2        -4.0060    5.0270    1.7640 cl        1 1OY      0.014000
     20 C24        -2.0740    5.2360   -0.1280 c1        1 1OY     -0.095000
     21 C3          0.7470    1.4070    1.4210 c3        1 1OY      0.070000
     22 C37         1.2730    2.7600    1.8850 c1        1 1OY     -0.135000
     23 N37         1.6670    3.7730    2.2320 n1        1 1OY     -0.031000
     24 C31         0.4470    0.6420    2.7420 c1        1 1OY     -0.106000
     25 C32         0.5130    1.3090    3.9650 c1        1 1OY      0.041000
     26 F3          0.8610    2.6030    4.0040 f         1 1OY     -0.088000
     27 C33         0.3150    0.6060    5.1530 c1        1 1OY     -0.151500
     28 C36         0.1840   -0.7270    2.7090 c1        1 1OY     -0.094000
     29 C35        -0.0140   -1.4280    3.8990 c1        1 1OY     -0.151500
     30 C34         0.0520   -0.7630    5.1190 c1        1 1OY      0.041000
     31 CL3        -0.1730   -1.6490    6.6130 cl        1 1OY     -0.000000
     32 C4          1.5240    0.6300    0.7590 c3        1 1OY     -0.027000
     33 C41         2.9990    1.1500    0.8500 c3        1 1OY     -0.156000
     34 C42         4.0010   -0.0330    0.5200 c3        1 1OY     -0.050000
     35 C45         5.4330    0.4140    0.8190 c3        1 1OY     -0.206333
     36 C44         3.6530   -1.2630    1.3880 c3        1 1OY     -0.206333
     37 C43         3.8860   -0.3940   -0.9250 c3        1 1OY     -0.206333
     38 H1         -0.6540    0.9810   -1.5420 h1        1 1OY      0.119000
     39 H2         -2.6150   -0.6090   -1.4300 hn        1 1OY      0.234000
     40 H3         -2.1930   -3.1480   -1.4460 h1        1 1OY      0.109000
     41 H4         -1.1130   -2.6540   -2.5230 h1        1 1OY      0.109000
     42 H5         -3.9140   -2.0590   -2.7930 hc        1 1OY      0.095500
     43 H6         -2.8010   -1.8060   -3.9090 hc        1 1OY      0.095500
     44 H7         -3.4850   -4.4200   -3.0110 h1        1 1OY      0.091000
     45 H8         -2.2530   -5.0930   -4.6270 ho        1 1OY      0.220000
     46 H9         -4.4160   -3.0640   -5.3390 h1        1 1OY      0.075500
     47 H10        -5.3370   -3.6360   -4.1620 h1        1 1OY      0.075500
     48 H11        -5.3720   -5.0550   -5.8430 ho        1 1OY      0.209000
     49 H12         1.3450    1.4100   -1.1600 hn        1 1OY      0.159000
     50 H14        -1.1940    0.8260    1.1360 hc        1 1OY      0.169000
     51 H15         0.2470    3.1510   -1.1410 ha        1 1OY      0.134000
     52 H16        -0.6320    5.3010   -1.5960 ha        1 1OY      0.145000
     53 H17        -2.4400    6.1260   -0.3140 ha        1 1OY      0.154000
     54 H18         0.3610    1.0740    6.0130 ha        1 1OY      0.161500
     55 H19         0.1380   -1.1950    1.8510 ha        1 1OY      0.174000
     56 H20        -0.2000   -2.3940    3.8750 ha        1 1OY      0.161500
     57 H21         1.4690   -0.2720    1.1140 h1        1 1OY      0.129000
     58 H22         3.1290    1.8800    0.2000 hc        1 1OY      0.095500
     59 H23         3.1720    1.4820    1.7530 hc        1 1OY      0.095500
     60 H24         6.0680   -0.2550    0.4610 hc        1 1OY      0.076222
     61 H25         5.6000    1.2850    0.3920 hc        1 1OY      0.076222
     62 H26         5.5550    0.4960    1.7880 hc        1 1OY      0.076222
     63 H27         3.5120   -0.9800    2.3120 hc        1 1OY      0.076222
     64 H28         4.4020   -1.9150    1.3530 hc        1 1OY      0.076222
     65 H29         2.8340   -1.6850    1.0450 hc        1 1OY      0.076222
     66 H30         4.7520   -0.7300   -1.2490 hc        1 1OY      0.076222
     67 H31         3.2040   -1.0900   -1.0350 hc        1 1OY      0.076222
     68 H32         3.6310    0.3960   -1.4390 hc        1 1OY      0.076222
@<TRIPOS>BOND
     1    1    2 1   
     2    1   11 1   
     3    1   12 1   
     4    1   38 1   
     5    2   10 1   
     6    3    4 1   
     7    3   39 1   
     8    4    5 1   
     9    4   40 1   
    10    4   41 1   
    11    5    6 1   
    12    5   42 1   
    13    5   43 1   
    14    6    7 1   
    15    6    8 1   
    16    6   44 1   
    17    7   45 1   
    18    8    9 1   
    19    8   46 1   
    20    8   47 1   
    21    9   48 1   
    22   11   32 1   
    23   11   49 1   
    24   12   13 1   
    25   12   21 1   
    26   12   50 1   
    27   13   14 1   
    28   13   16 1   
    29   14   15 1   
    30   14   51 1   
    31   15   52 1   
    32   16   18 1   
    33   18   19 1   
    34   18   20 1   
    35   20   53 1   
    36   21   22 1   
    37   21   24 1   
    38   21   32 1   
    39   22   23 1   
    40   24   28 1   
    41   25   27 1   
    42   27   54 1   
    43   28   55 1   
    44   29   30 1   
    45   29   56 1   
    46   32   33 1   
    47   32   57 1   
    48   33   34 1   
    49   33   58 1   
    50   33   59 1   
    51   34   35 1   
    52   34   36 1   
    53   34   37 1   
    54   35   60 1   
    55   35   61 1   
    56   35   62 1   
    57   36   63 1   
    58   36   64 1   
    59   36   65 1   
    60   37   66 1   
    61   37   67 1   
    62   37   68 1   
@<TRIPOS>SUBSTRUCTURE
     1 1OY         1 TEMP              0 ****  ****    0 ROOT
