@<TRIPOS>MOLECULE
1OY
   69    71     1     0     0
SMALL
bcc


@<TRIPOS>ATOM
      1 C1          0.2970   -0.4990   -0.0340 c3        1 1OY      0.142500
      2 C10        -0.3620   -1.8770   -0.2320 c         1 1OY      0.533100
      3 N11        -1.8600   -1.9160    0.0380 n4        1 1OY     -0.683800
      4 C12        -2.5930   -2.8260   -0.8880 c3        1 1OY      0.101800
      5 C13        -4.0660   -2.9740   -0.5270 c3        1 1OY     -0.108400
      6 C14        -4.7980   -3.5940   -1.7170 c3        1 1OY      0.149100
      7 O14        -4.6420   -2.6920   -2.8020 oh        1 1OY     -0.624800
      8 C15        -6.2790   -3.7990   -1.3760 c3        1 1OY      0.098400
      9 O15        -6.8740   -4.2760   -2.5710 oh        1 1OY     -0.607800
     10 O10         0.1420   -2.9170   -0.6110 o         1 1OY     -0.381100
     11 N1          1.7240   -0.6620    0.1200 n3        1 1OY     -0.815200
     12 C2         -0.2690    0.2160    1.2280 c3        1 1OY     -0.036400
     13 C21        -1.3580    1.1680    0.8730 ca        1 1OY     -0.158300
     14 C26        -1.1770    2.2130   -0.0360 ca        1 1OY     -0.095000
     15 C25        -2.1980    3.1280   -0.2880 ca        1 1OY     -0.108000
     16 C22        -2.6360    1.0040    1.4680 ca        1 1OY      0.092900
     17 F2         -2.8620   -0.0800    2.2560 f         1 1OY     -0.145900
     18 C23        -3.6650    1.9370    1.2210 ca        1 1OY     -0.008600
     19 CL2        -5.1810    1.7850    1.9530 cl        1 1OY     -0.025400
     20 C24        -3.4290    3.0060    0.3480 ca        1 1OY     -0.079000
     21 C3          0.9850    0.7880    1.9620 c3        1 1OY      0.073400
     22 C37         1.2210    2.1750    1.5840 c1        1 1OY      0.202700
     23 N37         1.4390    3.2760    1.2780 n1        1 1OY     -0.327800
     24 C31         0.8710    0.6370    3.4550 ca        1 1OY     -0.132300
     25 C32         0.6720   -0.6230    4.0720 ca        1 1OY      0.128900
     26 F3          0.5360   -1.7560    3.3330 f         1 1OY     -0.153900
     27 C33         0.6000   -0.7490    5.4700 ca        1 1OY     -0.154000
     28 C36         0.9780    1.7540    4.2950 ca        1 1OY     -0.080000
     29 C35         0.9040    1.6420    5.6810 ca        1 1OY     -0.126000
     30 C34         0.7180    0.3880    6.2710 ca        1 1OY      0.054400
     31 CL3         0.6330    0.2410    7.9530 cl        1 1OY     -0.038400
     32 C4          2.1690   -0.1010    1.3940 c3        1 1OY      0.187500
     33 C41         3.4810    0.6800    1.3370 c3        1 1OY     -0.086400
     34 C42         4.7520   -0.1700    1.2760 c3        1 1OY     -0.052000
     35 C45         5.9340    0.7980    1.2310 c3        1 1OY     -0.093100
     36 C44         4.8880   -1.0430    2.5150 c3        1 1OY     -0.093100
     37 C43         4.7890   -1.0420    0.0320 c3        1 1OY     -0.093100
     38 H1          0.0280    0.0730   -0.9740 h1        1 1OY      0.094700
     39 H2         -2.0060   -2.2250    1.0080 hn        1 1OY      0.458300
     40 H3         -2.5000   -2.4020   -1.9320 hx        1 1OY      0.122700
     41 H4         -2.0830   -3.8330   -0.8660 hx        1 1OY      0.122700
     42 H5         -4.5290   -1.9770   -0.3010 hc        1 1OY      0.073200
     43 H6         -4.1920   -3.6370    0.3680 hc        1 1OY      0.073200
     44 H7         -4.3370   -4.5840   -1.9940 h1        1 1OY      0.064700
     45 H8         -5.2570   -2.9710   -3.4960 ho        1 1OY      0.450000
     46 H9         -6.7510   -2.8290   -1.0680 h1        1 1OY      0.043700
     47 H10        -6.3880   -4.5530   -0.5530 h1        1 1OY      0.043700
     48 H11        -7.8150   -4.3980   -2.3920 ho        1 1OY      0.429000
     49 H12         2.2470   -0.3340   -0.6690 hn        1 1OY      0.413800
     50 H14        -0.6860   -0.5580    1.9350 hc        1 1OY      0.085700
     51 H15        -0.2170    2.3260   -0.5660 ha        1 1OY      0.155000
     52 H16        -2.0250    3.9610   -0.9900 ha        1 1OY      0.170000
     53 H17        -4.2260    3.7470    0.1640 ha        1 1OY      0.177000
     54 H18         0.4550   -1.7460    5.9160 ha        1 1OY      0.175000
     55 H19         1.1260    2.7630    3.8780 ha        1 1OY      0.159000
     56 H20         0.9950    2.5440    6.3090 ha        1 1OY      0.170000
     57 H21         2.3030   -0.9800    2.0930 h1        1 1OY      0.104700
     58 H22         3.4790    1.3790    0.4590 hc        1 1OY      0.061700
     59 H23         3.5340    1.3070    2.2700 hc        1 1OY      0.061700
     60 H24         5.8770    1.4400    0.3200 hc        1 1OY      0.041922
     61 H25         5.9370    1.4530    2.1340 hc        1 1OY      0.041922
     62 H26         6.8940    0.2280    1.2040 hc        1 1OY      0.041922
     63 H27         5.8990   -1.5180    2.5330 hc        1 1OY      0.041922
     64 H28         4.7680   -0.4300    3.4400 hc        1 1OY      0.041922
     65 H29         4.1250   -1.8570    2.5190 hc        1 1OY      0.041922
     66 H30         4.0690   -1.8900    0.1160 hc        1 1OY      0.041922
     67 H31         4.5460   -0.4400   -0.8770 hc        1 1OY      0.041922
     68 H32         5.8120   -1.4720   -0.0970 hc        1 1OY      0.041922
     69 H112       -2.2440   -0.9660   -0.0400 hn        1 1OY      0.458300
@<TRIPOS>BOND
     1    1    2 1   
     2    1   11 1   
     3    1   12 1   
     4    1   38 1   
     5    2    3 1   
     6    2   10 2   
     7    3    4 1   
     8    3   39 1   
     9    3   69 1   
    10    4    5 1   
    11    4   40 1   
    12    4   41 1   
    13    5    6 1   
    14    5   42 1   
    15    5   43 1   
    16    6    7 1   
    17    6    8 1   
    18    6   44 1   
    19    7   45 1   
    20    8    9 1   
    21    8   46 1   
    22    8   47 1   
    23    9   48 1   
    24   11   32 1   
    25   11   49 1   
    26   12   13 1   
    27   12   21 1   
    28   12   50 1   
    29   13   14 ar  
    30   13   16 ar  
    31   14   15 ar  
    32   14   51 1   
    33   15   20 ar  
    34   15   52 1   
    35   16   17 1   
    36   16   18 ar  
    37   18   19 1   
    38   18   20 ar  
    39   20   53 1   
    40   21   22 1   
    41   21   24 1   
    42   21   32 1   
    43   22   23 3   
    44   24   25 ar  
    45   24   28 ar  
    46   25   26 1   
    47   25   27 ar  
    48   27   30 ar  
    49   27   54 1   
    50   28   29 ar  
    51   28   55 1   
    52   29   30 ar  
    53   29   56 1   
    54   30   31 1   
    55   32   33 1   
    56   32   57 1   
    57   33   34 1   
    58   33   58 1   
    59   33   59 1   
    60   34   35 1   
    61   34   36 1   
    62   34   37 1   
    63   35   60 1   
    64   35   61 1   
    65   35   62 1   
    66   36   63 1   
    67   36   64 1   
    68   36   65 1   
    69   37   66 1   
    70   37   67 1   
    71   37   68 1   
@<TRIPOS>SUBSTRUCTURE
     1 1OY         1 TEMP              0 ****  ****    0 ROOT
