@<TRIPOS>MOLECULE
1OY
   69    71     1     0     0
SMALL
bcc


@<TRIPOS>ATOM
      1 C1          0.2940   -0.4980   -0.0370 c3        1 1OY      0.142500
      2 C10        -0.3690   -1.8750   -0.2310 c         1 1OY      0.533100
      3 N11        -1.8660   -1.9100    0.0470 n4        1 1OY     -0.683800
      4 C12        -2.6060   -2.8220   -0.8730 c3        1 1OY      0.101800
      5 C13        -4.0770   -2.9670   -0.5030 c3        1 1OY     -0.108400
      6 C14        -4.8160   -3.5910   -1.6860 c3        1 1OY      0.149100
      7 O14        -4.6650   -2.6930   -2.7760 oh        1 1OY     -0.624800
      8 C15        -6.2950   -3.7930   -1.3370 c3        1 1OY      0.098400
      9 O15        -6.8970   -4.2740   -2.5260 oh        1 1OY     -0.607800
     10 O10         0.1300   -2.9160   -0.6120 o         1 1OY     -0.381100
     11 N1          1.7210   -0.6650    0.1120 n3        1 1OY     -0.815200
     12 C2         -0.2660    0.2220    1.2250 c3        1 1OY     -0.036400
     13 C21        -1.3530    1.1750    0.8720 ca        1 1OY     -0.158300
     14 C26        -1.1720    2.2180   -0.0390 ca        1 1OY     -0.095000
     15 C25        -2.1920    3.1360   -0.2900 ca        1 1OY     -0.108000
     16 C22        -2.6290    1.0160    1.4720 ca        1 1OY      0.092900
     17 F2         -2.8560   -0.0660    2.2630 f         1 1OY     -0.145900
     18 C23        -3.6570    1.9510    1.2260 ca        1 1OY     -0.008600
     19 CL2        -5.1710    1.8050    1.9630 cl        1 1OY     -0.025400
     20 C24        -3.4210    3.0180    0.3500 ca        1 1OY     -0.079000
     21 C3          0.9920    0.7900    1.9540 c3        1 1OY      0.073400
     22 C37         1.2310    2.1760    1.5730 c1        1 1OY      0.202700
     23 N37         1.4510    3.2760    1.2640 n1        1 1OY     -0.327800
     24 C31         0.8830    0.6420    3.4480 ca        1 1OY     -0.132300
     25 C32         0.6830   -0.6160    4.0670 ca        1 1OY      0.128900
     26 F3          0.5410   -1.7500    3.3310 f         1 1OY     -0.154900
     27 C33         0.6150   -0.7390    5.4660 ca        1 1OY     -0.154000
     28 C36         0.9960    1.7600    4.2860 ca        1 1OY     -0.080000
     29 C35         0.9270    1.6510    5.6720 ca        1 1OY     -0.126000
     30 C34         0.7390    0.3980    6.2640 ca        1 1OY      0.054400
     31 CL3         0.6590    0.2550    7.9470 cl        1 1OY     -0.038400
     32 C4          2.1720   -0.1030    1.3840 c3        1 1OY      0.187500
     33 C41         3.4860    0.6740    1.3210 c3        1 1OY     -0.086400
     34 C42         4.7550   -0.1790    1.2580 c3        1 1OY     -0.052000
     35 C45         5.9390    0.7850    1.2060 c3        1 1OY     -0.093100
     36 C44         4.8910   -1.0500    2.4970 c3        1 1OY     -0.093100
     37 C43         4.7840   -1.0530    0.0150 c3        1 1OY     -0.093100
     38 H1          0.0230    0.0730   -0.9780 h1        1 1OY      0.094700
     39 H2         -2.2490   -0.9590   -0.0330 hn        1 1OY      0.458300
     40 H3         -2.5180   -2.4020   -1.9190 hx        1 1OY      0.122700
     41 H4         -2.0970   -3.8290   -0.8500 hx        1 1OY      0.122700
     42 H5         -4.5370   -1.9680   -0.2800 hc        1 1OY      0.073200
     43 H6         -4.1990   -3.6250    0.3950 hc        1 1OY      0.073200
     44 H7         -4.3580   -4.5820   -1.9610 h1        1 1OY      0.064700
     45 H8         -5.2840   -2.9750   -3.4660 ho        1 1OY      0.450000
     46 H9         -6.4000   -4.5430   -0.5090 h1        1 1OY      0.043700
     47 H10        -6.7640   -2.8210   -1.0300 h1        1 1OY      0.043700
     48 H11        -7.8370   -4.3950   -2.3410 ho        1 1OY      0.429000
     49 H12         2.2420   -0.3400   -0.6790 hn        1 1OY      0.413800
     50 H14        -0.6820   -0.5510    1.9350 hc        1 1OY      0.085700
     51 H15        -0.2130    2.3270   -0.5720 ha        1 1OY      0.155000
     52 H16        -2.0180    3.9670   -0.9950 ha        1 1OY      0.170000
     53 H17        -4.2160    3.7610    0.1670 ha        1 1OY      0.177000
     54 H18         0.4680   -1.7360    5.9140 ha        1 1OY      0.175000
     55 H19         1.1460    2.7680    3.8660 ha        1 1OY      0.159000
     56 H20         1.0220    2.5530    6.2980 ha        1 1OY      0.170000
     57 H21         2.3050   -0.9810    2.0840 h1        1 1OY      0.104700
     58 H22         3.4830    1.3720    0.4410 hc        1 1OY      0.061700
     59 H23         3.5440    1.3030    2.2520 hc        1 1OY      0.061700
     60 H24         5.8810    1.4250    0.2940 hc        1 1OY      0.041922
     61 H25         6.8980    0.2120    1.1770 hc        1 1OY      0.041922
     62 H26         5.9460    1.4420    2.1080 hc        1 1OY      0.041922
     63 H27         5.9010   -1.5280    2.5130 hc        1 1OY      0.041922
     64 H28         4.7770   -0.4360    3.4220 hc        1 1OY      0.041922
     65 H29         4.1260   -1.8630    2.5050 hc        1 1OY      0.041922
     66 H30         4.0620   -1.9000    0.1020 hc        1 1OY      0.041922
     67 H31         4.5410   -0.4530   -0.8940 hc        1 1OY      0.041922
     68 H32         5.8060   -1.4870   -0.1180 hc        1 1OY      0.041922
     69 H112       -2.0080   -2.2150    1.0180 hn        1 1OY      0.458300
@<TRIPOS>BOND
     1    1    2 1   
     2    1   11 1   
     3    1   12 1   
     4    1   38 1   
     5    2    3 1   
     6    2   10 2   
     7    3    4 1   
     8    3   39 1   
     9    3   69 1   
    10    4    5 1   
    11    4   40 1   
    12    4   41 1   
    13    5    6 1   
    14    5   42 1   
    15    5   43 1   
    16    6    7 1   
    17    6    8 1   
    18    6   44 1   
    19    7   45 1   
    20    8    9 1   
    21    8   46 1   
    22    8   47 1   
    23    9   48 1   
    24   11   32 1   
    25   11   49 1   
    26   12   13 1   
    27   12   21 1   
    28   12   50 1   
    29   13   14 ar  
    30   13   16 ar  
    31   14   15 ar  
    32   14   51 1   
    33   15   20 ar  
    34   15   52 1   
    35   16   17 1   
    36   16   18 ar  
    37   18   19 1   
    38   18   20 ar  
    39   20   53 1   
    40   21   22 1   
    41   21   24 1   
    42   21   32 1   
    43   22   23 3   
    44   24   25 ar  
    45   24   28 ar  
    46   25   26 1   
    47   25   27 ar  
    48   27   30 ar  
    49   27   54 1   
    50   28   29 ar  
    51   28   55 1   
    52   29   30 ar  
    53   29   56 1   
    54   30   31 1   
    55   32   33 1   
    56   32   57 1   
    57   33   34 1   
    58   33   58 1   
    59   33   59 1   
    60   34   35 1   
    61   34   36 1   
    62   34   37 1   
    63   35   60 1   
    64   35   61 1   
    65   35   62 1   
    66   36   63 1   
    67   36   64 1   
    68   36   65 1   
    69   37   66 1   
    70   37   67 1   
    71   37   68 1   
@<TRIPOS>SUBSTRUCTURE
     1 1OY         1 TEMP              0 ****  ****    0 ROOT
