@<TRIPOS>MOLECULE
1OY
   68    70     1     0     0
SMALL
bcc


@<TRIPOS>ATOM
      1 C1          0.6450    0.2470    1.6740 c3        1 1OY      0.095500
      2 C10         2.0670    0.3410    1.0760 c         1 1OY      0.663100
      3 N11         2.3410   -0.3600   -0.0750 n         1 1OY     -0.545900
      4 C12         3.6650   -0.4360   -0.6300 c3        1 1OY      0.083000
      5 C13         4.3680   -1.7780   -0.4150 c3        1 1OY     -0.137400
      6 C14         5.6800   -1.8090   -1.1870 c3        1 1OY      0.138100
      7 O14         5.4810   -1.7430   -2.5880 oh        1 1OY     -0.593800
      8 C15         6.4790   -3.0750   -0.8470 c3        1 1OY      0.096400
      9 O15         6.9340   -2.9380    0.4870 oh        1 1OY     -0.594800
     10 O10         2.9010    1.0840    1.6290 o         1 1OY     -0.605100
     11 N1          0.2270   -1.1410    1.8570 n3        1 1OY     -0.808200
     12 C2         -0.3830    0.9740    0.7600 c3        1 1OY     -0.022400
     13 C21        -0.6880    2.3640    1.2020 ca        1 1OY     -0.110300
     14 C26        -0.9240    2.6820    2.5420 ca        1 1OY     -0.091000
     15 C25        -1.1890    3.9920    2.9380 ca        1 1OY     -0.129000
     16 C22        -0.7130    3.4090    0.2430 ca        1 1OY      0.147900
     17 F2         -0.4730    3.1330   -1.0600 f         1 1OY     -0.123900
     18 C23        -0.9860    4.7340    0.6500 ca        1 1OY     -0.021600
     19 CL2        -1.0300    6.0060   -0.4740 cl        1 1OY     -0.065400
     20 C24        -1.2210    5.0170    1.9970 ca        1 1OY     -0.094000
     21 C3         -1.6150    0.0160    0.7070 c3        1 1OY      0.045400
     22 C37        -2.5850    0.3940    1.7290 c1        1 1OY      0.223700
     23 N37        -3.3400    0.6780    2.5680 n1        1 1OY     -0.367800
     24 C31        -2.2420   -0.0250   -0.6580 ca        1 1OY     -0.105300
     25 C32        -1.5140   -0.4170   -1.8090 ca        1 1OY      0.143900
     26 F3         -0.2070   -0.7720   -1.7370 f         1 1OY     -0.138900
     27 C33        -2.1230   -0.4500   -3.0790 ca        1 1OY     -0.160000
     28 C36        -3.5850    0.3340   -0.8380 ca        1 1OY     -0.088000
     29 C35        -4.1960    0.3040   -2.0870 ca        1 1OY     -0.134000
     30 C34        -3.4620   -0.0910   -3.2090 ca        1 1OY      0.046400
     31 CL3        -4.1990   -0.1330   -4.7360 cl        1 1OY     -0.071400
     32 C4         -1.0010   -1.3890    1.1060 c3        1 1OY      0.175500
     33 C41        -2.0370   -2.2700    1.8020 c3        1 1OY     -0.082400
     34 C42        -1.7560   -3.7730    1.7670 c3        1 1OY     -0.051000
     35 C45        -2.8660   -4.4610    2.5590 c3        1 1OY     -0.089100
     36 C44        -1.7830   -4.3000    0.3400 c3        1 1OY     -0.089100
     37 C43        -0.4200   -4.1100    2.4080 c3        1 1OY     -0.089100
     38 H1          0.7240    0.7770    2.6700 h1        1 1OY      0.084700
     39 H2          1.6840   -1.0370   -0.3860 hn        1 1OY      0.316500
     40 H3          3.5870   -0.2530   -1.7420 h1        1 1OY      0.070700
     41 H4          4.2970    0.3840   -0.1810 h1        1 1OY      0.070700
     42 H5          4.5950   -1.9330    0.6720 hc        1 1OY      0.058200
     43 H6          3.7140   -2.6230   -0.7540 hc        1 1OY      0.058200
     44 H7          6.2990   -0.8970   -0.9490 h1        1 1OY      0.096700
     45 H8          4.8870   -2.4630   -2.8310 ho        1 1OY      0.395000
     46 H9          5.8290   -3.9860   -0.9390 h1        1 1OY      0.028700
     47 H10         7.3460   -3.1700   -1.5540 h1        1 1OY      0.028700
     48 H11         7.5310   -3.6770    0.6510 ho        1 1OY      0.404000
     49 H12         0.1130   -1.3550    2.8300 hn        1 1OY      0.375800
     50 H14         0.0430    1.0230   -0.2840 hc        1 1OY      0.102700
     51 H15        -0.9040    1.8900    3.3070 ha        1 1OY      0.143000
     52 H16        -1.3720    4.2160    3.9990 ha        1 1OY      0.147000
     53 H17        -1.4310    6.0510    2.3120 ha        1 1OY      0.154000
     54 H18        -1.5260   -0.7550   -3.9520 ha        1 1OY      0.168000
     55 H19        -4.1970    0.6580    0.0190 ha        1 1OY      0.155000
     56 H20        -5.2540    0.5940   -2.1870 ha        1 1OY      0.158000
     57 H21        -0.6810   -1.8990    0.1500 h1        1 1OY      0.083700
     58 H22        -2.1500   -1.9570    2.8750 hc        1 1OY      0.054700
     59 H23        -3.0250   -2.0950    1.2950 hc        1 1OY      0.054700
     60 H24        -2.8550   -4.1190    3.6220 hc        1 1OY      0.037589
     61 H25        -3.8640   -4.2240    2.1170 hc        1 1OY      0.037589
     62 H26        -2.7230   -5.5670    2.5410 hc        1 1OY      0.037589
     63 H27        -1.7250   -5.4150    0.3460 hc        1 1OY      0.037589
     64 H28        -2.7280   -3.9960   -0.1700 hc        1 1OY      0.037589
     65 H29        -0.9170   -3.9110   -0.2470 hc        1 1OY      0.037589
     66 H30        -0.3300   -3.6180    3.4060 hc        1 1OY      0.037589
     67 H31        -0.3340   -5.2150    2.5500 hc        1 1OY      0.037589
     68 H32         0.4270   -3.7760    1.7620 hc        1 1OY      0.037589
@<TRIPOS>BOND
     1    1    2 1   
     2    1   11 1   
     3    1   12 1   
     4    1   38 1   
     5    2    3 1   
     6    2   10 2   
     7    3    4 1   
     8    3   39 1   
     9    4    5 1   
    10    4   40 1   
    11    4   41 1   
    12    5    6 1   
    13    5   42 1   
    14    5   43 1   
    15    6    7 1   
    16    6    8 1   
    17    6   44 1   
    18    7   45 1   
    19    8    9 1   
    20    8   46 1   
    21    8   47 1   
    22    9   48 1   
    23   11   32 1   
    24   11   49 1   
    25   12   13 1   
    26   12   21 1   
    27   12   50 1   
    28   13   14 ar  
    29   13   16 ar  
    30   14   15 ar  
    31   14   51 1   
    32   15   20 ar  
    33   15   52 1   
    34   16   17 1   
    35   16   18 ar  
    36   18   19 1   
    37   18   20 ar  
    38   20   53 1   
    39   21   22 1   
    40   21   24 1   
    41   21   32 1   
    42   22   23 3   
    43   24   25 ar  
    44   24   28 ar  
    45   25   26 1   
    46   25   27 ar  
    47   27   30 ar  
    48   27   54 1   
    49   28   29 ar  
    50   28   55 1   
    51   29   30 ar  
    52   29   56 1   
    53   30   31 1   
    54   32   33 1   
    55   32   57 1   
    56   33   34 1   
    57   33   58 1   
    58   33   59 1   
    59   34   35 1   
    60   34   36 1   
    61   34   37 1   
    62   35   60 1   
    63   35   61 1   
    64   35   62 1   
    65   36   63 1   
    66   36   64 1   
    67   36   65 1   
    68   37   66 1   
    69   37   67 1   
    70   37   68 1   
@<TRIPOS>SUBSTRUCTURE
     1 1OY         1 TEMP              0 ****  ****    0 ROOT
