@<TRIPOS>MOLECULE
1P0
   52    54     1     0     0
SMALL
bcc


@<TRIPOS>ATOM
      1 OAA         0.2970    0.6690    1.7500 oh        1 1P0     -0.602800
      2 CAG         1.5740    0.1440    1.4210 c3        1 1P0      0.113400
      3 CAJ         2.5120    0.6490    2.5290 c3        1 1P0      0.049300
      4 NAZ         3.8950    0.2850    2.3170 na        1 1P0      0.042400
      5 CAD         4.9410    1.1870    2.0720 cc        1 1P0     -0.188600
      6 NAS         4.3760   -0.9830    2.3010 nc        1 1P0     -0.186800
      7 NAP         5.6260   -0.9680    2.0790 nd        1 1P0     -0.371000
      8 CAV         6.0750    0.3670    1.9230 cd        1 1P0      0.227600
      9 CAM         7.4700    0.7700    1.5920 c3        1 1P0      0.194500
     10 NAY         8.5160    0.5540    2.5580 n3        1 1P0     -0.779600
     11 CAO         8.7380   -0.7900    3.0270 c3        1 1P0      0.194500
     12 CAX         8.0850   -1.2420    4.2870 cc        1 1P0      0.227600
     13 CAF         7.1170   -2.2500    4.4550 cd        1 1P0     -0.188600
     14 NAR         8.3930   -0.7620    5.5840 nc        1 1P0     -0.371000
     15 NAU         7.7050   -1.3830    6.4520 nd        1 1P0     -0.186800
     16 NBB         6.9060   -2.2940    5.8410 na        1 1P0      0.042400
     17 CAL         5.9970   -3.1910    6.5190 c3        1 1P0      0.049300
     18 CAI         6.7080   -4.2010    7.4350 c3        1 1P0      0.113400
     19 OAC         5.6760   -5.0390    7.9310 oh        1 1P0     -0.602800
     20 CAN         8.8620    1.6430    3.4360 c3        1 1P0      0.194500
     21 CAW         7.8120    2.2420    4.3050 cc        1 1P0      0.227600
     22 CAE         7.7430    2.2510    5.7120 cd        1 1P0     -0.188600
     23 NAQ         6.7030    2.9940    3.8460 nc        1 1P0     -0.371000
     24 NAT         6.0240    3.4150    4.8330 nd        1 1P0     -0.186800
     25 NBA         6.5900    2.9990    5.9930 na        1 1P0      0.042400
     26 CAK         6.0950    3.3020    7.3170 c3        1 1P0      0.049300
     27 CAH         6.1400    4.8010    7.6550 c3        1 1P0      0.113400
     28 OAB         5.7090    4.8890    9.0040 oh        1 1P0     -0.602800
     29 H1         -0.3250    0.2880    1.1200 ho        1 1P0      0.410000
     30 H2          1.5450   -0.9770    1.4020 h1        1 1P0      0.041200
     31 H3          1.8940    0.5250    0.4140 h1        1 1P0      0.041200
     32 H4          2.1640    0.2240    3.5140 h1        1 1P0      0.080200
     33 H5          2.4490    1.7720    2.5830 h1        1 1P0      0.080200
     34 H6          4.8100    2.2680    2.0450 h4        1 1P0      0.208000
     35 H7          7.7740    0.2010    0.6620 h1        1 1P0      0.061700
     36 H8          7.4500    1.8710    1.3390 h1        1 1P0      0.061700
     37 H10         8.4200   -1.5010    2.2100 h1        1 1P0      0.061700
     38 H11         9.8560   -0.8960    3.1710 h1        1 1P0      0.061700
     39 H12         6.5840   -2.8810    3.7450 h4        1 1P0      0.208000
     40 H13         5.4100   -3.7500    5.7380 h1        1 1P0      0.080200
     41 H14         5.2770   -2.5870    7.1420 h1        1 1P0      0.080200
     42 H15         7.2280   -3.6760    8.2790 h1        1 1P0      0.041200
     43 H16         7.4540   -4.8130    6.8620 h1        1 1P0      0.041200
     44 H17         6.0870   -5.6220    8.5810 ho        1 1P0      0.410000
     45 H18         9.2640    2.4690    2.7750 h1        1 1P0      0.061700
     46 H19         9.6980    1.2950    4.1110 h1        1 1P0      0.061700
     47 H20         8.3690    1.7980    6.4790 h4        1 1P0      0.208000
     48 H21         6.7210    2.7370    8.0630 h1        1 1P0      0.080200
     49 H22         5.0290    2.9470    7.4040 h1        1 1P0      0.080200
     50 H23         7.1820    5.2070    7.5610 h1        1 1P0      0.041200
     51 H24         5.4530    5.3820    6.9840 h1        1 1P0      0.041200
     52 H25         5.6400    5.8290    9.2080 ho        1 1P0      0.410000
@<TRIPOS>BOND
     1    1    2 1   
     2    1   29 1   
     3    2    3 1   
     4    2   30 1   
     5    2   31 1   
     6    3    4 1   
     7    3   32 1   
     8    3   33 1   
     9    4    5 1   
    10    4    6 1   
    11    5    8 2   
    12    5   34 1   
    13    6    7 2   
    14    7    8 1   
    15    8    9 1   
    16    9   10 1   
    17    9   35 1   
    18    9   36 1   
    19   10   11 1   
    20   10   20 1   
    21   11   12 1   
    22   11   37 1   
    23   11   38 1   
    24   12   13 2   
    25   12   14 1   
    26   13   16 1   
    27   13   39 1   
    28   14   15 2   
    29   15   16 1   
    30   16   17 1   
    31   17   18 1   
    32   17   40 1   
    33   17   41 1   
    34   18   19 1   
    35   18   42 1   
    36   18   43 1   
    37   19   44 1   
    38   20   21 1   
    39   20   45 1   
    40   20   46 1   
    41   21   22 2   
    42   21   23 1   
    43   22   25 1   
    44   22   47 1   
    45   23   24 2   
    46   24   25 1   
    47   25   26 1   
    48   26   27 1   
    49   26   48 1   
    50   26   49 1   
    51   27   28 1   
    52   27   50 1   
    53   27   51 1   
    54   28   52 1   
@<TRIPOS>SUBSTRUCTURE
     1 1P0         1 TEMP              0 ****  ****    0 ROOT
