@<TRIPOS>MOLECULE
1P0
   53    55     1     0     0
SMALL
bcc


@<TRIPOS>ATOM
      1 OAA         0.0810    0.6480   -0.4680 oh        1 1P0     -0.597800
      2 CAG         1.3290    0.0420   -0.1790 c3        1 1P0      0.120400
      3 CAJ         1.7800    0.7030    1.1340 c3        1 1P0      0.034300
      4 NAZ         3.1470    0.3790    1.5060 na        1 1P0      0.072400
      5 CAD         4.1770    1.3050    1.6750 cc        1 1P0     -0.137600
      6 NAS         3.6140   -0.8760    1.7350 nc        1 1P0     -0.133800
      7 NAP         4.8450   -0.8350    2.0310 nd        1 1P0     -0.364000
      8 CAV         5.2930    0.5100    2.0180 cd        1 1P0      0.141600
      9 CAM         6.6800    0.9370    2.2760 c3        1 1P0      0.123500
     10 NAY         7.1830    0.4490    3.6110 nx        1 1P0     -0.685400
     11 CAO         7.7930   -0.9240    3.4880 c3        1 1P0      0.123500
     12 CAX         7.6110   -1.7220    4.7140 cc        1 1P0      0.141600
     13 CAF         7.0450   -3.0090    4.8510 cd        1 1P0     -0.137600
     14 NAR         8.0330   -1.3240    6.0080 nc        1 1P0     -0.364000
     15 NAU         7.7670   -2.2410    6.8420 nd        1 1P0     -0.133800
     16 NBB         7.1720   -3.2870    6.2110 na        1 1P0      0.072400
     17 CAL         6.7400   -4.5130    6.8610 c3        1 1P0      0.034300
     18 CAI         7.8840   -5.2770    7.5510 c3        1 1P0      0.120400
     19 OAC         7.3070   -6.5170    7.9190 oh        1 1P0     -0.597800
     20 CAN         8.1670    1.4250    4.2060 c3        1 1P0      0.123500
     21 CAW         7.4980    2.4640    5.0090 cc        1 1P0      0.141600
     22 CAE         7.7450    2.8360    6.3490 cd        1 1P0     -0.137600
     23 NAQ         6.4800    3.3260    4.5300 nc        1 1P0     -0.364000
     24 NAT         6.1370    4.1310    5.4480 nd        1 1P0     -0.133800
     25 NBA         6.8620    3.8920    6.5720 na        1 1P0      0.072400
     26 CAK         6.7360    4.6330    7.8160 c3        1 1P0      0.034300
     27 CAH         7.0320    6.1350    7.6660 c3        1 1P0      0.120400
     28 OAB         7.0710    6.6200    8.9960 oh        1 1P0     -0.597800
     29 H1         -0.3180    0.1380   -1.1840 ho        1 1P0      0.425000
     30 H2          1.2180   -1.0660   -0.0490 h1        1 1P0      0.047200
     31 H3          2.0530    0.2500   -1.0120 h1        1 1P0      0.047200
     32 H4          1.7040    1.8230    1.0300 h1        1 1P0      0.093367
     33 H5          1.0910    0.3710    1.9640 h1        1 1P0      0.093367
     34 H6          4.0540    2.3820    1.5530 h4        1 1P0      0.216000
     35 H7          7.3770    0.5420    1.4800 hx        1 1P0      0.112700
     36 H8          6.7220    2.0660    2.2610 hx        1 1P0      0.112700
     37 H10         8.8900   -0.7940    3.2530 hx        1 1P0      0.112700
     38 H11         7.3030   -1.4650    2.6250 hx        1 1P0      0.112700
     39 H12         6.5920   -3.6910    4.1290 h4        1 1P0      0.216000
     40 H13         6.2730   -5.1760    6.0790 h1        1 1P0      0.093367
     41 H14         5.9570   -4.2580    7.6320 h1        1 1P0      0.093367
     42 H15         8.2470   -4.7180    8.4530 h1        1 1P0      0.047200
     43 H16         8.7420   -5.4510    6.8480 h1        1 1P0      0.047200
     44 H17         7.9350   -6.9530    8.5090 ho        1 1P0      0.425000
     45 H18         8.7500    1.8870    3.3560 hx        1 1P0      0.112700
     46 H19         8.8860    0.8590    4.8690 hx        1 1P0      0.112700
     47 H20         8.4340    2.4480    7.1020 h4        1 1P0      0.216000
     48 H21         7.4550    4.1880    8.5600 h1        1 1P0      0.093367
     49 H22         5.6860    4.5060    8.2080 h1        1 1P0      0.093367
     50 H23         6.2240    6.6420    7.0760 h1        1 1P0      0.047200
     51 H24         8.0230    6.3100    7.1690 h1        1 1P0      0.047200
     52 H25         7.0750    7.5840    8.9420 ho        1 1P0      0.425000
     53 HAY1        6.3760    0.3830    4.2490 hn        1 1P0      0.464800
@<TRIPOS>BOND
     1    1    2 1   
     2    1   29 1   
     3    2    3 1   
     4    2   30 1   
     5    2   31 1   
     6    3    4 1   
     7    3   32 1   
     8    3   33 1   
     9    4    5 1   
    10    4    6 1   
    11    5    8 2   
    12    5   34 1   
    13    6    7 2   
    14    7    8 1   
    15    8    9 1   
    16    9   10 1   
    17    9   35 1   
    18    9   36 1   
    19   10   11 1   
    20   10   20 1   
    21   10   53 1   
    22   11   12 1   
    23   11   37 1   
    24   11   38 1   
    25   12   13 2   
    26   12   14 1   
    27   13   16 1   
    28   13   39 1   
    29   14   15 2   
    30   15   16 1   
    31   16   17 1   
    32   17   18 1   
    33   17   40 1   
    34   17   41 1   
    35   18   19 1   
    36   18   42 1   
    37   18   43 1   
    38   19   44 1   
    39   20   21 1   
    40   20   45 1   
    41   20   46 1   
    42   21   22 2   
    43   21   23 1   
    44   22   25 1   
    45   22   47 1   
    46   23   24 2   
    47   24   25 1   
    48   25   26 1   
    49   26   27 1   
    50   26   48 1   
    51   26   49 1   
    52   27   28 1   
    53   27   50 1   
    54   27   51 1   
    55   28   52 1   
@<TRIPOS>SUBSTRUCTURE
     1 1P0         1 TEMP              0 ****  ****    0 ROOT
