@<TRIPOS>MOLECULE
1P3
   25    25     1     0     0
SMALL
bcc


@<TRIPOS>ATOM
      1 C2          1.3660    0.0570    2.8470 c3        1 1P3     -0.089100
      2 C3          0.4760    0.3370    1.6590 c3        1 1P3     -0.090700
      3 C20         0.8580   -0.5980    0.4980 c3        1 1P3      0.080000
      4 C4         -0.9900    0.1560    2.0220 c3        1 1P3     -0.075400
      5 C5         -1.8770    0.3170    0.8070 c3        1 1P3     -0.103400
      6 N1         -0.0240   -0.5030   -0.6480 n         1 1P3     -0.458800
      7 C6         -1.4280   -0.6110   -0.3260 c3        1 1P3      0.086000
      8 C7         -0.5310    0.3380   -2.9590 c3        1 1P3     -0.170100
      9 C10         0.4270    0.1130   -1.8150 c         1 1P3      0.652100
     10 O11         1.6320    0.4140   -1.9420 o         1 1P3     -0.607100
     11 H2C1        2.4380    0.2110    2.5740 hc        1 1P3      0.037367
     12 H2C2        1.1110    0.7440    3.6890 hc        1 1P3      0.037367
     13 H2C3        1.2390   -0.9960    3.2000 hc        1 1P3      0.037367
     14 H3          0.6350    1.4020    1.3290 hc        1 1P3      0.057700
     15 H201        1.9150   -0.3730    0.1770 h1        1 1P3      0.065700
     16 H202        0.8170   -1.6640    0.8650 h1        1 1P3      0.065700
     17 H4C1       -1.1400   -0.8640    2.4640 hc        1 1P3      0.043700
     18 H4C2       -1.2780    0.9060    2.8030 hc        1 1P3      0.043700
     19 H5C1       -2.9370    0.0650    1.0710 hc        1 1P3      0.047700
     20 H5C2       -1.8560    1.3820    0.4590 hc        1 1P3      0.047700
     21 H6C1       -1.6140   -1.6780   -0.0060 h1        1 1P3      0.049200
     22 H6C2       -2.0600   -0.4130   -1.2340 h1        1 1P3      0.049200
     23 H7C1        0.0500    0.7130   -3.8370 hc        1 1P3      0.064700
     24 H7C2       -1.0420   -0.6130   -3.2450 hc        1 1P3      0.064700
     25 H7C3       -1.2960    1.1020   -2.6810 hc        1 1P3      0.064700
@<TRIPOS>BOND
     1    1    2 1   
     2    1   11 1   
     3    1   12 1   
     4    1   13 1   
     5    2    3 1   
     6    2    4 1   
     7    2   14 1   
     8    3    6 1   
     9    3   15 1   
    10    3   16 1   
    11    4    5 1   
    12    4   17 1   
    13    4   18 1   
    14    5    7 1   
    15    5   19 1   
    16    5   20 1   
    17    6    7 1   
    18    6    9 1   
    19    7   21 1   
    20    7   22 1   
    21    8    9 1   
    22    8   23 1   
    23    8   24 1   
    24    8   25 1   
    25    9   10 2   
@<TRIPOS>SUBSTRUCTURE
     1 1P3         1 TEMP              0 ****  ****    0 ROOT
