@<TRIPOS>MOLECULE
1P3
   25    25     1     0     0
SMALL
bcc


@<TRIPOS>ATOM
      1 C2          0.0270    0.0100    0.0470 c3        1 1P3     -0.089100
      2 C3          1.5390   -0.0030    0.0390 c3        1 1P3     -0.090700
      3 C20         2.0600   -0.1200    1.4810 c3        1 1P3      0.080000
      4 C4          2.0680   -1.1490   -0.8090 c3        1 1P3     -0.075400
      5 C5          3.5760   -1.2410   -0.7240 c3        1 1P3     -0.103400
      6 N1          3.4980   -0.2750    1.5760 n         1 1P3     -0.458800
      7 C6          4.0380   -1.3190    0.7350 c3        1 1P3      0.086000
      8 C7          5.7810    0.6760    2.0080 c3        1 1P3     -0.170100
      9 C10         4.2760    0.7850    2.0390 c         1 1P3      0.652100
     10 O11         3.7330    1.7900    2.5430 o         1 1P3     -0.607100
     11 H2C1       -0.3760   -0.9370    0.4810 hc        1 1P3      0.037367
     12 H2C2       -0.3620    0.1150   -0.9940 hc        1 1P3      0.037367
     13 H2C3       -0.3490    0.8670    0.6560 hc        1 1P3      0.037367
     14 H3          1.9070    0.9670   -0.3990 hc        1 1P3      0.057700
     15 H201        1.7430    0.7920    2.0620 h1        1 1P3      0.065700
     16 H202        1.5930   -1.0280    1.9610 h1        1 1P3      0.065700
     17 H4C1        1.6130   -2.1130   -0.4570 hc        1 1P3      0.043700
     18 H4C2        1.7570   -1.0020   -1.8760 hc        1 1P3      0.043700
     19 H5C1        4.0390   -0.3510   -1.2240 hc        1 1P3      0.047700
     20 H5C2        3.9350   -2.1580   -1.2580 hc        1 1P3      0.047700
     21 H6C1        5.1620   -1.3100    0.7640 h1        1 1P3      0.049200
     22 H6C2        3.6920   -2.3040    1.1650 h1        1 1P3      0.049200
     23 H7C1        6.2100    1.5600    2.5410 hc        1 1P3      0.064700
     24 H7C2        6.1260   -0.2550    2.5180 hc        1 1P3      0.064700
     25 H7C3        6.1490    0.6800    0.9530 hc        1 1P3      0.064700
@<TRIPOS>BOND
     1    1    2 1   
     2    1   11 1   
     3    1   12 1   
     4    1   13 1   
     5    2    3 1   
     6    2    4 1   
     7    2   14 1   
     8    3    6 1   
     9    3   15 1   
    10    3   16 1   
    11    4    5 1   
    12    4   17 1   
    13    4   18 1   
    14    5    7 1   
    15    5   19 1   
    16    5   20 1   
    17    6    7 1   
    18    6    9 1   
    19    7   21 1   
    20    7   22 1   
    21    8    9 1   
    22    8   23 1   
    23    8   24 1   
    24    8   25 1   
    25    9   10 2   
@<TRIPOS>SUBSTRUCTURE
     1 1P3         1 TEMP              0 ****  ****    0 ROOT
