@<TRIPOS>MOLECULE
1P3
   25    25     1     0     0
SMALL
bcc


@<TRIPOS>ATOM
      1 C2          0.0260    0.0020    0.0490 c3        1 1P3     -0.089100
      2 C3          1.5370   -0.0100    0.0380 c3        1 1P3     -0.090700
      3 C20         2.0620   -0.1120    1.4810 c3        1 1P3      0.080000
      4 C4          2.0660   -1.1640   -0.7990 c3        1 1P3     -0.075400
      5 C5          3.5750   -1.2530   -0.7160 c3        1 1P3     -0.103400
      6 N1          3.5000   -0.2650    1.5740 n         1 1P3     -0.458800
      7 C6          4.0400   -1.3160    0.7420 c3        1 1P3      0.086000
      8 C7          5.7830    0.6920    1.9940 c3        1 1P3     -0.170100
      9 C10         4.2780    0.8000    2.0270 c         1 1P3      0.652100
     10 O11         3.7350    1.8090    2.5220 o         1 1P3     -0.608100
     11 H2C1       -0.3750   -0.9410    0.4940 hc        1 1P3      0.037367
     12 H2C2       -0.3500    0.8640    0.6500 hc        1 1P3      0.037367
     13 H2C3       -0.3650    0.0950   -0.9920 hc        1 1P3      0.037367
     14 H3          1.9040    0.9560   -0.4100 hc        1 1P3      0.057700
     15 H201        1.7450    0.8050    2.0530 h1        1 1P3      0.065700
     16 H202        1.5960   -1.0160    1.9700 h1        1 1P3      0.065700
     17 H4C1        1.6130   -2.1240   -0.4370 hc        1 1P3      0.043700
     18 H4C2        1.7540   -1.0270   -1.8670 hc        1 1P3      0.043700
     19 H5C1        4.0360   -0.3680   -1.2260 hc        1 1P3      0.047700
     20 H5C2        3.9340   -2.1750   -1.2420 hc        1 1P3      0.047700
     21 H6C1        5.1630   -1.3060    0.7690 h1        1 1P3      0.049200
     22 H6C2        3.6960   -2.2970    1.1830 h1        1 1P3      0.049200
     23 H7C1        6.2110    1.5810    2.5190 hc        1 1P3      0.064700
     24 H7C2        6.1490    0.6870    0.9390 hc        1 1P3      0.064700
     25 H7C3        6.1290   -0.2340    2.5120 hc        1 1P3      0.064700
@<TRIPOS>BOND
     1    1    2 1   
     2    1   11 1   
     3    1   12 1   
     4    1   13 1   
     5    2    3 1   
     6    2    4 1   
     7    2   14 1   
     8    3    6 1   
     9    3   15 1   
    10    3   16 1   
    11    4    5 1   
    12    4   17 1   
    13    4   18 1   
    14    5    7 1   
    15    5   19 1   
    16    5   20 1   
    17    6    7 1   
    18    6    9 1   
    19    7   21 1   
    20    7   22 1   
    21    8    9 1   
    22    8   23 1   
    23    8   24 1   
    24    8   25 1   
    25    9   10 2   
@<TRIPOS>SUBSTRUCTURE
     1 1P3         1 TEMP              0 ****  ****    0 ROOT
