@<TRIPOS>MOLECULE
1P3
   25    25     1     0     0
SMALL
bcc


@<TRIPOS>ATOM
      1 C2          0.0250   -0.0080    0.0490 c3        1 1P3     -0.089100
      2 C3          1.5360   -0.0150    0.0380 c3        1 1P3     -0.090700
      3 C20         2.0610   -0.1130    1.4810 c3        1 1P3      0.080000
      4 C4          2.0690   -1.1690   -0.7980 c3        1 1P3     -0.075400
      5 C5          3.5780   -1.2540   -0.7140 c3        1 1P3     -0.103400
      6 N1          3.5000   -0.2620    1.5740 n         1 1P3     -0.458800
      7 C6          4.0430   -1.3120    0.7440 c3        1 1P3      0.086000
      8 C7          5.7800    0.7040    1.9910 c3        1 1P3     -0.170100
      9 C10         4.2750    0.8070    2.0240 c         1 1P3      0.652100
     10 O11         3.7290    1.8150    2.5180 o         1 1P3     -0.608100
     11 H2C1       -0.3540    0.8540    0.6490 hc        1 1P3      0.037367
     12 H2C2       -0.3730   -0.9520    0.4950 hc        1 1P3      0.037367
     13 H2C3       -0.3670    0.0830   -0.9930 hc        1 1P3      0.037367
     14 H3          1.9000    0.9510   -0.4120 hc        1 1P3      0.057700
     15 H201        1.5990   -1.0170    1.9720 h1        1 1P3      0.065700
     16 H202        1.7410    0.8040    2.0510 h1        1 1P3      0.065700
     17 H4C1        1.7560   -1.0350   -1.8650 hc        1 1P3      0.043700
     18 H4C2        1.6190   -2.1300   -0.4330 hc        1 1P3      0.043700
     19 H5C1        4.0360   -0.3680   -1.2250 hc        1 1P3      0.047700
     20 H5C2        3.9390   -2.1750   -1.2380 hc        1 1P3      0.047700
     21 H6C1        5.1660   -1.2990    0.7710 h1        1 1P3      0.049200
     22 H6C2        3.7020   -2.2940    1.1870 h1        1 1P3      0.049200
     23 H7C1        6.2060    1.5950    2.5140 hc        1 1P3      0.064700
     24 H7C2        6.1460    0.6970    0.9360 hc        1 1P3      0.064700
     25 H7C3        6.1290   -0.2200    2.5120 hc        1 1P3      0.064700
@<TRIPOS>BOND
     1    1    2 1   
     2    1   11 1   
     3    1   12 1   
     4    1   13 1   
     5    2    3 1   
     6    2    4 1   
     7    2   14 1   
     8    3    6 1   
     9    3   15 1   
    10    3   16 1   
    11    4    5 1   
    12    4   17 1   
    13    4   18 1   
    14    5    7 1   
    15    5   19 1   
    16    5   20 1   
    17    6    7 1   
    18    6    9 1   
    19    7   21 1   
    20    7   22 1   
    21    8    9 1   
    22    8   23 1   
    23    8   24 1   
    24    8   25 1   
    25    9   10 2   
@<TRIPOS>SUBSTRUCTURE
     1 1P3         1 TEMP              0 ****  ****    0 ROOT
