@<TRIPOS>MOLECULE
1P3
   25    25     1     0     0
SMALL
bcc


@<TRIPOS>ATOM
      1 C2         -2.9380    0.1740   -0.7240 c3        1 1P3     -0.089100
      2 C3         -1.3930    0.1740   -0.7240 c3        1 1P3     -0.090700
      3 C20        -0.8990    0.1740    0.7180 c3        1 1P3      0.080000
      4 C4         -0.9130   -1.0070   -1.4800 c3        1 1P3     -0.075400
      5 C5          0.7190   -0.8800   -1.4260 c3        1 1P3     -0.103400
      6 N1          0.5540    0.1740    0.8040 n         1 1P3     -0.458800
      7 C6          1.1930   -0.8710    0.0190 c3        1 1P3      0.086000
      8 C7          2.8090    1.0320    1.6720 c3        1 1P3     -0.170100
      9 C10         1.2920    1.1220    1.5940 c         1 1P3      0.652100
     10 O11         0.7000    1.9760    2.2310 o         1 1P3     -0.607100
     11 H2C1       -3.2640    0.9990   -0.3160 hc        1 1P3      0.037367
     12 H2C2       -3.2640   -0.5920   -0.2130 hc        1 1P3      0.037367
     13 H2C3       -3.2640    0.1150   -1.6420 hc        1 1P3      0.037367
     14 H3         -1.0760    0.9840   -1.1670 hc        1 1P3      0.057700
     15 H201       -1.2430    0.9690    1.1700 h1        1 1P3      0.065700
     16 H202       -1.2430   -0.6200    1.1700 h1        1 1P3      0.065700
     17 H4C1       -1.2280   -0.9730   -2.4030 hc        1 1P3      0.043700
     18 H4C2       -1.2050   -1.8320   -1.0480 hc        1 1P3      0.043700
     19 H5C1        1.1180   -1.6380   -1.8940 hc        1 1P3      0.047700
     20 H5C2        0.9930   -0.0510   -1.8620 hc        1 1P3      0.047700
     21 H6C1        2.1590   -0.7320    0.0340 h1        1 1P3      0.049200
     22 H6C2        0.9930   -1.7370    0.4230 h1        1 1P3      0.049200
     23 H7C1        3.0660    0.1410    1.9770 hc        1 1P3      0.064700
     24 H7C2        3.1430    1.7000    2.3000 hc        1 1P3      0.064700
     25 H7C3        3.1900    1.1970    0.7880 hc        1 1P3      0.064700
@<TRIPOS>BOND
     1    1    2 1   
     2    1   11 1   
     3    1   12 1   
     4    1   13 1   
     5    2    3 1   
     6    2    4 1   
     7    2   14 1   
     8    3    6 1   
     9    3   15 1   
    10    3   16 1   
    11    4    5 1   
    12    4   17 1   
    13    4   18 1   
    14    5    7 1   
    15    5   19 1   
    16    5   20 1   
    17    6    7 1   
    18    6    9 1   
    19    7   21 1   
    20    7   22 1   
    21    8    9 1   
    22    8   23 1   
    23    8   24 1   
    24    8   25 1   
    25    9   10 2   
@<TRIPOS>SUBSTRUCTURE
     1 1P3         1 TEMP              0 ****  ****    0 ROOT
