@<TRIPOS>MOLECULE
1P4
   62    64     1     0     0
SMALL
bcc


@<TRIPOS>ATOM
      1 OAA        -0.5310   -0.2330    0.6460 oh        1 1P4     -0.593800
      2 CAG         0.8150   -0.4480    0.2630 c3        1 1P4      0.135400
      3 CAJ         1.6590   -0.1380    1.4900 c3        1 1P4     -0.109400
      4 CAM         3.1120   -0.5020    1.2030 c3        1 1P4      0.044300
      5 NBC         4.0140   -0.2250    2.3130 na        1 1P4      0.071400
      6 CAD         4.4670   -1.1670    3.2380 cc        1 1P4     -0.140600
      7 NAV         4.4790    1.0070    2.6470 nc        1 1P4     -0.130800
      8 NAS         5.1890    0.9360    3.6950 nd        1 1P4     -0.366667
      9 CAY         5.2370   -0.4080    4.1460 cd        1 1P4      0.144600
     10 CAP         5.9340   -0.8630    5.3620 c3        1 1P4      0.124500
     11 NBB         7.3760   -0.4220    5.3900 n4        1 1P4     -0.683400
     12 CAR         7.5080    0.9450    6.0130 c3        1 1P4      0.124500
     13 CBA         8.6290    1.7110    5.4390 cc        1 1P4      0.144600
     14 CAF         8.6210    3.0240    4.9200 cd        1 1P4     -0.140600
     15 NAU         9.9660    1.2480    5.3510 nc        1 1P4     -0.366667
     16 NAX        10.6970    2.1540    4.8480 nd        1 1P4     -0.130800
     17 NBE         9.9500    3.2510    4.5610 na        1 1P4      0.071400
     18 CAO        10.4780    4.5030    4.0350 c3        1 1P4      0.044300
     19 CAL        11.1660    5.3670    5.0870 c3        1 1P4     -0.109400
     20 CAI        11.6930    6.6330    4.4260 c3        1 1P4      0.135400
     21 OAC        12.1800    7.4510    5.4750 oh        1 1P4     -0.593800
     22 CAQ         8.2330   -1.4290    6.1150 c3        1 1P4      0.124500
     23 CAZ         8.7310   -2.4840    5.2150 cc        1 1P4      0.144600
     24 CAE        10.0570   -2.9390    5.0430 cd        1 1P4     -0.140600
     25 NAT         7.9170   -3.2800    4.3700 nc        1 1P4     -0.366667
     26 NAW         8.6370   -4.1220    3.7550 nd        1 1P4     -0.130800
     27 NBD         9.9400   -3.9710    4.1120 na        1 1P4      0.071400
     28 CAN        11.0320   -4.8170    3.6500 c3        1 1P4      0.044300
     29 CAK        11.1000   -6.1680    4.3530 c3        1 1P4     -0.109400
     30 CAH        12.2590   -6.9710    3.7800 c3        1 1P4      0.135400
     31 OAB        12.3590   -8.1400    4.5750 oh        1 1P4     -0.593800
     32 H1         -1.0700   -0.3550   -0.1450 ho        1 1P4      0.415000
     33 H2          0.9550   -1.5160   -0.0580 h1        1 1P4      0.028200
     34 H3          1.0930    0.2280   -0.5900 h1        1 1P4      0.028200
     35 H4          1.2640   -0.7190    2.3640 hc        1 1P4      0.077700
     36 H5          1.5620    0.9510    1.7400 hc        1 1P4      0.077700
     37 H6          3.4740    0.0770    0.3050 h1        1 1P4      0.080700
     38 H7          3.1960   -1.6030    0.9790 h1        1 1P4      0.080700
     39 H8          4.2350   -2.2310    3.1870 h4        1 1P4      0.214000
     40 H9          5.8980   -1.9920    5.4010 hx        1 1P4      0.112200
     41 H10         5.4320   -0.4560    6.2880 hx        1 1P4      0.112200
     42 H12         6.5500    1.5180    5.8410 hx        1 1P4      0.112200
     43 H13         7.6480    0.8040    7.1250 hx        1 1P4      0.112200
     44 H14         7.8200    3.7530    4.7850 h4        1 1P4      0.214000
     45 H15        11.2110    4.2570    3.2130 h1        1 1P4      0.080700
     46 H16         9.6090    5.0640    3.5870 h1        1 1P4      0.080700
     47 H17        10.4540    5.6490    5.9050 hc        1 1P4      0.077700
     48 H18        12.0200    4.8150    5.5610 hc        1 1P4      0.077700
     49 H19        10.8720    7.1670    3.8750 h1        1 1P4      0.028200
     50 H20        12.5180    6.3890    3.7040 h1        1 1P4      0.028200
     51 H21        12.5840    8.2240    5.0610 ho        1 1P4      0.415000
     52 H22         9.1170   -0.8930    6.5720 hx        1 1P4      0.112200
     53 H23         7.6120   -1.8720    6.9480 hx        1 1P4      0.112200
     54 H24        11.0030   -2.6190    5.4810 h4        1 1P4      0.214000
     55 H25        11.9870   -4.2440    3.8250 h1        1 1P4      0.080700
     56 H26        10.9070   -4.9770    2.5390 h1        1 1P4      0.080700
     57 H27        10.1470   -6.7420    4.2090 hc        1 1P4      0.077700
     58 H28        11.2520   -6.0400    5.4560 hc        1 1P4      0.077700
     59 H29        13.2170   -6.3860    3.8390 h1        1 1P4      0.028200
     60 H30        12.0620   -7.2410    2.7080 h1        1 1P4      0.028200
     61 H31        13.0430   -8.6910    4.1750 ho        1 1P4      0.415000
     62 HBB1        7.7100   -0.3620    4.4160 hn        1 1P4      0.465800
@<TRIPOS>BOND
     1    1    2 1   
     2    1   32 1   
     3    2    3 1   
     4    2   33 1   
     5    2   34 1   
     6    3    4 1   
     7    3   35 1   
     8    3   36 1   
     9    4    5 1   
    10    4   37 1   
    11    4   38 1   
    12    5    6 1   
    13    5    7 1   
    14    6    9 2   
    15    6   39 1   
    16    7    8 2   
    17    8    9 1   
    18    9   10 1   
    19   10   11 1   
    20   10   40 1   
    21   10   41 1   
    22   11   12 1   
    23   11   22 1   
    24   11   62 1   
    25   12   13 1   
    26   12   42 1   
    27   12   43 1   
    28   13   14 2   
    29   13   15 1   
    30   14   17 1   
    31   14   44 1   
    32   15   16 2   
    33   16   17 1   
    34   17   18 1   
    35   18   19 1   
    36   18   45 1   
    37   18   46 1   
    38   19   20 1   
    39   19   47 1   
    40   19   48 1   
    41   20   21 1   
    42   20   49 1   
    43   20   50 1   
    44   21   51 1   
    45   22   23 1   
    46   22   52 1   
    47   22   53 1   
    48   23   24 2   
    49   23   25 1   
    50   24   27 1   
    51   24   54 1   
    52   25   26 2   
    53   26   27 1   
    54   27   28 1   
    55   28   29 1   
    56   28   55 1   
    57   28   56 1   
    58   29   30 1   
    59   29   57 1   
    60   29   58 1   
    61   30   31 1   
    62   30   59 1   
    63   30   60 1   
    64   31   61 1   
@<TRIPOS>SUBSTRUCTURE
     1 1P4         1 TEMP              0 ****  ****    0 ROOT
