@<TRIPOS>MOLECULE
1P4
   61    63     1     0     0
SMALL
bcc


@<TRIPOS>ATOM
      1 OAA         1.6750   -0.0970   -0.5160 oh        1 1P4     -0.595800
      2 CAG         2.9960   -0.4860   -0.1770 c3        1 1P4      0.133400
      3 CAJ         3.2190   -0.0660    1.2660 c3        1 1P4     -0.106400
      4 CAM         4.6170   -0.4970    1.7010 c3        1 1P4      0.056300
      5 NBC         4.9440   -0.1520    3.0690 na        1 1P4      0.043400
      6 CAD         4.9900   -1.0570    4.1400 cc        1 1P4     -0.188600
      7 NAV         5.1940    1.1010    3.5220 nc        1 1P4     -0.186800
      8 NAS         5.4090    1.0730    4.7740 nd        1 1P4     -0.371000
      9 CAY         5.3030   -0.2550    5.2540 cd        1 1P4      0.228600
     10 CAP         5.4330   -0.6700    6.6780 c3        1 1P4      0.194500
     11 NBB         6.7070   -0.5480    7.3390 n3        1 1P4     -0.779600
     12 CAR         7.3080    0.7590    7.4150 c3        1 1P4      0.194500
     13 CBA         8.2820    1.1800    6.3700 cc        1 1P4      0.228600
     14 CAF         8.1610    2.2320    5.4430 cd        1 1P4     -0.188600
     15 NAU         9.5660    0.6170    6.1710 nc        1 1P4     -0.371000
     16 NAX        10.1710    1.2320    5.2400 nd        1 1P4     -0.186800
     17 NBE         9.3780    2.2160    4.7460 na        1 1P4      0.043400
     18 CAO         9.7530    3.1460    3.7010 c3        1 1P4      0.056300
     19 CAL        10.7740    4.1940    4.1370 c3        1 1P4     -0.106400
     20 CAI        11.0800    5.1080    2.9620 c3        1 1P4      0.133400
     21 OAC        12.0000    6.0810    3.4310 oh        1 1P4     -0.595800
     22 CAQ         7.5780   -1.6950    7.3480 c3        1 1P4      0.194500
     23 CAZ         8.0240   -2.2860    6.0560 cc        1 1P4      0.228600
     24 CAE         9.3340   -2.3700    5.5460 cd        1 1P4     -0.188600
     25 NAT         7.1890   -2.9460    5.1230 nc        1 1P4     -0.371000
     26 NAW         7.8800   -3.3850    4.1530 nd        1 1P4     -0.186800
     27 NBD         9.1860   -3.0650    4.3360 na        1 1P4      0.043400
     28 CAN        10.2690   -3.4360    3.4500 c3        1 1P4      0.056300
     29 CAK        10.6320   -4.9180    3.4960 c3        1 1P4     -0.106400
     30 CAH        11.7780   -5.1790    2.5320 c3        1 1P4      0.133400
     31 OAB        12.0970   -6.5570    2.6430 oh        1 1P4     -0.595800
     32 H1          1.5390   -0.3560   -1.4350 ho        1 1P4      0.403000
     33 H2          3.7320    0.0230   -0.8570 h1        1 1P4      0.021700
     34 H3          3.1080   -1.5980   -0.2900 h1        1 1P4      0.021700
     35 H4          2.4350   -0.5370    1.9150 hc        1 1P4      0.074200
     36 H5          3.1010    1.0460    1.3540 hc        1 1P4      0.074200
     37 H6          5.3790   -0.0160    1.0210 h1        1 1P4      0.065200
     38 H7          4.7140   -1.6160    1.6070 h1        1 1P4      0.065200
     39 H8          4.8330   -2.1290    4.0320 h4        1 1P4      0.206000
     40 H9          4.7010   -0.0480    7.2790 h1        1 1P4      0.060700
     41 H10         5.1110   -1.7500    6.7420 h1        1 1P4      0.060700
     42 H12         7.8420    0.8070    8.4120 h1        1 1P4      0.060700
     43 H13         6.4760    1.5240    7.4240 h1        1 1P4      0.060700
     44 H14         7.3510    2.9260    5.2250 h4        1 1P4      0.206000
     45 H15        10.1750    2.5580    2.8360 h1        1 1P4      0.065200
     46 H16         8.8100    3.6580    3.3570 h1        1 1P4      0.065200
     47 H17        11.7200    3.7050    4.4860 hc        1 1P4      0.074200
     48 H18        10.3800    4.8060    4.9900 hc        1 1P4      0.074200
     49 H19        10.1450    5.6110    2.5950 h1        1 1P4      0.021700
     50 H20        11.5350    4.5260    2.1150 h1        1 1P4      0.021700
     51 H21        12.1990    6.6540    2.6820 ho        1 1P4      0.403000
     52 H22         8.5070   -1.4210    7.9290 h1        1 1P4      0.060700
     53 H23         7.0310   -2.5060    7.9190 h1        1 1P4      0.060700
     54 H24        10.2870   -1.9950    5.9130 h4        1 1P4      0.206000
     55 H25        11.1660   -2.8190    3.7440 h1        1 1P4      0.065200
     56 H26         9.9780   -3.1600    2.3960 h1        1 1P4      0.065200
     57 H27        10.9390   -5.2240    4.5290 hc        1 1P4      0.074200
     58 H28         9.7510   -5.5510    3.2090 hc        1 1P4      0.074200
     59 H29        11.4720   -4.9390    1.4780 h1        1 1P4      0.021700
     60 H30        12.6730   -4.5560    2.8010 h1        1 1P4      0.021700
     61 H31        12.8190   -6.7220    2.0240 ho        1 1P4      0.403000
@<TRIPOS>BOND
     1    1    2 1   
     2    1   32 1   
     3    2    3 1   
     4    2   33 1   
     5    2   34 1   
     6    3    4 1   
     7    3   35 1   
     8    3   36 1   
     9    4    5 1   
    10    4   37 1   
    11    4   38 1   
    12    5    6 1   
    13    5    7 1   
    14    6    9 2   
    15    6   39 1   
    16    7    8 2   
    17    8    9 1   
    18    9   10 1   
    19   10   11 1   
    20   10   40 1   
    21   10   41 1   
    22   11   12 1   
    23   11   22 1   
    24   12   13 1   
    25   12   42 1   
    26   12   43 1   
    27   13   14 2   
    28   13   15 1   
    29   14   17 1   
    30   14   44 1   
    31   15   16 2   
    32   16   17 1   
    33   17   18 1   
    34   18   19 1   
    35   18   45 1   
    36   18   46 1   
    37   19   20 1   
    38   19   47 1   
    39   19   48 1   
    40   20   21 1   
    41   20   49 1   
    42   20   50 1   
    43   21   51 1   
    44   22   23 1   
    45   22   52 1   
    46   22   53 1   
    47   23   24 2   
    48   23   25 1   
    49   24   27 1   
    50   24   54 1   
    51   25   26 2   
    52   26   27 1   
    53   27   28 1   
    54   28   29 1   
    55   28   55 1   
    56   28   56 1   
    57   29   30 1   
    58   29   57 1   
    59   29   58 1   
    60   30   31 1   
    61   30   59 1   
    62   30   60 1   
    63   31   61 1   
@<TRIPOS>SUBSTRUCTURE
     1 1P4         1 TEMP              0 ****  ****    0 ROOT
