@<TRIPOS>MOLECULE
1P5
   55    58     1     0     0
SMALL
bcc


@<TRIPOS>ATOM
      1 N3         -5.2660   -0.9950   -0.3430 n         1 1P5     -0.476800
      2 C4         -6.3920   -0.3660    0.2990 c3        1 1P5      0.092000
      3 C5         -6.9130    0.9140   -0.3410 c3        1 1P5     -0.123600
      4 C6         -3.9620   -0.5090   -0.2050 c         1 1P5      0.654100
      5 C8         -3.6520    0.4790    0.9150 c3        1 1P5     -0.132700
      6 C10        -3.5220   -0.2440    2.2460 c3        1 1P5     -0.072400
      7 C15         0.0380    1.2900    0.3870 ca        1 1P5      0.676200
      8 C17         2.4290    1.2440   -0.1150 ca        1 1P5      0.574100
      9 C21         3.7080    0.5720   -0.1280 cc        1 1P5     -0.393400
     10 C22         3.9550   -0.8220   -0.2400 cd        1 1P5      0.407500
     11 C24         3.6920   -3.0990   -0.4560 cc        1 1P5      0.441200
     12 C26         5.9510   -2.2160   -0.3750 cd        1 1P5      0.007700
     13 C1         -5.6630   -1.3160   -2.8120 c3        1 1P5     -0.123600
     14 C2         -5.5380   -1.9230   -1.4230 c3        1 1P5      0.092000
     15 O7         -3.0710   -0.9320   -0.9660 o         1 1P5     -0.579100
     16 C11        -2.2230   -1.0140    2.3220 c3        1 1P5     -0.087400
     17 C12        -1.0340   -0.0860    2.0860 c3        1 1P5      0.200800
     18 N13        -1.1340    0.6350    0.8290 nh        1 1P5     -0.734300
     19 C14        -2.3980    1.3100    0.5940 c3        1 1P5      0.217800
     20 C16         1.2890    0.5950    0.4030 ca        1 1P5     -0.379600
     21 N18         2.3530    2.5170   -0.6130 nb        1 1P5     -0.764000
     22 C19         1.1270    3.0860   -0.5890 ca        1 1P5      0.664900
     23 N20        -0.0320    2.5670   -0.1200 nb        1 1P5     -0.767000
     24 N23         3.1190   -1.9100   -0.3390 nd        1 1P5     -0.643000
     25 C25         5.1080   -3.3070   -0.4770 cc        1 1P5     -0.324300
     26 N27         5.4010   -0.9570   -0.2570 na        1 1P5      0.062200
     27 N28         6.0340    0.2240   -0.1650 nd        1 1P5     -0.644100
     28 C29         5.0350    1.1900   -0.0770 cc        1 1P5      0.636500
     29 N30         5.2880    2.5260    0.1410 nh        1 1P5     -0.870800
     30 H4         -7.2380   -1.1150    0.3240 h1        1 1P5      0.050700
     31 H4A        -6.1170   -0.1470    1.3710 h1        1 1P5      0.050700
     32 H5         -6.1160    1.6930   -0.4060 hc        1 1P5      0.042867
     33 H5A        -7.2980    0.7210   -1.3710 hc        1 1P5      0.042867
     34 H5B        -7.7500    1.3130    0.2820 hc        1 1P5      0.042867
     35 H8         -4.4950    1.2260    0.9850 hc        1 1P5      0.066700
     36 H10        -3.5570    0.5180    3.0700 hc        1 1P5      0.048200
     37 H10A       -4.3850   -0.9430    2.3960 hc        1 1P5      0.048200
     38 H24         3.0080   -3.9630   -0.5390 h4        1 1P5      0.035100
     39 H26         7.0530   -2.2930   -0.3840 h4        1 1P5      0.181000
     40 H1         -5.8410   -2.1370   -3.5480 hc        1 1P5      0.042867
     41 H1A        -6.5130   -0.5960   -2.8690 hc        1 1P5      0.042867
     42 H1B        -4.7210   -0.7830   -3.0910 hc        1 1P5      0.042867
     43 H2         -4.6920   -2.6710   -1.4420 h1        1 1P5      0.050700
     44 H2A        -6.4880   -2.4770   -1.1750 h1        1 1P5      0.050700
     45 H11        -2.1100   -1.4830    3.3330 hc        1 1P5      0.060200
     46 H11A       -2.2240   -1.8310    1.5530 hc        1 1P5      0.060200
     47 H12        -0.9640    0.6390    2.9510 h1        1 1P5      0.041700
     48 H12A       -0.0960   -0.7090    2.0830 h1        1 1P5      0.041700
     49 H14        -2.4390    1.5890   -0.4980 h1        1 1P5      0.058200
     50 H14A       -2.4640    2.2560    1.2100 h1        1 1P5      0.058200
     51 H16         1.3630   -0.4320    0.7790 ha        1 1P5      0.170000
     52 H19         1.0570    4.1150   -1.0010 h5        1 1P5      0.044100
     53 H25         5.5180   -4.3190   -0.5740 ha        1 1P5      0.162000
     54 HN30        4.5630    3.1520   -0.1290 hn        1 1P5      0.426800
     55 HN3A        6.2120    2.8390   -0.0560 hn        1 1P5      0.426800
@<TRIPOS>BOND
     1    1    2 1   
     2    1    4 1   
     3    1   14 1   
     4    2    3 1   
     5    2   30 1   
     6    2   31 1   
     7    3   32 1   
     8    3   33 1   
     9    3   34 1   
    10    4    5 1   
    11    4   15 2   
    12    5    6 1   
    13    5   19 1   
    14    5   35 1   
    15    6   16 1   
    16    6   36 1   
    17    6   37 1   
    18    7   18 1   
    19    7   20 ar  
    20    7   23 ar  
    21    8    9 1   
    22    8   20 ar  
    23    8   21 ar  
    24    9   10 2   
    25    9   28 1   
    26   10   24 1   
    27   10   26 1   
    28   11   24 2   
    29   11   25 1   
    30   11   38 1   
    31   12   25 2   
    32   12   26 1   
    33   12   39 1   
    34   13   14 1   
    35   13   40 1   
    36   13   41 1   
    37   13   42 1   
    38   14   43 1   
    39   14   44 1   
    40   16   17 1   
    41   16   45 1   
    42   16   46 1   
    43   17   18 1   
    44   17   47 1   
    45   17   48 1   
    46   18   19 1   
    47   19   49 1   
    48   19   50 1   
    49   20   51 1   
    50   21   22 ar  
    51   22   23 ar  
    52   22   52 1   
    53   25   53 1   
    54   26   27 1   
    55   27   28 2   
    56   28   29 1   
    57   29   54 1   
    58   29   55 1   
@<TRIPOS>SUBSTRUCTURE
     1 1P5         1 TEMP              0 ****  ****    0 ROOT
