@<TRIPOS>MOLECULE
1P5
   57    60     1     0     0
SMALL
bcc


@<TRIPOS>ATOM
      1 N3         -0.0320    0.2400    0.5590 n4        1 1P5     -0.609200
      2 C4          1.2960   -0.4680    0.4870 c3        1 1P5      0.113800
      3 C5          2.0650   -0.4290    1.7910 c3        1 1P5     -0.134600
      4 C6         -0.1970    1.1430   -0.6620 c         1 1P5      0.553100
      5 C8          0.4010    2.5250   -0.5190 c3        1 1P5     -0.133700
      6 C10         0.8550    3.0550   -1.8730 c3        1 1P5     -0.080400
      7 C15        -2.8100    4.5170   -0.1360 ca        1 1P5      0.665200
      8 C17        -5.0510    5.4660   -0.2850 ca        1 1P5      0.544100
      9 C21        -6.2500    5.8330   -1.0130 cc        1 1P5     -0.298400
     10 C22        -6.6040    5.5710   -2.3740 cd        1 1P5      0.410500
     11 C24        -6.5710    4.8460   -4.5600 cc        1 1P5      0.478200
     12 C26        -8.5320    6.0770   -3.8060 cd        1 1P5      0.005700
     13 C1         -1.1920   -1.5020    1.9690 c3        1 1P5     -0.134600
     14 C2         -1.1830   -0.7140    0.6780 c3        1 1P5      0.113800
     15 O7         -0.7780    0.6600   -1.6180 o         1 1P5     -0.398100
     16 C11        -0.3120    3.4430   -2.7500 c3        1 1P5     -0.096400
     17 C12        -1.2800    4.3720   -2.0230 c3        1 1P5      0.173800
     18 N13        -1.7220    3.8280   -0.7370 nh        1 1P5     -0.737300
     19 C14        -0.6130    3.4780    0.1410 c3        1 1P5      0.188800
     20 C16        -3.9720    4.8250   -0.9190 ca        1 1P5     -0.349600
     21 N18        -5.0070    5.7770    1.0500 nb        1 1P5     -0.813000
     22 C19        -3.8830    5.4230    1.7090 ca        1 1P5      0.695900
     23 N20        -2.7820    4.8190    1.2020 nb        1 1P5     -0.748000
     24 N23        -5.9530    4.9150   -3.3910 nd        1 1P5     -0.642000
     25 C25        -7.8680    5.4160   -4.8140 cc        1 1P5     -0.249300
     26 N27        -7.9130    6.1700   -2.5560 na        1 1P5      0.074200
     27 N28        -8.3710    6.7560   -1.4560 nd        1 1P5     -0.504100
     28 C29        -7.3860    6.5690   -0.5010 cc        1 1P5      0.399500
     29 N30        -7.5210    7.0750    0.8510 n4        1 1P5     -0.734600
     30 H4          1.1070   -1.5370    0.1800 hx        1 1P5      0.106200
     31 H4A         1.9090    0.0220   -0.3240 hx        1 1P5      0.106200
     32 H5          1.4960   -0.9150    2.6220 hc        1 1P5      0.079367
     33 H5A         3.0210   -0.9960    1.6460 hc        1 1P5      0.079367
     34 H5B         2.3230    0.6160    2.0890 hc        1 1P5      0.079367
     35 H8          1.3020    2.4730    0.1610 hc        1 1P5      0.094700
     36 H10         1.5060    3.9530   -1.6860 hc        1 1P5      0.079700
     37 H10A        1.4830    2.2850   -2.3960 hc        1 1P5      0.079700
     38 H24        -6.0350    4.3140   -5.3720 h4        1 1P5      0.069100
     39 H26        -9.5300    6.5450   -3.9160 h4        1 1P5      0.217000
     40 H1         -0.3070   -2.1810    2.0450 hc        1 1P5      0.079367
     41 H1A        -2.1170   -2.1340    1.9800 hc        1 1P5      0.079367
     42 H1B        -1.2140   -0.8350    2.8650 hc        1 1P5      0.079367
     43 H2         -2.1260   -0.0980    0.5960 hx        1 1P5      0.106200
     44 H2A        -1.1450   -1.4110   -0.2100 hx        1 1P5      0.106200
     45 H11        -0.8530    2.5220   -3.0980 hc        1 1P5      0.082700
     46 H11A        0.0660    3.9790   -3.6620 hc        1 1P5      0.082700
     47 H12        -0.7800    5.3740   -1.8700 h1        1 1P5      0.065700
     48 H12A       -2.1770    4.5270   -2.6840 h1        1 1P5      0.065700
     49 H14        -0.0370    4.3960    0.4630 h1        1 1P5      0.073700
     50 H14A       -1.0220    2.9850    1.0680 h1        1 1P5      0.073700
     51 H16        -4.0220    4.5500   -1.9800 ha        1 1P5      0.191000
     52 H19        -3.8420    5.6640    2.7960 h5        1 1P5      0.072100
     53 H25        -8.3240    5.3230   -5.8130 ha        1 1P5      0.203000
     54 HN30       -7.4860    6.2800    1.5060 hn        1 1P5      0.482133
     55 HN3A       -6.7300    7.7060    1.0480 hn        1 1P5      0.482133
     56 H31        -0.0290    0.8380    1.3950 hn        1 1P5      0.446800
     57 H303       -8.4070    7.5840    0.9710 hn        1 1P5      0.482133
@<TRIPOS>BOND
     1    1    2 1   
     2    1    4 1   
     3    1   14 1   
     4    1   56 1   
     5    2    3 1   
     6    2   30 1   
     7    2   31 1   
     8    3   32 1   
     9    3   33 1   
    10    3   34 1   
    11    4    5 1   
    12    4   15 2   
    13    5    6 1   
    14    5   19 1   
    15    5   35 1   
    16    6   16 1   
    17    6   36 1   
    18    6   37 1   
    19    7   18 1   
    20    7   20 ar  
    21    7   23 ar  
    22    8    9 1   
    23    8   20 ar  
    24    8   21 ar  
    25    9   10 2   
    26    9   28 1   
    27   10   24 1   
    28   10   26 1   
    29   11   24 2   
    30   11   25 1   
    31   11   38 1   
    32   12   25 2   
    33   12   26 1   
    34   12   39 1   
    35   13   14 1   
    36   13   40 1   
    37   13   41 1   
    38   13   42 1   
    39   14   43 1   
    40   14   44 1   
    41   16   17 1   
    42   16   45 1   
    43   16   46 1   
    44   17   18 1   
    45   17   47 1   
    46   17   48 1   
    47   18   19 1   
    48   19   49 1   
    49   19   50 1   
    50   20   51 1   
    51   21   22 ar  
    52   22   23 ar  
    53   22   52 1   
    54   25   53 1   
    55   26   27 1   
    56   27   28 2   
    57   28   29 1   
    58   29   54 1   
    59   29   55 1   
    60   29   57 1   
@<TRIPOS>SUBSTRUCTURE
     1 1P5         1 TEMP              0 ****  ****    0 ROOT
