@<TRIPOS>MOLECULE
1P5
   55    49     1     0     0
SMALL
bcc


@<TRIPOS>ATOM
      1 N3          2.7900   -3.3110    0.8950 n         1 1P5     -0.334000
      2 C4          3.4020   -3.2580    2.2070 c3        1 1P5     -0.020000
      3 C5          2.7810   -4.3270    3.1040 c3        1 1P5     -0.240000
      4 C6          2.1280   -2.1430    0.3610 c2        1 1P5      0.314000
      5 C8          2.8600   -0.7620    0.3600 c3        1 1P5     -0.118000
      6 C10         3.5330   -0.4880   -0.9700 c3        1 1P5     -0.142000
      7 C15         0.1700    1.8270   -0.0990 c1        1 1P5      0.135000
      8 C17        -1.8420    3.0770   -0.3250 c1        1 1P5      0.136000
      9 C21        -3.2080    3.1570   -0.7600 c1        1 1P5     -0.203000
     10 C22        -4.3890    2.6990   -0.1910 c1        1 1P5      0.085000
     11 C24        -5.9050    1.7050    1.3260 c1        1 1P5     -0.012000
     12 C26        -6.6880    2.7020   -0.6780 c1        1 1P5     -0.113000
     13 C1          1.7130   -5.4200    0.2800 c3        1 1P5     -0.240000
     14 C2          2.9310   -4.4980    0.0770 c3        1 1P5     -0.020000
     15 O7          0.9420   -2.2070    0.0380 o         1 1P5     -0.370000
     16 C11         2.5680   -0.1830   -2.0540 c3        1 1P5     -0.167000
     17 C12         1.6220    0.9030   -1.6950 c3        1 1P5     -0.048000
     18 N13         0.9570    0.6850   -0.4260 n2        1 1P5     -0.222000
     19 C14         1.8860    0.3960    0.6770 c3        1 1P5     -0.041000
     20 C16        -1.0930    1.9620   -0.6210 c2        1 1P5     -0.240000
     21 N18        -1.3330    4.0410    0.4810 n1        1 1P5     -0.175500
     22 C19        -0.0690    3.9060    1.0030 c1        1 1P5     -0.012000
     23 N20         0.6780    2.7980    0.7100 n1        1 1P5     -0.239000
     24 N23        -4.6490    2.0250    0.9990 n1        1 1P5     -0.175500
     25 C25        -6.9420    2.0420    0.4850 c1        1 1P5     -0.113000
     26 N27        -5.4000    3.0290   -1.0120 n1        1 1P5     -0.113500
     27 N28        -4.8640    3.6990   -2.1060 n1        1 1P5     -0.113500
     28 C29        -3.5190    3.7700   -1.9380 c1        1 1P5      0.085000
     29 N30        -3.0350    4.6430   -2.9400 n2        1 1P5     -0.310000
     30 H4          3.2500   -2.3680    2.6030 h1        1 1P5      0.087250
     31 H4A         4.3560   -3.4190    2.1270 h1        1 1P5      0.087250
     32 H5          3.3470   -5.1340    3.0940 hc        1 1P5      0.084333
     33 H5A         2.7130   -3.9790    4.0380 hc        1 1P5      0.084333
     34 H5B         1.8930   -4.5500    2.7760 hc        1 1P5      0.084333
     35 H8          3.5320   -0.8930    1.0950 hc        1 1P5      0.106000
     36 H10         4.0480   -1.2640   -1.2230 hc        1 1P5      0.089000
     37 H10A        4.1510    0.2870   -0.8630 hc        1 1P5      0.089000
     38 H24        -6.0860    1.2340    2.1570 ha        1 1P5      0.178000
     39 H26        -7.4510    2.9510   -1.2960 ha        1 1P5      0.173000
     40 H1          1.9740   -6.1900    0.8190 hc        1 1P5      0.084333
     41 H1A         0.9950   -4.9220    0.7430 hc        1 1P5      0.084333
     42 H1B         1.3860   -5.7300   -0.6000 hc        1 1P5      0.084333
     43 H2          2.9880   -4.2380   -0.8670 h1        1 1P5      0.087250
     44 H2A         3.7460   -4.9750    0.3340 h1        1 1P5      0.087250
     45 H11         2.0600   -0.9860   -2.2570 hc        1 1P5      0.106500
     46 H11A        3.0720    0.0900   -2.8620 hc        1 1P5      0.106500
     47 H12         2.1070    1.7310   -1.6510 h1        1 1P5      0.081000
     48 H12A        0.9350    0.9750   -2.4040 h1        1 1P5      0.081000
     49 H14         1.3560    0.1550    1.4870 h1        1 1P5      0.095000
     50 H14A        2.4230    1.2280    0.8740 h1        1 1P5      0.095000
     51 H16        -1.5010    1.2100   -1.1420 ha        1 1P5      0.174000
     52 H19         0.3090    4.6270    1.6060 ha        1 1P5      0.178000
     53 H25        -7.8530    1.8100    0.7210 ha        1 1P5      0.173000
     54 HN30       -3.6100    5.0060   -3.5420 hn        1 1P5      0.222500
     55 HN3A       -2.1630    4.8750   -2.9540 hn        1 1P5      0.222500
@<TRIPOS>BOND
     1    1    2 1   
     2    1    4 1   
     3    1   14 1   
     4    2    3 1   
     5    2   30 1   
     6    2   31 1   
     7    3   32 1   
     8    3   33 1   
     9    3   34 1   
    10    4    5 1   
    11    4   15 1   
    12    5    6 1   
    13    5   19 1   
    14    5   35 1   
    15    6   16 1   
    16    6   36 1   
    17    6   37 1   
    18    7   20 1   
    19    7   23 1   
    20    8   20 1   
    21    9   10 1   
    22    9   28 1   
    23   10   26 1   
    24   11   24 1   
    25   11   38 1   
    26   12   25 1   
    27   12   39 1   
    28   13   14 1   
    29   13   40 1   
    30   13   41 1   
    31   13   42 1   
    32   14   43 1   
    33   14   44 1   
    34   16   17 1   
    35   16   45 1   
    36   16   46 1   
    37   17   18 1   
    38   17   47 1   
    39   17   48 1   
    40   18   19 1   
    41   19   49 1   
    42   19   50 1   
    43   20   51 1   
    44   21   22 1   
    45   22   52 1   
    46   25   53 1   
    47   27   28 1   
    48   29   54 1   
    49   29   55 1   
@<TRIPOS>SUBSTRUCTURE
     1 1P5         1 TEMP              0 ****  ****    0 ROOT
