@<TRIPOS>MOLECULE
1P5
   56    59     1     0     0
SMALL
bcc


@<TRIPOS>ATOM
      1 N3         -0.5150    0.8850   -0.3220 nx        1 1P5     -0.607200
      2 C4         -0.6900    0.5460    1.1330 c3        1 1P5      0.117800
      3 C5         -1.9390    1.1480    1.7440 c3        1 1P5     -0.130100
      4 C6          0.9410    1.2030   -0.5960 c         1 1P5      0.551100
      5 C8          1.3390    2.6510   -0.7760 c3        1 1P5     -0.134700
      6 C10         1.4440    2.9750   -2.2630 c3        1 1P5     -0.087400
      7 C15        -1.8630    4.5210    0.0310 ca        1 1P5      0.599200
      8 C17        -4.1970    5.1410    0.3650 ca        1 1P5      0.607100
      9 C21        -5.5790    5.0910   -0.0180 cc        1 1P5     -0.441400
     10 C22        -6.1170    4.7760   -1.3020 cd        1 1P5      0.421500
     11 C24        -6.3390    4.2280   -3.5270 cc        1 1P5      0.453200
     12 C26        -8.3520    4.7210   -2.2680 cd        1 1P5      0.017700
     13 C1         -2.4470   -0.5280   -1.1310 c3        1 1P5     -0.130100
     14 C2         -0.9680   -0.2230   -1.2240 c3        1 1P5      0.117800
     15 O7          1.7070    0.2510   -0.6570 o         1 1P5     -0.432100
     16 C11         0.0880    3.1780   -2.9010 c3        1 1P5     -0.092400
     17 C12        -0.7750    4.1510   -2.1000 c3        1 1P5      0.152800
     18 N13        -0.8790    3.7550   -0.6920 nh        1 1P5     -0.767300
     19 C14         0.4340    3.6590   -0.0570 c3        1 1P5      0.156800
     20 C16        -3.2180    4.4170   -0.3710 ca        1 1P5     -0.380600
     21 N18        -3.8290    5.8890    1.4480 nb        1 1P5     -0.736000
     22 C19        -2.5130    5.9110    1.7530 ca        1 1P5      0.672900
     23 N20        -1.4980    5.2820    1.1110 nb        1 1P5     -0.756000
     24 N23        -5.5290    4.4180   -2.4890 nd        1 1P5     -0.680000
     25 C25        -7.7570    4.3650   -3.4690 cc        1 1P5     -0.312300
     26 N27        -7.5510    4.9330   -1.1670 na        1 1P5      0.081200
     27 N28        -7.9220    5.3030    0.0710 nd        1 1P5     -0.638100
     28 C29        -6.7480    5.4100    0.8130 cc        1 1P5      0.665500
     29 N30        -6.7320    5.6730    2.1570 nv        1 1P5     -0.874800
     30 H4         -0.7070   -0.5770    1.2330 hx        1 1P5      0.098950
     31 H4A         0.2140    0.9300    1.6890 hx        1 1P5      0.098950
     32 H5         -2.8660    0.7700    1.2480 hc        1 1P5      0.075533
     33 H5A        -1.9270    2.2650    1.6800 hc        1 1P5      0.075533
     34 H5B        -1.9720    0.8570    2.8240 hc        1 1P5      0.075533
     35 H8          2.3690    2.7320   -0.3140 hc        1 1P5      0.124700
     36 H10         2.0070    2.1630   -2.7940 hc        1 1P5      0.082200
     37 H10A        2.0470    3.9190   -2.3600 hc        1 1P5      0.082200
     38 H24        -5.8520    3.9480   -4.4800 h4        1 1P5      0.037100
     39 H26        -9.4440    4.8500   -2.1400 h4        1 1P5      0.198000
     40 H1         -3.0730    0.3790   -1.3150 hc        1 1P5      0.075533
     41 H1A        -2.6920   -1.2900   -1.9150 hc        1 1P5      0.075533
     42 H1B        -2.7150   -0.9560   -0.1340 hc        1 1P5      0.075533
     43 H2         -0.3620   -1.1420   -0.9750 hx        1 1P5      0.098950
     44 H2A        -0.7120    0.0920   -2.2780 hx        1 1P5      0.098950
     45 H11        -0.4400    2.1930   -3.0060 hc        1 1P5      0.058700
     46 H11A        0.2190    3.5970   -3.9340 hc        1 1P5      0.058700
     47 H12        -1.8120    4.1750   -2.5400 h1        1 1P5      0.073700
     48 H12A       -0.3370    5.1870   -2.1950 h1        1 1P5      0.073700
     49 H14         0.2970    3.3410    1.0150 h1        1 1P5      0.081700
     50 H14A        0.9760    4.6510   -0.0520 h1        1 1P5      0.081700
     51 H16        -3.5130    3.7990   -1.2260 ha        1 1P5      0.171000
     52 H19        -2.2190    6.5300    2.6300 h5        1 1P5      0.065100
     53 H25        -8.3720    4.1960   -4.3620 ha        1 1P5      0.176000
     54 HN30       -5.8910    6.0420    2.5370 hn        1 1P5      0.440300
     55 HN3A       -7.5780    6.0000    2.5690 hn        1 1P5      0.440300
     56 H31        -1.0840    1.7310   -0.5350 hn        1 1P5      0.491800
@<TRIPOS>BOND
     1    1    2 1   
     2    1    4 1   
     3    1   14 1   
     4    1   56 1   
     5    2    3 1   
     6    2   30 1   
     7    2   31 1   
     8    3   32 1   
     9    3   33 1   
    10    3   34 1   
    11    4    5 1   
    12    4   15 2   
    13    5    6 1   
    14    5   19 1   
    15    5   35 1   
    16    6   16 1   
    17    6   36 1   
    18    6   37 1   
    19    7   18 1   
    20    7   20 ar  
    21    7   23 ar  
    22    8    9 1   
    23    8   20 ar  
    24    8   21 ar  
    25    9   10 2   
    26    9   28 1   
    27   10   24 1   
    28   10   26 1   
    29   11   24 2   
    30   11   25 1   
    31   11   38 1   
    32   12   25 2   
    33   12   26 1   
    34   12   39 1   
    35   13   14 1   
    36   13   40 1   
    37   13   41 1   
    38   13   42 1   
    39   14   43 1   
    40   14   44 1   
    41   16   17 1   
    42   16   45 1   
    43   16   46 1   
    44   17   18 1   
    45   17   47 1   
    46   17   48 1   
    47   18   19 1   
    48   19   49 1   
    49   19   50 1   
    50   20   51 1   
    51   21   22 ar  
    52   22   23 ar  
    53   22   52 1   
    54   25   53 1   
    55   26   27 1   
    56   27   28 2   
    57   28   29 1   
    58   29   54 1   
    59   29   55 1   
@<TRIPOS>SUBSTRUCTURE
     1 1P5         1 TEMP              0 ****  ****    0 ROOT
