@<TRIPOS>MOLECULE
1P5
   56    59     1     0     0
SMALL
bcc


@<TRIPOS>ATOM
      1 N3         -0.5160    0.8850   -0.2940 n4        1 1P5     -0.607200
      2 C4         -0.7050    0.5520    1.1610 c3        1 1P5      0.117800
      3 C5         -1.9610    1.1540    1.7570 c3        1 1P5     -0.130100
      4 C6          0.9410    1.2060   -0.5550 c         1 1P5      0.551100
      5 C8          1.3370    2.6540   -0.7380 c3        1 1P5     -0.134700
      6 C10         1.4540    2.9720   -2.2250 c3        1 1P5     -0.087400
      7 C15        -1.8750    4.5200    0.0340 ca        1 1P5      0.599200
      8 C17        -4.2130    5.1360    0.3460 ca        1 1P5      0.607100
      9 C21        -5.5920    5.0820   -0.0480 cc        1 1P5     -0.441400
     10 C22        -6.1180    4.7620   -1.3370 cd        1 1P5      0.421500
     11 C24        -6.3190    4.2070   -3.5620 cc        1 1P5      0.453200
     12 C26        -8.3440    4.7000   -2.3210 cd        1 1P5      0.017700
     13 C1         -2.4380   -0.5350   -1.1150 c3        1 1P5     -0.130100
     14 C2         -0.9590   -0.2270   -1.1960 c3        1 1P5      0.117800
     15 O7          1.7100    0.2550   -0.6050 o         1 1P5     -0.432100
     16 C11         0.1040    3.1700   -2.8760 c3        1 1P5     -0.092400
     17 C12        -0.7680    4.1440   -2.0860 c3        1 1P5      0.152800
     18 N13        -0.8830    3.7540   -0.6770 nh        1 1P5     -0.767300
     19 C14         0.4240    3.6630   -0.0310 c3        1 1P5      0.156800
     20 C16        -3.2270    4.4120   -0.3790 ca        1 1P5     -0.380600
     21 N18        -3.8560    5.8900    1.4300 nb        1 1P5     -0.736000
     22 C19        -2.5420    5.9160    1.7460 ca        1 1P5      0.672900
     23 N20        -1.5210    5.2870    1.1140 nb        1 1P5     -0.756000
     24 N23        -5.5190    4.4020   -2.5170 nd        1 1P5     -0.680000
     25 C25        -7.7380    4.3420   -3.5160 cc        1 1P5     -0.312300
     26 N27        -7.5530    4.9160   -1.2140 na        1 1P5      0.081200
     27 N28        -7.9360    5.2890    0.0190 nd        1 1P5     -0.638100
     28 C29        -6.7690    5.4020    0.7710 cc        1 1P5      0.665500
     29 N30        -6.7650    5.6680    2.1150 nh        1 1P5     -0.874800
     30 H4         -0.7210   -0.5710    1.2650 hx        1 1P5      0.098950
     31 H4A         0.1930    0.9410    1.7240 hx        1 1P5      0.098950
     32 H5         -2.0030    0.8660    2.8380 hc        1 1P5      0.075533
     33 H5A        -1.9510    2.2710    1.6890 hc        1 1P5      0.075533
     34 H5B        -2.8820    0.7720    1.2540 hc        1 1P5      0.075533
     35 H8          2.3640    2.7390   -0.2670 hc        1 1P5      0.124700
     36 H10         2.0560    3.9170   -2.3210 hc        1 1P5      0.082200
     37 H10A        2.0230    2.1590   -2.7480 hc        1 1P5      0.082200
     38 H24        -5.8230    3.9260   -4.5100 h4        1 1P5      0.037100
     39 H26        -9.4370    4.8260   -2.2040 h4        1 1P5      0.198000
     40 H1         -2.6730   -1.3000   -1.8990 hc        1 1P5      0.075533
     41 H1A        -2.7140   -0.9600   -0.1190 hc        1 1P5      0.075533
     42 H1B        -3.0640    0.3700   -1.3090 hc        1 1P5      0.075533
     43 H2         -0.3530   -1.1430   -0.9370 hx        1 1P5      0.098950
     44 H2A        -0.6930    0.0850   -2.2480 hx        1 1P5      0.098950
     45 H11         0.2430    3.5850   -3.9090 hc        1 1P5      0.058700
     46 H11A       -0.4210    2.1840   -2.9810 hc        1 1P5      0.058700
     47 H12        -1.8010    4.1640   -2.5350 h1        1 1P5      0.073700
     48 H12A       -0.3310    5.1810   -2.1810 h1        1 1P5      0.073700
     49 H14         0.2790    3.3490    1.0410 h1        1 1P5      0.081700
     50 H14A        0.9640    4.6560   -0.0240 h1        1 1P5      0.081700
     51 H16        -3.5120    3.7890   -1.2340 ha        1 1P5      0.171000
     52 H19        -2.2570    6.5380    2.6220 h5        1 1P5      0.065100
     53 H25        -8.3450    4.1690   -4.4140 ha        1 1P5      0.176000
     54 HN30       -5.9280    6.0400    2.5000 hn        1 1P5      0.440300
     55 HN3A       -7.6150    5.9940    2.5180 hn        1 1P5      0.440300
     56 H31        -1.0860    1.7300   -0.5150 hn        1 1P5      0.491800
@<TRIPOS>BOND
     1    1    2 1   
     2    1    4 1   
     3    1   14 1   
     4    1   56 1   
     5    2    3 1   
     6    2   30 1   
     7    2   31 1   
     8    3   32 1   
     9    3   33 1   
    10    3   34 1   
    11    4    5 1   
    12    4   15 2   
    13    5    6 1   
    14    5   19 1   
    15    5   35 1   
    16    6   16 1   
    17    6   36 1   
    18    6   37 1   
    19    7   18 1   
    20    7   20 ar  
    21    7   23 ar  
    22    8    9 1   
    23    8   20 ar  
    24    8   21 ar  
    25    9   10 2   
    26    9   28 1   
    27   10   24 1   
    28   10   26 1   
    29   11   24 2   
    30   11   25 1   
    31   11   38 1   
    32   12   25 2   
    33   12   26 1   
    34   12   39 1   
    35   13   14 1   
    36   13   40 1   
    37   13   41 1   
    38   13   42 1   
    39   14   43 1   
    40   14   44 1   
    41   16   17 1   
    42   16   45 1   
    43   16   46 1   
    44   17   18 1   
    45   17   47 1   
    46   17   48 1   
    47   18   19 1   
    48   19   49 1   
    49   19   50 1   
    50   20   51 1   
    51   21   22 ar  
    52   22   23 ar  
    53   22   52 1   
    54   25   53 1   
    55   26   27 1   
    56   27   28 2   
    57   28   29 1   
    58   29   54 1   
    59   29   55 1   
@<TRIPOS>SUBSTRUCTURE
     1 1P5         1 TEMP              0 ****  ****    0 ROOT
