@<TRIPOS>MOLECULE
1P6
   42    45     1     0     0
SMALL
bcc


@<TRIPOS>ATOM
      1 C1          0.3030   -0.0270   -0.1040 c3        1 1P6     -0.128100
      2 C2          1.8320    0.0770   -0.1050 c3        1 1P6      0.255800
      3 N4          2.4560   -0.0600    1.2010 nu        1 1P6     -0.834900
      4 C5          2.2350   -1.2140    1.9610 ca        1 1P6      0.670200
      5 N6          2.3570   -1.1220    3.3330 nb        1 1P6     -0.768000
      6 C7          2.2610   -2.2870    4.0110 ca        1 1P6      0.669900
      7 N8          2.0310   -3.5280    3.5230 nb        1 1P6     -0.768000
      8 C9          1.8790   -3.6180    2.1670 ca        1 1P6      0.582100
      9 C10         1.9820   -2.4780    1.3440 ca        1 1P6     -0.400600
     10 C11         1.6070   -4.9110    1.5820 cc        1 1P6     -0.396400
     11 C12         0.8550   -5.1900    0.4110 cd        1 1P6      0.407500
     12 N13         0.2010   -4.3810   -0.4900 nd        1 1P6     -0.653000
     13 C14        -0.4370   -4.9840   -1.4830 cc        1 1P6      0.442200
     14 C15        -0.4790   -6.4020   -1.6660 cc        1 1P6     -0.325300
     15 C16         0.1760   -7.2180   -0.7600 cd        1 1P6      0.010700
     16 N17         0.8500   -6.6380    0.2930 na        1 1P6      0.064200
     17 N18         1.5280   -7.2430    1.2830 nd        1 1P6     -0.644100
     18 C19         2.0150   -6.2210    2.0950 cc        1 1P6      0.643500
     19 N20         2.8550   -6.4350    3.1630 nv        1 1P6     -0.873800
     20 C21         2.2360    1.3850   -0.7470 ca        1 1P6     -0.106300
     21 C22         2.9880    1.3740   -1.9260 ca        1 1P6     -0.093500
     22 C23         3.3530    2.5650   -2.5450 ca        1 1P6     -0.165000
     23 C24         2.9680    3.7900   -1.9690 ca        1 1P6      0.129900
     24 F25         3.3190    4.9550   -2.5630 f         1 1P6     -0.138900
     25 C26         2.2190    3.8090   -0.7780 ca        1 1P6     -0.165000
     26 C27         1.8610    2.6060   -0.1770 ca        1 1P6     -0.093500
     27 H1         -0.0160   -1.0180    0.3010 hc        1 1P6      0.050033
     28 H1A        -0.0700    0.0700   -1.1510 hc        1 1P6      0.050033
     29 H1B        -0.1550    0.7810    0.5140 hc        1 1P6      0.050033
     30 H2          2.2330   -0.7700   -0.7440 h1        1 1P6      0.069700
     31 HN4         2.5050    0.7940    1.7210 hn        1 1P6      0.422800
     32 H7          2.3740   -2.2090    5.1130 h5        1 1P6      0.046100
     33 H10         1.8830   -2.5670    0.2560 ha        1 1P6      0.166000
     34 H14        -0.9600   -4.3230   -2.1990 h4        1 1P6      0.033100
     35 H15        -1.0230   -6.8370   -2.5120 ha        1 1P6      0.164000
     36 H16         0.1890   -8.3200   -0.8310 h4        1 1P6      0.183000
     37 HN20        2.8960   -5.7050    3.8380 hn        1 1P6      0.430300
     38 HN2A        2.8900   -7.3600    3.5270 hn        1 1P6      0.430300
     39 H22         3.2990    0.4160   -2.3720 ha        1 1P6      0.140500
     40 H23         3.9420    2.5610   -3.4730 ha        1 1P6      0.151000
     41 H26         1.9260    4.7710   -0.3330 ha        1 1P6      0.151000
     42 H27         1.2710    2.6230    0.7530 ha        1 1P6      0.140500
@<TRIPOS>BOND
     1    1    2 1   
     2    1   27 1   
     3    1   28 1   
     4    1   29 1   
     5    2    3 1   
     6    2   20 1   
     7    2   30 1   
     8    3    4 1   
     9    3   31 1   
    10    4    5 ar  
    11    4    9 ar  
    12    5    6 ar  
    13    6    7 ar  
    14    6   32 1   
    15    7    8 ar  
    16    8    9 ar  
    17    8   10 1   
    18    9   33 1   
    19   10   11 2   
    20   10   18 1   
    21   11   12 1   
    22   11   16 1   
    23   12   13 2   
    24   13   14 1   
    25   13   34 1   
    26   14   15 2   
    27   14   35 1   
    28   15   16 1   
    29   15   36 1   
    30   16   17 1   
    31   17   18 2   
    32   18   19 1   
    33   19   37 1   
    34   19   38 1   
    35   20   21 ar  
    36   20   26 ar  
    37   21   22 ar  
    38   21   39 1   
    39   22   23 ar  
    40   22   40 1   
    41   23   24 1   
    42   23   25 ar  
    43   25   26 ar  
    44   25   41 1   
    45   26   42 1   
@<TRIPOS>SUBSTRUCTURE
     1 1P6         1 TEMP              0 ****  ****    0 ROOT
