@<TRIPOS>MOLECULE
1P6
   42    45     1     0     0
SMALL
bcc


@<TRIPOS>ATOM
      1 C1         -1.7870   -0.4630    1.7120 c3        1 1P6     -0.128100
      2 C2         -2.1140    0.0160    0.2930 c3        1 1P6      0.255800
      3 N4         -1.7090    1.3830    0.0000 nh        1 1P6     -0.834900
      4 C5         -0.3680    1.7580    0.1430 ca        1 1P6      0.670200
      5 N6         -0.0880    3.0860    0.3890 nb        1 1P6     -0.768000
      6 C7          1.2220    3.4200    0.3910 ca        1 1P6      0.669900
      7 N8          2.2960    2.6160    0.2110 nb        1 1P6     -0.768000
      8 C9          2.0220    1.2930   -0.0030 ca        1 1P6      0.582100
      9 C10         0.6940    0.8210   -0.0530 ca        1 1P6     -0.400600
     10 C11         3.1230    0.3750   -0.1780 cc        1 1P6     -0.396400
     11 C12         3.1710   -0.9980    0.1780 cd        1 1P6      0.407500
     12 N13         2.2480   -1.8430    0.7500 nd        1 1P6     -0.653000
     13 C14         2.6350   -3.0910    0.9720 cc        1 1P6      0.442200
     14 C15         3.9340   -3.5970    0.6510 cc        1 1P6     -0.325300
     15 C16         4.8640   -2.7490    0.0780 cd        1 1P6      0.010700
     16 N17         4.5110   -1.4400   -0.1680 na        1 1P6      0.064200
     17 N18         5.2620   -0.4580   -0.6950 nd        1 1P6     -0.644100
     18 C19         4.4490    0.6720   -0.7260 cc        1 1P6      0.643500
     19 N20         4.8270    1.8640   -1.3000 nh        1 1P6     -0.873800
     20 C21        -3.5940   -0.1590    0.0420 ca        1 1P6     -0.106300
     21 C22        -4.0260   -1.0300   -0.9630 ca        1 1P6     -0.093500
     22 C23        -5.3840   -1.2220   -1.1970 ca        1 1P6     -0.165000
     23 C24        -6.3270   -0.5240   -0.4190 ca        1 1P6      0.129900
     24 F25        -7.6510   -0.7040   -0.6410 f         1 1P6     -0.138900
     25 C26        -5.8980    0.3610    0.5880 ca        1 1P6     -0.165000
     26 C27        -4.5360    0.5360    0.8080 ca        1 1P6     -0.093500
     27 H1         -2.3110    0.1570    2.4770 hc        1 1P6      0.050033
     28 H1A        -2.1180   -1.5220    1.8240 hc        1 1P6      0.050033
     29 H1B        -0.6860   -0.4090    1.8940 hc        1 1P6      0.050033
     30 H2         -1.5500   -0.6490   -0.4310 h1        1 1P6      0.069700
     31 HN4        -2.3790    2.0740    0.2730 hn        1 1P6      0.422800
     32 H7          1.4410    4.4930    0.5750 h5        1 1P6      0.046100
     33 H10         0.4880   -0.2370   -0.2490 ha        1 1P6      0.166000
     34 H14         1.8850   -3.7600    1.4340 h4        1 1P6      0.033100
     35 H15         4.1890   -4.6430    0.8590 ha        1 1P6      0.164000
     36 H16         5.8880   -3.0630   -0.1970 h4        1 1P6      0.183000
     37 HN20        4.3200    2.6690   -1.0100 hn        1 1P6      0.430300
     38 HN2A        5.8010    2.0000   -1.4480 hn        1 1P6      0.430300
     39 H22        -3.2900   -1.5690   -1.5790 ha        1 1P6      0.140500
     40 H23        -5.7280   -1.9080   -1.9850 ha        1 1P6      0.151000
     41 H26        -6.6410    0.9040    1.1880 ha        1 1P6      0.151000
     42 H27        -4.2020    1.2250    1.6000 ha        1 1P6      0.140500
@<TRIPOS>BOND
     1    1    2 1   
     2    1   27 1   
     3    1   28 1   
     4    1   29 1   
     5    2    3 1   
     6    2   20 1   
     7    2   30 1   
     8    3    4 1   
     9    3   31 1   
    10    4    5 ar  
    11    4    9 ar  
    12    5    6 ar  
    13    6    7 ar  
    14    6   32 1   
    15    7    8 ar  
    16    8    9 ar  
    17    8   10 1   
    18    9   33 1   
    19   10   11 2   
    20   10   18 1   
    21   11   12 1   
    22   11   16 1   
    23   12   13 2   
    24   13   14 1   
    25   13   34 1   
    26   14   15 2   
    27   14   35 1   
    28   15   16 1   
    29   15   36 1   
    30   16   17 1   
    31   17   18 2   
    32   18   19 1   
    33   19   37 1   
    34   19   38 1   
    35   20   21 ar  
    36   20   26 ar  
    37   21   22 ar  
    38   21   39 1   
    39   22   23 ar  
    40   22   40 1   
    41   23   24 1   
    42   23   25 ar  
    43   25   26 ar  
    44   25   41 1   
    45   26   42 1   
@<TRIPOS>SUBSTRUCTURE
     1 1P6         1 TEMP              0 ****  ****    0 ROOT
