@<TRIPOS>MOLECULE
1P6
   42    45     1     0     0
SMALL
bcc


@<TRIPOS>ATOM
      1 C1          0.2950   -0.0320   -0.0950 c3        1 1P6     -0.128100
      2 C2          1.8240    0.0780   -0.1050 c3        1 1P6      0.255800
      3 N4          2.4560   -0.0580    1.1980 nh        1 1P6     -0.834900
      4 C5          2.2440   -1.2140    1.9580 ca        1 1P6      0.671200
      5 N6          2.3740   -1.1240    3.3290 nb        1 1P6     -0.768000
      6 C7          2.2870   -2.2910    4.0060 ca        1 1P6      0.669900
      7 N8          2.0580   -3.5310    3.5180 nb        1 1P6     -0.768000
      8 C9          1.8970   -3.6200    2.1630 ca        1 1P6      0.582100
      9 C10         1.9910   -2.4780    1.3410 ca        1 1P6     -0.400600
     10 C11         1.6250   -4.9120    1.5780 cc        1 1P6     -0.396400
     11 C12         0.8650   -5.1930    0.4120 cd        1 1P6      0.407500
     12 N13         0.2010   -4.3840   -0.4810 nd        1 1P6     -0.653000
     13 C14        -0.4430   -4.9880   -1.4700 cc        1 1P6      0.442200
     14 C15        -0.4810   -6.4060   -1.6550 cc        1 1P6     -0.325300
     15 C16         0.1840   -7.2210   -0.7570 cd        1 1P6      0.010700
     16 N17         0.8650   -6.6410    0.2920 na        1 1P6      0.064200
     17 N18         1.5520   -7.2440    1.2760 nd        1 1P6     -0.644100
     18 C19         2.0420   -6.2220    2.0850 cc        1 1P6      0.643500
     19 N20         2.8910   -6.4340    3.1460 nh        1 1P6     -0.873800
     20 C21         2.2200    1.3880   -0.7470 ca        1 1P6     -0.106300
     21 C22         2.9650    1.3810   -1.9300 ca        1 1P6     -0.093500
     22 C23         3.3230    2.5740   -2.5490 ca        1 1P6     -0.165000
     23 C24         2.9360    3.7970   -1.9700 ca        1 1P6      0.129900
     24 F25         3.2810    4.9640   -2.5650 f         1 1P6     -0.138900
     25 C26         2.1940    3.8120   -0.7740 ca        1 1P6     -0.165000
     26 C27         1.8430    2.6070   -0.1740 ca        1 1P6     -0.093500
     27 H1         -0.0180   -1.0240    0.3110 hc        1 1P6      0.050033
     28 H1A        -0.1630    0.7740    0.5270 hc        1 1P6      0.050033
     29 H1B        -0.0840    0.0650   -1.1400 hc        1 1P6      0.050033
     30 H2          2.2240   -0.7670   -0.7470 h1        1 1P6      0.069700
     31 HN4         2.5040    0.7950    1.7190 hn        1 1P6      0.422800
     32 H7          2.4080   -2.2130    5.1080 h5        1 1P6      0.046100
     33 H10         1.8840   -2.5660    0.2540 ha        1 1P6      0.166000
     34 H14        -0.9740   -4.3280   -2.1810 h4        1 1P6      0.033100
     35 H15        -1.0310   -6.8410   -2.4980 ha        1 1P6      0.164000
     36 H16         0.2010   -8.3230   -0.8300 h4        1 1P6      0.183000
     37 HN20        2.9360   -5.7060    3.8220 hn        1 1P6      0.430300
     38 HN2A        2.9330   -7.3600    3.5080 hn        1 1P6      0.430300
     39 H22         3.2770    0.4250   -2.3790 ha        1 1P6      0.140500
     40 H23         3.9070    2.5730   -3.4800 ha        1 1P6      0.151000
     41 H26         1.9000    4.7720   -0.3270 ha        1 1P6      0.151000
     42 H27         1.2580    2.6210    0.7590 ha        1 1P6      0.140500
@<TRIPOS>BOND
     1    1    2 1   
     2    1   27 1   
     3    1   28 1   
     4    1   29 1   
     5    2    3 1   
     6    2   20 1   
     7    2   30 1   
     8    3    4 1   
     9    3   31 1   
    10    4    5 ar  
    11    4    9 ar  
    12    5    6 ar  
    13    6    7 ar  
    14    6   32 1   
    15    7    8 ar  
    16    8    9 ar  
    17    8   10 1   
    18    9   33 1   
    19   10   11 2   
    20   10   18 1   
    21   11   12 1   
    22   11   16 1   
    23   12   13 2   
    24   13   14 1   
    25   13   34 1   
    26   14   15 2   
    27   14   35 1   
    28   15   16 1   
    29   15   36 1   
    30   16   17 1   
    31   17   18 2   
    32   18   19 1   
    33   19   37 1   
    34   19   38 1   
    35   20   21 ar  
    36   20   26 ar  
    37   21   22 ar  
    38   21   39 1   
    39   22   23 ar  
    40   22   40 1   
    41   23   24 1   
    42   23   25 ar  
    43   25   26 ar  
    44   25   41 1   
    45   26   42 1   
@<TRIPOS>SUBSTRUCTURE
     1 1P6         1 TEMP              0 ****  ****    0 ROOT
