@<TRIPOS>MOLECULE
1P6
   42    35     1     0     0
SMALL
bcc


@<TRIPOS>ATOM
      1 C1          2.0890    3.3510   -0.1400 c3        1 1P6     -0.239000
      2 C2          0.8220    2.8910    0.5200 c3        1 1P6      0.058000
      3 N4          0.3870    1.6490   -0.0790 n3        1 1P6     -0.286000
      4 C5          0.6670    0.3850    0.5860 c2        1 1P6      0.158000
      5 N6          1.2030    0.3780    1.8140 n2        1 1P6     -0.243000
      6 C7          1.4610   -0.8130    2.4440 c1        1 1P6      0.008000
      7 N8          1.1720   -1.9920    1.8210 n1        1 1P6     -0.245000
      8 C9          0.6340   -1.9890    0.5880 c1        1 1P6      0.148000
      9 C10         0.3760   -0.8020   -0.0420 c1        1 1P6     -0.282000
     10 C11         0.4380   -3.1900   -0.0860 c1        1 1P6     -0.201000
     11 C12        -0.6050   -4.0970   -0.1780 c1        1 1P6      0.086000
     12 N13        -1.9180   -4.0730    0.3110 n1        1 1P6     -0.123000
     13 C14        -2.7590   -5.0920    0.0360 c1        1 1P6     -0.023000
     14 C15        -2.3270   -6.1520   -0.7230 c1        1 1P6     -0.112500
     15 C16        -1.0370   -6.1730   -1.2030 c1        1 1P6     -0.112500
     16 N17        -0.1840   -5.1390   -0.9250 n1        1 1P6     -0.114000
     17 N18         1.1150   -4.8960   -1.3020 n1        1 1P6     -0.114000
     18 C19         1.4900   -3.6930   -0.7810 c1        1 1P6      0.086000
     19 N20         2.8860   -3.7180   -1.1890 n2        1 1P6     -0.311000
     20 C21        -0.2540    3.9450    0.3330 c2        1 1P6     -0.097000
     21 C22        -0.6140    4.3500   -0.9490 c2        1 1P6     -0.101000
     22 C23        -1.5590    5.3430   -1.1210 c1        1 1P6     -0.165000
     23 C24        -2.1470    5.9330   -0.0230 c1        1 1P6      0.093000
     24 F25        -3.0030    6.9330   -0.1890 f         1 1P6     -0.105000
     25 C26        -1.7900    5.5300    1.2530 c1        1 1P6     -0.165000
     26 C27        -0.8400    4.5320    1.4270 c1        1 1P6     -0.087000
     27 H1          2.3140    2.7410   -0.8770 hc        1 1P6      0.086000
     28 H1A         2.8150    3.3540    0.5140 hc        1 1P6      0.086000
     29 H1B         1.9620    4.2640   -0.4960 hc        1 1P6      0.086000
     30 H2          0.9840    2.7520    1.4790 h1        1 1P6      0.129000
     31 HN4        -0.1040    1.6610   -0.8510 hn        1 1P6      0.213000
     32 H7          1.8510   -0.8180    3.3390 ha        1 1P6      0.182000
     33 H10        -0.0180   -0.7980   -0.9450 ha        1 1P6      0.165000
     34 H14        -3.6690   -5.0770    0.3750 ha        1 1P6      0.171000
     35 H15        -2.9440   -6.9010   -0.9260 ha        1 1P6      0.173000
     36 H16        -0.7300   -6.9240   -1.7420 ha        1 1P6      0.173000
     37 HN20        3.1790   -4.3540   -1.7710 hn        1 1P6      0.224500
     38 HN2A        3.4670   -3.0640   -0.8890 hn        1 1P6      0.224500
     39 H22        -0.2000    3.9360   -1.7220 ha        1 1P6      0.134000
     40 H23        -1.8150    5.6310   -2.0340 ha        1 1P6      0.149000
     41 H26        -2.2060    5.9470    2.0280 ha        1 1P6      0.151000
     42 H27        -0.5920    4.2520    2.3150 ha        1 1P6      0.144000
@<TRIPOS>BOND
     1    1    2 1   
     2    1   27 1   
     3    1   28 1   
     4    1   29 1   
     5    2    3 1   
     6    2   20 1   
     7    2   30 1   
     8    3    4 1   
     9    3   31 1   
    10    4    5 1   
    11    4    9 1   
    12    5    6 1   
    13    6   32 1   
    14    7    8 1   
    15    9   33 1   
    16   10   11 1   
    17   10   18 1   
    18   11   16 1   
    19   12   13 1   
    20   13   34 1   
    21   14   15 1   
    22   14   35 1   
    23   15   36 1   
    24   17   18 1   
    25   19   37 1   
    26   19   38 1   
    27   20   21 1   
    28   20   26 1   
    29   21   22 1   
    30   21   39 1   
    31   22   40 1   
    32   23   24 1   
    33   23   25 1   
    34   25   41 1   
    35   26   42 1   
@<TRIPOS>SUBSTRUCTURE
     1 1P6         1 TEMP              0 ****  ****    0 ROOT
