@<TRIPOS>MOLECULE
1P6
   44    47     1     0     0
SMALL
bcc


@<TRIPOS>ATOM
      1 C1          0.7350    1.3500    1.8020 c3        1 1P6     -0.127100
      2 C2          1.3610    0.6070    0.6340 c3        1 1P6      0.223800
      3 N4          2.6250   -0.1530    1.0630 n4        1 1P6     -0.772700
      4 C5          2.3290   -1.3710    1.8420 ca        1 1P6      0.531200
      5 N6          2.3420   -1.2680    3.2030 nb        1 1P6     -0.670000
      6 C7          2.0780   -2.4140    3.8770 ca        1 1P6      0.707900
      7 N8          1.8110   -3.6310    3.3400 nb        1 1P6     -0.764000
      8 C9          1.8020   -3.7270    1.9800 ca        1 1P6      0.585100
      9 C10         2.0600   -2.5830    1.1690 ca        1 1P6     -0.321600
     10 C11         1.5310   -5.0170    1.3930 cc        1 1P6     -0.351400
     11 C12         1.4690   -5.3850    0.0090 cd        1 1P6      0.435500
     12 N13         1.6330   -4.6630   -1.1460 nd        1 1P6     -0.668000
     13 C14         1.5120   -5.3210   -2.2920 cc        1 1P6      0.500200
     14 C15         1.2210   -6.7250   -2.3790 cc        1 1P6     -0.248300
     15 C16         1.0510   -7.4600   -1.2260 cd        1 1P6      0.022700
     16 N17         1.1720   -6.8020    0.0000 na        1 1P6      0.071200
     17 N18         1.0510   -7.3130    1.2240 nd        1 1P6     -0.484100
     18 C19         1.2630   -6.2600    2.0910 cc        1 1P6      0.426500
     19 N20         1.2130   -6.4310    3.5310 n4        1 1P6     -0.740600
     20 C21         1.7380    1.5200   -0.4880 ca        1 1P6     -0.230300
     21 C22         1.2930    1.2310   -1.7860 ca        1 1P6     -0.071500
     22 C23         1.5870    2.0860   -2.8390 ca        1 1P6     -0.160500
     23 C24         2.3450    3.2520   -2.5980 ca        1 1P6      0.202900
     24 F25         2.6370    4.0860   -3.6140 f         1 1P6     -0.092900
     25 C26         2.7970    3.5460   -1.2930 ca        1 1P6     -0.160500
     26 C27         2.4870    2.6810   -0.2520 ca        1 1P6     -0.071500
     27 H1         -0.1490    1.9170    1.4110 hc        1 1P6      0.084367
     28 H1A         0.3810    0.6460    2.5930 hc        1 1P6      0.084367
     29 H1B         1.4400    2.0870    2.2600 hc        1 1P6      0.084367
     30 H2          0.6420   -0.1880    0.2680 hx        1 1P6      0.099700
     31 HN4         3.2110    0.4900    1.6190 hn        1 1P6      0.471300
     32 H7          2.0870   -2.3360    4.9910 h5        1 1P6      0.103100
     33 H10         2.0530   -2.6480    0.0710 ha        1 1P6      0.204000
     34 H14         1.6500   -4.7260   -3.2210 h4        1 1P6      0.076100
     35 H15         1.1330   -7.2110   -3.3660 ha        1 1P6      0.214000
     36 H16         0.8240   -8.5470   -1.2040 h4        1 1P6      0.227000
     37 HN20        2.1260   -6.1650    3.9300 hn        1 1P6      0.486800
     38 HN2A        0.4820   -5.8140    3.9150 hn        1 1P6      0.486800
     39 H22         0.6870    0.3310   -1.9790 ha        1 1P6      0.142500
     40 H23         1.2290    1.8730   -3.8590 ha        1 1P6      0.182000
     41 H26         3.3810    4.4630   -1.1130 ha        1 1P6      0.182000
     42 H27         2.8250    2.9310    0.7670 ha        1 1P6      0.142500
     43 H42         3.1460   -0.4240    0.2190 hn        1 1P6      0.471300
     44 H203        1.0030   -7.4090    3.7820 hn        1 1P6      0.486800
@<TRIPOS>BOND
     1    1    2 1   
     2    1   27 1   
     3    1   28 1   
     4    1   29 1   
     5    2    3 1   
     6    2   20 1   
     7    2   30 1   
     8    3    4 1   
     9    3   31 1   
    10    3   43 1   
    11    4    5 ar  
    12    4    9 ar  
    13    5    6 ar  
    14    6    7 ar  
    15    6   32 1   
    16    7    8 ar  
    17    8    9 ar  
    18    8   10 1   
    19    9   33 1   
    20   10   11 2   
    21   10   18 1   
    22   11   12 1   
    23   11   16 1   
    24   12   13 2   
    25   13   14 1   
    26   13   34 1   
    27   14   15 2   
    28   14   35 1   
    29   15   16 1   
    30   15   36 1   
    31   16   17 1   
    32   17   18 2   
    33   18   19 1   
    34   19   37 1   
    35   19   38 1   
    36   19   44 1   
    37   20   21 ar  
    38   20   26 ar  
    39   21   22 ar  
    40   21   39 1   
    41   22   23 ar  
    42   22   40 1   
    43   23   24 1   
    44   23   25 ar  
    45   25   26 ar  
    46   25   41 1   
    47   26   42 1   
@<TRIPOS>SUBSTRUCTURE
     1 1P6         1 TEMP              0 ****  ****    0 ROOT
