@<TRIPOS>MOLECULE
1P7
   17    13     1     0     0
SMALL
bcc


@<TRIPOS>ATOM
      1 O9         -2.8650   -0.0010    1.1990 o         1 1P7     -0.329000
      2 C8         -1.6500   -0.0010    1.1990 c1        1 1P7      0.347000
      3 N7         -0.8100   -0.0010    2.3550 n3        1 1P7     -0.389000
      4 C6          0.5490   -0.0010    1.9130 c3        1 1P7      0.005000
      5 C10        -0.7530   -0.0010   -0.0350 c1        1 1P7     -0.102000
      6 C11        -1.0430   -0.0010   -1.4060 c1        1 1P7     -0.076000
      7 C2         -0.0110   -0.0010   -2.3320 c1        1 1P7     -0.102000
      8 CL1        -0.3680    0.0150   -4.0390 cl        1 1P7     -0.004000
      9 C5          0.5520   -0.0010    0.3900 c1        1 1P7     -0.079000
     10 C4          1.5940   -0.0010   -0.5460 c1        1 1P7     -0.111000
     11 C3          1.3070   -0.0010   -1.9020 c1        1 1P7     -0.076000
     12 H1          1.0030    0.7970    2.2440 h1        1 1P7      0.102000
     13 H2         -1.9710   -0.0000   -1.7080 ha        1 1P7      0.161000
     14 H3          2.5220   -0.0010   -0.2430 ha        1 1P7      0.145000
     15 H4          2.0330   -0.0010   -2.5550 ha        1 1P7      0.161000
     16 H5         -1.0920   -0.0020    3.2220 hn        1 1P7      0.243000
     17 H6          1.0030   -0.7990    2.2440 h1        1 1P7      0.102000
@<TRIPOS>BOND
     1    1    2 1   
     2    2    3 1   
     3    3    4 1   
     4    3   16 1   
     5    4    9 1   
     6    4   12 1   
     7    4   17 1   
     8    5    6 1   
     9    6   13 1   
    10    7   11 1   
    11    9   10 1   
    12   10   14 1   
    13   11   15 1   
@<TRIPOS>SUBSTRUCTURE
     1 1P7         1 TEMP              0 ****  ****    0 ROOT
