@<TRIPOS>MOLECULE
1P7
   17    18     1     0     0
SMALL
bcc


@<TRIPOS>ATOM
      1 O9         -0.0780    0.0060    0.0260 o         1 1P7     -0.604500
      2 C8          1.1570   -0.0290   -0.0300 c         1 1P7      0.710100
      3 N7          2.0060   -0.1020    1.0870 n         1 1P7     -0.579900
      4 C6          3.4090   -0.0250    0.7000 c3        1 1P7      0.128300
      5 C10         2.0330   -0.0300   -1.2440 ca        1 1P7     -0.148600
      6 C11         1.7020   -0.0320   -2.5840 ca        1 1P7     -0.050000
      7 C2          2.7620   -0.0190   -3.5110 ca        1 1P7      0.002400
      8 CL1         2.4030   -0.0200   -5.1730 cl        1 1P7     -0.082400
      9 C5          3.3860   -0.0170   -0.8120 ca        1 1P7     -0.086300
     10 C4          4.4180   -0.0070   -1.7300 ca        1 1P7     -0.111000
     11 C3          4.0950   -0.0070   -3.0960 ca        1 1P7     -0.102000
     12 H1          3.8990    0.9040    1.1010 h1        1 1P7      0.062700
     13 H2          0.6520   -0.0420   -2.9130 ha        1 1P7      0.170000
     14 H3          5.4700   -0.0010   -1.4130 ha        1 1P7      0.145000
     15 H4          4.9050    0.0020   -3.8420 ha        1 1P7      0.152000
     16 H5          1.7130    0.1500    1.9940 hn        1 1P7      0.329500
     17 H6          3.9600   -0.9240    1.0910 h1        1 1P7      0.062700
@<TRIPOS>BOND
     1    1    2 2   
     2    2    3 1   
     3    2    5 1   
     4    3    4 1   
     5    3   16 1   
     6    4    9 1   
     7    4   12 1   
     8    4   17 1   
     9    5    6 ar  
    10    5    9 ar  
    11    6    7 ar  
    12    6   13 1   
    13    7    8 1   
    14    7   11 ar  
    15    9   10 ar  
    16   10   11 ar  
    17   10   14 1   
    18   11   15 1   
@<TRIPOS>SUBSTRUCTURE
     1 1P7         1 TEMP              0 ****  ****    0 ROOT
