@<TRIPOS>MOLECULE
1P7
   17    18     1     0     0
SMALL
bcc


@<TRIPOS>ATOM
      1 O9         -2.3120    2.1830   -0.0200 o         1 1P7     -0.604500
      2 C8         -2.0610    0.9720    0.0190 c         1 1P7      0.710100
      3 N7         -3.0270   -0.0430    0.1000 n         1 1P7     -0.579900
      4 C6         -2.4230   -1.3660    0.0260 c3        1 1P7      0.128300
      5 C10        -0.7230    0.3010    0.0150 ca        1 1P7     -0.148600
      6 C11         0.5480    0.8400    0.0090 ca        1 1P7     -0.050000
      7 C2          1.6320   -0.0590   -0.0050 ca        1 1P7      0.002400
      8 CL1         3.2150    0.5590   -0.0150 cl        1 1P7     -0.082400
      9 C5         -0.9330   -1.1040    0.0090 ca        1 1P7     -0.086300
     10 C4          0.1360   -1.9770   -0.0020 ca        1 1P7     -0.111000
     11 C3          1.4330   -1.4410   -0.0110 ca        1 1P7     -0.102000
     12 H1         -2.7170   -1.9690    0.9290 h1        1 1P7      0.062700
     13 H2          0.7060    1.9300    0.0140 ha        1 1P7      0.170000
     14 H3         -0.0100   -3.0660   -0.0040 ha        1 1P7      0.145000
     15 H4          2.2980   -2.1230   -0.0210 ha        1 1P7      0.152000
     16 H5         -3.9710    0.1010   -0.1480 hn        1 1P7      0.329500
     17 H6         -2.7460   -1.9180   -0.8990 h1        1 1P7      0.062700
@<TRIPOS>BOND
     1    1    2 2   
     2    2    3 1   
     3    2    5 1   
     4    3    4 1   
     5    3   16 1   
     6    4    9 1   
     7    4   12 1   
     8    4   17 1   
     9    5    6 ar  
    10    5    9 ar  
    11    6    7 ar  
    12    6   13 1   
    13    7    8 1   
    14    7   11 ar  
    15    9   10 ar  
    16   10   11 ar  
    17   10   14 1   
    18   11   15 1   
@<TRIPOS>SUBSTRUCTURE
     1 1P7         1 TEMP              0 ****  ****    0 ROOT
