@<TRIPOS>MOLECULE
1P8
   17    13     1     0     0
SMALL
bcc


@<TRIPOS>ATOM
      1 O8         -3.6750   -0.0110    0.0160 o         1 1P8     -0.320000
      2 C7         -2.4600   -0.0110    0.0160 c1        1 1P8      0.308000
      3 C6         -1.5840   -0.0110    1.2220 c2        1 1P8     -0.140000
      4 N9         -1.6260   -0.0110   -1.1300 n3        1 1P8     -0.336000
      5 C10        -0.2670   -0.0110   -0.7310 c1        1 1P8      0.069000
      6 C11         0.9230   -0.0110   -1.4950 c1        1 1P8     -0.146000
      7 C2          2.1620   -0.0110   -0.8650 c1        1 1P8     -0.130000
      8 BR1         3.7670    0.1580   -1.8900 br        1 1P8      0.058000
      9 C5         -0.1740   -0.0110    0.6580 c1        1 1P8     -0.129000
     10 C4          1.0720   -0.0110    1.2890 c1        1 1P8     -0.078000
     11 C3          2.2380   -0.0110    0.5290 c1        1 1P8     -0.136000
     12 H1         -1.8800   -0.7560    1.7790 ha        1 1P8      0.137000
     13 H2         -1.6830    0.7470    1.8300 ha        1 1P8      0.137000
     14 H3         -1.9200   -0.0110   -1.9930 hn        1 1P8      0.257000
     15 H4          0.8740   -0.0100   -2.4700 ha        1 1P8      0.155000
     16 H5          1.1250   -0.0110    2.2640 ha        1 1P8      0.144000
     17 H6          3.1080   -0.0110    0.9710 ha        1 1P8      0.150000
@<TRIPOS>BOND
     1    1    2 1   
     2    2    4 1   
     3    3    9 1   
     4    3   12 1   
     5    3   13 1   
     6    4    5 1   
     7    4   14 1   
     8    5    6 1   
     9    6   15 1   
    10    7   11 1   
    11    9   10 1   
    12   10   16 1   
    13   11   17 1   
@<TRIPOS>SUBSTRUCTURE
     1 1P8         1 TEMP              0 ****  ****    0 ROOT
