@<TRIPOS>MOLECULE
1P8
   17    18     1     0     0
SMALL
bcc


@<TRIPOS>ATOM
      1 O8         -0.0200   -0.0030   -0.0010 o         1 1P8     -0.595500
      2 C7          1.2140   -0.0030    0.0190 c         1 1P8      0.700500
      3 C6          2.1300    0.0020    1.2550 c3        1 1P8     -0.104100
      4 N9          2.0200   -0.0060   -1.1370 n         1 1P8     -0.482100
      5 C10         3.3760   -0.0040   -0.7750 ca        1 1P8      0.061600
      6 C11         4.5030   -0.0060   -1.5910 ca        1 1P8     -0.146000
      7 C2          5.7620   -0.0030   -0.9680 ca        1 1P8      0.010100
      8 BR1         7.3010   -0.0060   -2.0400 br        1 1P8     -0.082100
      9 C5          3.5020    0.0010    0.6560 ca        1 1P8     -0.136300
     10 C4          4.7490    0.0030    1.2410 ca        1 1P8     -0.078000
     11 C3          5.8870    0.0010    0.4190 ca        1 1P8     -0.136000
     12 H1          1.9310    0.9140    1.8690 hc        1 1P8      0.097700
     13 H2          1.9320   -0.9080    1.8740 hc        1 1P8      0.097700
     14 H3          1.6900   -0.0090   -2.0670 hn        1 1P8      0.343500
     15 H4          4.4130   -0.0090   -2.6870 ha        1 1P8      0.155000
     16 H5          4.8620    0.0060    2.3350 ha        1 1P8      0.144000
     17 H6          6.8820    0.0030    0.8890 ha        1 1P8      0.150000
@<TRIPOS>BOND
     1    1    2 2   
     2    2    3 1   
     3    2    4 1   
     4    3    9 1   
     5    3   12 1   
     6    3   13 1   
     7    4    5 1   
     8    4   14 1   
     9    5    6 ar  
    10    5    9 ar  
    11    6    7 ar  
    12    6   15 1   
    13    7    8 1   
    14    7   11 ar  
    15    9   10 ar  
    16   10   11 ar  
    17   10   16 1   
    18   11   17 1   
@<TRIPOS>SUBSTRUCTURE
     1 1P8         1 TEMP              0 ****  ****    0 ROOT
