@<TRIPOS>MOLECULE
1P8
   17    18     1     0     0
SMALL
bcc


@<TRIPOS>ATOM
      1 O8         -4.7650   -0.8480    0.0020 o         1 1P8     -0.595500
      2 C7         -3.6110   -0.4100    0.0020 c         1 1P8      0.700500
      3 C6         -3.1680    1.0630    0.0020 c3        1 1P8     -0.104100
      4 N9         -2.4600   -1.2250    0.0010 n         1 1P8     -0.482100
      5 C10        -1.3080   -0.4240    0.0010 ca        1 1P8      0.061600
      6 C11         0.0300   -0.8100   -0.0000 ca        1 1P8     -0.146000
      7 C2          1.0020    0.2030   -0.0010 ca        1 1P8      0.010100
      8 BR1         2.8140   -0.2830   -0.0020 br        1 1P8     -0.082100
      9 C5         -1.6750    0.9650    0.0010 ca        1 1P8     -0.136300
     10 C4         -0.7000    1.9380    0.0000 ca        1 1P8     -0.078000
     11 C3          0.6490    1.5510   -0.0000 ca        1 1P8     -0.136000
     12 H1         -3.5640    1.5760   -0.9090 hc        1 1P8      0.097700
     13 H2         -3.5630    1.5760    0.9130 hc        1 1P8      0.097700
     14 H3         -2.4560   -2.2110    0.0010 hn        1 1P8      0.343500
     15 H4          0.3170   -1.8710   -0.0000 ha        1 1P8      0.155000
     16 H5         -0.9650    3.0060    0.0010 ha        1 1P8      0.144000
     17 H6          1.4260    2.3310   -0.0010 ha        1 1P8      0.150000
@<TRIPOS>BOND
     1    1    2 2   
     2    2    3 1   
     3    2    4 1   
     4    3    9 1   
     5    3   12 1   
     6    3   13 1   
     7    4    5 1   
     8    4   14 1   
     9    5    6 ar  
    10    5    9 ar  
    11    6    7 ar  
    12    6   15 1   
    13    7    8 1   
    14    7   11 ar  
    15    9   10 ar  
    16   10   11 ar  
    17   10   16 1   
    18   11   17 1   
@<TRIPOS>SUBSTRUCTURE
     1 1P8         1 TEMP              0 ****  ****    0 ROOT
