@<TRIPOS>MOLECULE
1P8
   17    18     1     0     0
SMALL
bcc


@<TRIPOS>ATOM
      1 O8         -0.0220    0.0030    0.0120 o         1 1P8     -0.595500
      2 C7          1.2120    0.0020    0.0310 c         1 1P8      0.700500
      3 C6          2.1300    0.0110    1.2650 c3        1 1P8     -0.104100
      4 N9          2.0160   -0.0060   -1.1270 n         1 1P8     -0.482100
      5 C10         3.3730   -0.0040   -0.7670 ca        1 1P8      0.061600
      6 C11         4.4990   -0.0100   -1.5850 ca        1 1P8     -0.146000
      7 C2          5.7590   -0.0060   -0.9640 ca        1 1P8      0.010100
      8 BR1         7.2960   -0.0140   -2.0380 br        1 1P8     -0.082100
      9 C5          3.5010    0.0070    0.6640 ca        1 1P8     -0.136300
     10 C4          4.7490    0.0110    1.2470 ca        1 1P8     -0.078000
     11 C3          5.8860    0.0050    0.4240 ca        1 1P8     -0.136000
     12 H1          1.9330   -0.8950    1.8890 hc        1 1P8      0.097700
     13 H2          1.9330    0.9270    1.8750 hc        1 1P8      0.097700
     14 H3          1.6850   -0.0130   -2.0550 hn        1 1P8      0.343500
     15 H4          4.4070   -0.0180   -2.6800 ha        1 1P8      0.155000
     16 H5          4.8640    0.0190    2.3410 ha        1 1P8      0.144000
     17 H6          6.8820    0.0080    0.8920 ha        1 1P8      0.150000
@<TRIPOS>BOND
     1    1    2 2   
     2    2    3 1   
     3    2    4 1   
     4    3    9 1   
     5    3   12 1   
     6    3   13 1   
     7    4    5 1   
     8    4   14 1   
     9    5    6 ar  
    10    5    9 ar  
    11    6    7 ar  
    12    6   15 1   
    13    7    8 1   
    14    7   11 ar  
    15    9   10 ar  
    16   10   11 ar  
    17   10   16 1   
    18   11   17 1   
@<TRIPOS>SUBSTRUCTURE
     1 1P8         1 TEMP              0 ****  ****    0 ROOT
