@<TRIPOS>MOLECULE
1P9
   51    54     1     0     0
SMALL
bcc


@<TRIPOS>ATOM
      1 O22         0.9530    2.5150    0.0540 o         1 1P9     -0.614500
      2 C21         1.9250    1.7520    0.1070 c         1 1P9      0.700500
      3 N20         2.5800    1.4000    1.3010 n         1 1P9     -0.481100
      4 C23         2.6090    1.0260   -1.0620 c3        1 1P9     -0.104100
      5 C24         3.7130    0.2670   -0.3910 ca        1 1P9     -0.123300
      6 C19         3.6560    0.5370    1.0190 ca        1 1P9      0.047600
      7 C18         4.5720   -0.0310    1.8970 ca        1 1P9     -0.146000
      8 C16         5.5530   -0.8800    1.3550 ca        1 1P9      0.006100
      9 BR1         6.7990   -1.6630    2.5180 br        1 1P9     -0.088100
     10 C15         5.6130   -1.1470   -0.0080 ca        1 1P9     -0.111000
     11 C14         4.6850   -0.5710   -0.8990 ca        1 1P9     -0.059300
     12 C13         4.7410   -0.9150   -2.3650 c3        1 1P9      0.155300
     13 N12         5.9190   -0.5340   -3.0750 n         1 1P9     -0.361000
     14 C10         7.1670   -1.2630   -2.9650 c         1 1P9      0.779500
     15 O11         7.2210   -2.4440   -2.5650 o         1 1P9     -0.663500
     16 C25         6.2360    0.7830   -3.4850 ca        1 1P9     -0.021400
     17 C30         7.6610    0.8330   -3.7320 ca        1 1P9      0.009600
     18 C29         8.2520    1.9760   -4.2630 ca        1 1P9     -0.107000
     19 C28         7.4260    3.0790   -4.5000 ca        1 1P9     -0.134000
     20 C27         6.0580    3.0440   -4.2370 ca        1 1P9     -0.147000
     21 C26         5.4390    1.8930   -3.7340 ca        1 1P9     -0.147000
     22 N9          8.2300   -0.4040   -3.3370 n         1 1P9     -0.321000
     23 C4          9.5850   -0.7740   -3.7310 c3        1 1P9      0.119700
     24 C5          9.7720   -0.9590   -5.2420 c3        1 1P9     -0.229400
     25 C6         10.9570   -0.1100   -5.7490 c         1 1P9      0.911600
     26 O8         11.0900    1.0650   -5.2890 o         1 1P9     -0.841800
     27 O7         11.7190   -0.6230   -6.6110 o         1 1P9     -0.841800
     28 C3         10.1290   -1.9990   -2.9900 c3        1 1P9     -0.085400
     29 C2         10.2520   -1.7740   -1.4980 c3        1 1P9     -0.078400
     30 C1         11.0160   -2.8930   -0.8370 c3        1 1P9     -0.088100
     31 H1          2.4020    1.7900    2.1880 hn        1 1P9      0.336500
     32 H2          2.9960    1.7740   -1.7980 hc        1 1P9      0.097200
     33 H3          1.8750    0.3540   -1.5720 hc        1 1P9      0.097200
     34 H4          4.5340    0.1770    2.9750 ha        1 1P9      0.147000
     35 H5          6.3920   -1.8150   -0.4240 ha        1 1P9      0.185000
     36 H6          3.8600   -0.4370   -2.8850 h1        1 1P9      0.070700
     37 H7          4.6540   -2.0410   -2.4530 h1        1 1P9      0.070700
     38 H8          9.3350    1.9830   -4.5240 ha        1 1P9      0.227000
     39 H9          7.8750    3.9930   -4.9170 ha        1 1P9      0.131000
     40 H10         5.4420    3.9330   -4.4340 ha        1 1P9      0.117000
     41 H11         4.3570    1.8730   -3.5520 ha        1 1P9      0.117000
     42 H12        10.2070    0.1320   -3.4230 h1        1 1P9      0.103700
     43 H13         8.8710   -0.6220   -5.8140 hc        1 1P9      0.043200
     44 H14         9.9490   -2.0340   -5.4890 hc        1 1P9      0.043200
     45 H16        11.1440   -2.2080   -3.4240 hc        1 1P9      0.062200
     46 H17         9.4800   -2.8930   -3.1840 hc        1 1P9      0.062200
     47 H18        10.7720   -0.7980   -1.3040 hc        1 1P9      0.039700
     48 H19         9.2260   -1.7060   -1.0470 hc        1 1P9      0.039700
     49 H20        12.0540   -2.9580   -1.2460 hc        1 1P9      0.024700
     50 H21        10.5080   -3.8720   -1.0130 hc        1 1P9      0.024700
     51 H22        11.0820   -2.7220    0.2650 hc        1 1P9      0.024700
@<TRIPOS>BOND
     1    1    2 2   
     2    2    3 1   
     3    2    4 1   
     4    3    6 1   
     5    3   31 1   
     6    4    5 1   
     7    4   32 1   
     8    4   33 1   
     9    5    6 ar  
    10    5   11 ar  
    11    6    7 ar  
    12    7    8 ar  
    13    7   34 1   
    14    8    9 1   
    15    8   10 ar  
    16   10   11 ar  
    17   10   35 1   
    18   11   12 1   
    19   12   13 1   
    20   12   36 1   
    21   12   37 1   
    22   13   14 1   
    23   13   16 1   
    24   14   15 2   
    25   14   22 1   
    26   16   17 ar  
    27   16   21 ar  
    28   17   18 ar  
    29   17   22 1   
    30   18   19 ar  
    31   18   38 1   
    32   19   20 ar  
    33   19   39 1   
    34   20   21 ar  
    35   20   40 1   
    36   21   41 1   
    37   22   23 1   
    38   23   24 1   
    39   23   28 1   
    40   23   42 1   
    41   24   25 1   
    42   24   43 1   
    43   24   44 1   
    44   25   26 1   
    45   25   27 1   
    46   28   29 1   
    47   28   45 1   
    48   28   46 1   
    49   29   30 1   
    50   29   47 1   
    51   29   48 1   
    52   30   49 1   
    53   30   50 1   
    54   30   51 1   
@<TRIPOS>SUBSTRUCTURE
     1 1P9         1 TEMP              0 ****  ****    0 ROOT
