@<TRIPOS>MOLECULE
1P9
   51    44     1     0     0
SMALL
bcc


@<TRIPOS>ATOM
      1 O22        -7.3710    1.9200    1.7550 o         1 1P9     -0.340000
      2 C21        -6.4170    1.5510    1.1000 c1        1 1P9      0.308000
      3 N20        -6.3310    1.5460   -0.3170 n3        1 1P9     -0.337000
      4 C23        -5.1020    1.1000    1.6440 c2        1 1P9     -0.139000
      5 C24        -4.2930    0.7440    0.4030 c1        1 1P9     -0.122000
      6 C19        -5.1500    0.7810   -0.6940 c1        1 1P9      0.054000
      7 C18        -4.7100    0.3230   -1.9430 c1        1 1P9     -0.148000
      8 C16        -3.4140   -0.1700   -2.0870 c1        1 1P9     -0.051500
      9 BR1        -2.7390   -0.6230   -3.8150 br        1 1P9      0.050000
     10 C15        -2.5520   -0.2070   -0.9850 c1        1 1P9     -0.111000
     11 C14        -2.9870    0.2480    0.2560 c1        1 1P9     -0.029000
     12 C13        -2.1100   -0.1030    1.4660 c3        1 1P9      0.022000
     13 N12        -0.7120   -0.0330    1.0870 n3        1 1P9     -0.258000
     14 C10         0.1290   -1.1390    0.7930 c1        1 1P9      0.370000
     15 O11        -0.1920   -2.3070    0.8340 o         1 1P9     -0.349000
     16 C25         0.0930    1.1660    1.0300 c1        1 1P9     -0.015000
     17 C30         1.4000    0.7950    0.7050 c1        1 1P9     -0.051500
     18 C29         2.4000    1.7760    0.5880 c1        1 1P9     -0.111000
     19 C28         2.0890    3.1150    0.7970 c1        1 1P9     -0.140000
     20 C27         0.7780    3.4890    1.1230 c1        1 1P9     -0.140000
     21 C26        -0.2180    2.5160    1.2400 c1        1 1P9     -0.135000
     22 N9          1.4340   -0.6440    0.5560 n1        1 1P9     -0.224000
     23 C4          2.5700   -1.4220    0.1720 c3        1 1P9      0.036000
     24 C5          3.7330   -1.0960    1.0820 c3        1 1P9     -0.256000
     25 C6          4.3910   -2.3850    1.5450 c2        1 1P9      0.331000
     26 O8          5.3090   -2.9050    0.8580 o         1 1P9     -0.569500
     27 O7          4.0660   -2.8950    2.6520 o         1 1P9     -0.569500
     28 C3          2.9420   -1.0980   -1.2560 c3        1 1P9     -0.148000
     29 C2          3.5610   -2.3230   -1.9100 c3        1 1P9     -0.181000
     30 C1          4.7020   -1.8910   -2.8140 c3        1 1P9     -0.200000
     31 H1         -6.9150    1.9500   -0.8920 hn        1 1P9      0.251000
     32 H2         -4.7160    1.7840    2.2210 ha        1 1P9      0.135000
     33 H3         -5.1650    0.3360    2.2510 ha        1 1P9      0.135000
     34 H4         -5.1740    0.4290   -2.7960 ha        1 1P9      0.146000
     35 H5         -1.7850   -0.5280   -1.4950 ha        1 1P9      0.174000
     36 H6         -2.2830    0.5310    2.1880 h1        1 1P9      0.107000
     37 H7         -2.3220   -1.0150    1.7720 h1        1 1P9      0.107000
     38 H8          3.3120    1.5180    0.3610 ha        1 1P9      0.174000
     39 H9          2.7840    3.7970    0.7160 ha        1 1P9      0.123500
     40 H10         0.5610    4.4300    1.2700 ha        1 1P9      0.123500
     41 H11        -1.1090    2.7670    1.5390 ha        1 1P9      0.123000
     42 H12         2.3560   -2.3690    0.2460 h1        1 1P9      0.156000
     43 H13         4.3860   -0.5530    0.5950 hc        1 1P9      0.076000
     44 H14         3.4090   -0.5980    1.8580 hc        1 1P9      0.076000
     45 H16         3.5890   -0.3600   -1.2660 hc        1 1P9      0.067500
     46 H17         2.1380   -0.8350   -1.7510 hc        1 1P9      0.067500
     47 H18         2.8850   -2.7860   -2.4380 hc        1 1P9      0.117000
     48 H19         3.9030   -2.9250   -1.2180 hc        1 1P9      0.117000
     49 H20         5.4540   -1.5830   -2.2660 hc        1 1P9      0.058333
     50 H21         4.9890   -2.6520   -3.3660 hc        1 1P9      0.058333
     51 H22         4.4010   -1.1630   -3.3930 hc        1 1P9      0.058333
@<TRIPOS>BOND
     1    1    2 1   
     2    2    3 1   
     3    3    6 1   
     4    3   31 1   
     5    4    5 1   
     6    4   32 1   
     7    4   33 1   
     8    5   11 1   
     9    6    7 1   
    10    7   34 1   
    11    8   10 1   
    12   10   35 1   
    13   11   12 1   
    14   12   13 1   
    15   12   36 1   
    16   12   37 1   
    17   13   14 1   
    18   13   16 1   
    19   14   15 1   
    20   16   21 1   
    21   17   18 1   
    22   18   38 1   
    23   19   20 1   
    24   19   39 1   
    25   20   40 1   
    26   21   41 1   
    27   22   23 1   
    28   23   24 1   
    29   23   28 1   
    30   23   42 1   
    31   24   25 1   
    32   24   43 1   
    33   24   44 1   
    34   25   26 1   
    35   25   27 1   
    36   28   29 1   
    37   28   45 1   
    38   28   46 1   
    39   29   30 1   
    40   29   47 1   
    41   29   48 1   
    42   30   49 1   
    43   30   50 1   
    44   30   51 1   
@<TRIPOS>SUBSTRUCTURE
     1 1P9         1 TEMP              0 ****  ****    0 ROOT
