@<TRIPOS>MOLECULE
1P9
   51    54     1     0     0
SMALL
bcc


@<TRIPOS>ATOM
      1 O22         0.9410    2.4930    0.0410 o         1 1P9     -0.614500
      2 C21         1.9230    1.7440    0.1040 c         1 1P9      0.700500
      3 N20         2.5940    1.4310    1.3000 ns        1 1P9     -0.481100
      4 C23         2.6050    0.9960   -1.0530 c3        1 1P9     -0.104100
      5 C24         3.7250    0.2700   -0.3720 ca        1 1P9     -0.123300
      6 C19         3.6780    0.5750    1.0300 ca        1 1P9      0.047600
      7 C18         4.6090    0.0420    1.9130 ca        1 1P9     -0.146000
      8 C16         5.5960   -0.8080    1.3850 ca        1 1P9      0.006100
      9 Br1         6.8630   -1.5450    2.5550 br        1 1P9     -0.088100
     10 C15         5.6470   -1.1110    0.0280 ca        1 1P9     -0.111000
     11 C14         4.7030   -0.5690   -0.8680 ca        1 1P9     -0.059300
     12 C13         4.7490   -0.9510   -2.3250 c3        1 1P9      0.155300
     13 N12         5.9150   -0.5730   -3.0570 n         1 1P9     -0.361000
     14 C10         7.1740   -1.2820   -2.9390 c         1 1P9      0.779500
     15 O11         7.2470   -2.4520   -2.5100 o         1 1P9     -0.663500
     16 C25         6.2110    0.7380   -3.5020 ca        1 1P9     -0.021400
     17 C30         7.6330    0.8010   -3.7630 ca        1 1P9      0.009600
     18 C29         8.2050    1.9380   -4.3270 ca        1 1P9     -0.107000
     19 C28         7.3610    3.0230   -4.5850 ca        1 1P9     -0.134000
     20 C27         5.9960    2.9760   -4.3090 ca        1 1P9     -0.147000
     21 C26         5.3970    1.8300   -3.7730 ca        1 1P9     -0.147000
     22 N9          8.2220   -0.4180   -3.3410 n         1 1P9     -0.322000
     23 C4          9.5790   -0.7800   -3.7360 c3        1 1P9      0.119700
     24 C5          9.7570   -1.0000   -5.2440 c3        1 1P9     -0.229400
     25 C6         10.9270   -0.1480   -5.7820 c         1 1P9      0.911600
     26 O8         11.0460    1.0390   -5.3520 o         1 1P9     -0.841800
     27 O7         11.6890   -0.6720   -6.6360 o         1 1P9     -0.841800
     28 C3         10.1460   -1.9780   -2.9680 c3        1 1P9     -0.085400
     29 C2         10.2770   -1.7130   -1.4840 c3        1 1P9     -0.078400
     30 C1         11.0620   -2.8040   -0.8010 c3        1 1P9     -0.088100
     31 H1          2.4200    1.8430    2.1790 hn        1 1P9      0.336500
     32 H2          2.9750    1.7300   -1.8120 hc        1 1P9      0.097200
     33 H3          1.8750    0.3020   -1.5370 hc        1 1P9      0.097200
     34 H4          4.5790    0.2780    2.9860 ha        1 1P9      0.147000
     35 H5          6.4300   -1.7790   -0.3780 ha        1 1P9      0.185000
     36 H6          3.8580   -0.4980   -2.8480 h1        1 1P9      0.070700
     37 H7          4.6770   -2.0790   -2.3830 h1        1 1P9      0.070700
     38 H8          9.2840    1.9520   -4.5970 ha        1 1P9      0.227000
     39 H9          7.7950    3.9320   -5.0290 ha        1 1P9      0.131000
     40 H10         5.3670    3.8510   -4.5240 ha        1 1P9      0.117000
     41 H11         4.3170    1.8000   -3.5810 ha        1 1P9      0.117000
     42 H12        10.1910    0.1420   -3.4560 h1        1 1P9      0.103700
     43 H13         9.9480   -2.0780   -5.4650 hc        1 1P9      0.043200
     44 H14         8.8480   -0.6900   -5.8170 hc        1 1P9      0.043200
     45 H16         9.5080   -2.8850   -3.1350 hc        1 1P9      0.062200
     46 H17        11.1600   -2.1840   -3.4050 hc        1 1P9      0.062200
     47 H18         9.2540   -1.6490   -1.0270 hc        1 1P9      0.039700
     48 H19        10.7840   -0.7260   -1.3190 hc        1 1P9      0.039700
     49 H20        12.0970   -2.8650   -1.2160 hc        1 1P9      0.024700
     50 H21        10.5670   -3.7940   -0.9480 hc        1 1P9      0.024700
     51 H22        11.1330   -2.6040    0.2960 hc        1 1P9      0.024700
@<TRIPOS>BOND
     1    1    2 2   
     2    2    3 1   
     3    2    4 1   
     4    3    6 1   
     5    3   31 1   
     6    4    5 1   
     7    4   32 1   
     8    4   33 1   
     9    5    6 ar  
    10    5   11 ar  
    11    6    7 ar  
    12    7    8 ar  
    13    7   34 1   
    14    8    9 1   
    15    8   10 ar  
    16   10   11 ar  
    17   10   35 1   
    18   11   12 1   
    19   12   13 1   
    20   12   36 1   
    21   12   37 1   
    22   13   14 1   
    23   13   16 1   
    24   14   15 2   
    25   14   22 1   
    26   16   17 ar  
    27   16   21 ar  
    28   17   18 ar  
    29   17   22 1   
    30   18   19 ar  
    31   18   38 1   
    32   19   20 ar  
    33   19   39 1   
    34   20   21 ar  
    35   20   40 1   
    36   21   41 1   
    37   22   23 1   
    38   23   24 1   
    39   23   28 1   
    40   23   42 1   
    41   24   25 1   
    42   24   43 1   
    43   24   44 1   
    44   25   26 1   
    45   25   27 1   
    46   28   29 1   
    47   28   45 1   
    48   28   46 1   
    49   29   30 1   
    50   29   47 1   
    51   29   48 1   
    52   30   49 1   
    53   30   50 1   
    54   30   51 1   
@<TRIPOS>SUBSTRUCTURE
     1 1P9         1 TEMP              0 ****  ****    0 ROOT
