@<TRIPOS>MOLECULE
1P9
   51    54     1     0     0
SMALL
bcc


@<TRIPOS>ATOM
      1 O22         5.4090   -3.2440    1.8400 o         1 1P9     -0.614500
      2 C21         4.7330   -2.4060    1.2330 c         1 1P9      0.700500
      3 N20         5.1130   -1.0610    1.0710 n         1 1P9     -0.481100
      4 C23         3.3850   -2.6240    0.5270 c3        1 1P9     -0.104100
      5 C24         3.0590   -1.2630   -0.0100 ca        1 1P9     -0.123300
      6 C19         4.1200   -0.3660    0.3550 ca        1 1P9      0.047600
      7 C18         4.0820    0.9760   -0.0050 ca        1 1P9     -0.146000
      8 C16         2.9710    1.4220   -0.7410 ca        1 1P9      0.006100
      9 BR1         2.8960    3.2270   -1.2440 br        1 1P9     -0.088100
     10 C15         1.9400    0.5580   -1.0990 ca        1 1P9     -0.111000
     11 C14         1.9780   -0.8020   -0.7330 ca        1 1P9     -0.059300
     12 C13         0.8740   -1.7270   -1.1760 c3        1 1P9      0.155300
     13 N12        -0.4370   -1.4540   -0.6820 n         1 1P9     -0.361000
     14 C10        -1.2620   -0.3860   -1.2090 c         1 1P9      0.779500
     15 O11        -1.0720    0.1150   -2.3360 o         1 1P9     -0.663500
     16 C25        -0.8860   -1.7220    0.6340 ca        1 1P9     -0.021400
     17 C30        -2.0530   -0.9000    0.8740 ca        1 1P9      0.009600
     18 C29        -2.7880   -1.0320    2.0480 ca        1 1P9     -0.107000
     19 C28        -2.3280   -1.9510    2.9970 ca        1 1P9     -0.134000
     20 C27        -1.1900   -2.7240    2.7810 ca        1 1P9     -0.147000
     21 C26        -0.4560   -2.6300    1.5930 ca        1 1P9     -0.147000
     22 N9         -2.2260   -0.0320   -0.2340 n         1 1P9     -0.322000
     23 C4         -3.4690    0.7080   -0.4280 c3        1 1P9      0.119700
     24 C5         -4.6920   -0.1790   -0.6960 c3        1 1P9     -0.229400
     25 C6         -5.8370    0.1700    0.2780 c         1 1P9      0.911600
     26 O8         -5.5420    0.3970    1.4900 o         1 1P9     -0.841800
     27 O7         -7.0110    0.1900   -0.1800 o         1 1P9     -0.841800
     28 C3         -3.3760    1.7970   -1.5010 c3        1 1P9     -0.085400
     29 C2         -2.3810    2.8820   -1.1490 c3        1 1P9     -0.078400
     30 C1         -2.4930    4.0540   -2.0900 c3        1 1P9     -0.088100
     31 H1          5.8900   -0.6300    1.4980 hn        1 1P9      0.336500
     32 H2          3.5000   -3.3870   -0.2810 hc        1 1P9      0.097200
     33 H3          2.6240   -2.9810    1.2660 hc        1 1P9      0.097200
     34 H4          4.8900    1.6660    0.2760 ha        1 1P9      0.147000
     35 H5          1.0680    0.9210   -1.6770 ha        1 1P9      0.185000
     36 H6          0.8170   -1.6720   -2.3050 h1        1 1P9      0.070700
     37 H7          1.1390   -2.7820   -0.8730 h1        1 1P9      0.070700
     38 H8         -3.7270   -0.4530    2.1940 ha        1 1P9      0.227000
     39 H9         -2.8950   -2.0680    3.9330 ha        1 1P9      0.131000
     40 H10        -0.8590   -3.4340    3.5530 ha        1 1P9      0.117000
     41 H11         0.4260   -3.2610    1.4270 ha        1 1P9      0.117000
     42 H12        -3.6360    1.2160    0.5800 h1        1 1P9      0.103700
     43 H13        -5.0450   -0.0550   -1.7480 hc        1 1P9      0.043200
     44 H14        -4.4590   -1.2620   -0.5390 hc        1 1P9      0.043200
     45 H16        -3.1080    1.3470   -2.4930 hc        1 1P9      0.062200
     46 H17        -4.4030    2.2440   -1.5900 hc        1 1P9      0.062200
     47 H18        -2.5540    3.2270   -0.0960 hc        1 1P9      0.039700
     48 H19        -1.3410    2.4610   -1.2000 hc        1 1P9      0.039700
     49 H20        -2.3150    3.7290   -3.1440 hc        1 1P9      0.024700
     50 H21        -3.5100    4.5110   -2.0320 hc        1 1P9      0.024700
     51 H22        -1.7390    4.8360   -1.8290 hc        1 1P9      0.024700
@<TRIPOS>BOND
     1    1    2 2   
     2    2    3 1   
     3    2    4 1   
     4    3    6 1   
     5    3   31 1   
     6    4    5 1   
     7    4   32 1   
     8    4   33 1   
     9    5    6 ar  
    10    5   11 ar  
    11    6    7 ar  
    12    7    8 ar  
    13    7   34 1   
    14    8    9 1   
    15    8   10 ar  
    16   10   11 ar  
    17   10   35 1   
    18   11   12 1   
    19   12   13 1   
    20   12   36 1   
    21   12   37 1   
    22   13   14 1   
    23   13   16 1   
    24   14   15 2   
    25   14   22 1   
    26   16   17 ar  
    27   16   21 ar  
    28   17   18 ar  
    29   17   22 1   
    30   18   19 ar  
    31   18   38 1   
    32   19   20 ar  
    33   19   39 1   
    34   20   21 ar  
    35   20   40 1   
    36   21   41 1   
    37   22   23 1   
    38   23   24 1   
    39   23   28 1   
    40   23   42 1   
    41   24   25 1   
    42   24   43 1   
    43   24   44 1   
    44   25   26 1   
    45   25   27 1   
    46   28   29 1   
    47   28   45 1   
    48   28   46 1   
    49   29   30 1   
    50   29   47 1   
    51   29   48 1   
    52   30   49 1   
    53   30   50 1   
    54   30   51 1   
@<TRIPOS>SUBSTRUCTURE
     1 1P9         1 TEMP              0 ****  ****    0 ROOT
