@<TRIPOS>MOLECULE
1P9
   51    54     1     0     0
SMALL
bcc


@<TRIPOS>ATOM
      1 O22         0.9150    2.4660   -0.0000 o         1 1P9     -0.614500
      2 C21         1.9070    1.7310    0.0760 c         1 1P9      0.700500
      3 N20         2.5860    1.4530    1.2760 n         1 1P9     -0.481100
      4 C23         2.5940    0.9650   -1.0660 c3        1 1P9     -0.104100
      5 C24         3.7250    0.2680   -0.3740 ca        1 1P9     -0.123300
      6 C19         3.6800    0.6050    1.0220 ca        1 1P9      0.047600
      7 C18         4.6210    0.1040    1.9130 ca        1 1P9     -0.146000
      8 C16         5.6160   -0.7460    1.4010 ca        1 1P9      0.006100
      9 BR1         6.8970   -1.4400    2.5830 br        1 1P9     -0.088100
     10 C15         5.6660   -1.0790    0.0510 ca        1 1P9     -0.111000
     11 C14         4.7120   -0.5690   -0.8540 ca        1 1P9     -0.059300
     12 C13         4.7580   -0.9840   -2.3020 c3        1 1P9      0.155300
     13 N12         5.9170   -0.6080   -3.0460 n         1 1P9     -0.361000
     14 C10         7.1850   -1.2980   -2.9170 c         1 1P9      0.779500
     15 O11         7.2750   -2.4570   -2.4620 o         1 1P9     -0.663500
     16 C25         6.1940    0.6960   -3.5220 ca        1 1P9     -0.021400
     17 C30         7.6150    0.7710   -3.7890 ca        1 1P9      0.009600
     18 C29         8.1700    1.9020   -4.3800 ca        1 1P9     -0.107000
     19 C28         7.3120    2.9710   -4.6600 ca        1 1P9     -0.134000
     20 C27         5.9490    2.9130   -4.3790 ca        1 1P9     -0.147000
     21 C26         5.3660    1.7720   -3.8150 ca        1 1P9     -0.147000
     22 N9          8.2210   -0.4300   -3.3420 n         1 1P9     -0.322000
     23 C4          9.5810   -0.7830   -3.7320 c3        1 1P9      0.119700
     24 C5          9.7590   -1.0350   -5.2350 c3        1 1P9     -0.229400
     25 C6         10.9150   -0.1800   -5.7950 c         1 1P9      0.911600
     26 O8         11.0210    1.0180   -5.3930 o         1 1P9     -0.841800
     27 O7         11.6830   -0.7140   -6.6400 o         1 1P9     -0.841800
     28 C3         10.1660   -1.9560   -2.9390 c3        1 1P9     -0.085400
     29 C2         10.2970   -1.6560   -1.4620 c3        1 1P9     -0.078400
     30 C1         11.0980   -2.7210   -0.7560 c3        1 1P9     -0.088100
     31 H1          2.4090    1.8830    2.1460 hn        1 1P9      0.336500
     32 H2          2.9530    1.6860   -1.8430 hc        1 1P9      0.097200
     33 H3          1.8710    0.2510   -1.5320 hc        1 1P9      0.097200
     34 H4          4.5910    0.3630    2.9810 ha        1 1P9      0.147000
     35 H5          6.4560   -1.7470   -0.3430 ha        1 1P9      0.185000
     36 H6          4.7000   -2.1140   -2.3340 h1        1 1P9      0.070700
     37 H7          3.8590   -0.5540   -2.8320 h1        1 1P9      0.070700
     38 H8          9.2490    1.9250   -4.6540 ha        1 1P9      0.227000
     39 H9          7.7330    3.8750   -5.1250 ha        1 1P9      0.131000
     40 H10         5.3080    3.7750   -4.6110 ha        1 1P9      0.117000
     41 H11         4.2870    1.7320   -3.6190 ha        1 1P9      0.117000
     42 H12        10.1820    0.1530   -3.4750 h1        1 1P9      0.103700
     43 H13         8.8440   -0.7500   -5.8120 hc        1 1P9      0.043200
     44 H14         9.9630   -2.1160   -5.4320 hc        1 1P9      0.043200
     45 H16         9.5390   -2.8750   -3.0830 hc        1 1P9      0.062200
     46 H17        11.1810   -2.1590   -3.3740 hc        1 1P9      0.062200
     47 H18        10.7910   -0.6580   -1.3200 hc        1 1P9      0.039700
     48 H19         9.2740   -1.5940   -1.0030 hc        1 1P9      0.039700
     49 H20        11.1690   -2.4950    0.3360 hc        1 1P9      0.024700
     50 H21        10.6150   -3.7200   -0.8790 hc        1 1P9      0.024700
     51 H22        12.1330   -2.7770   -1.1730 hc        1 1P9      0.024700
@<TRIPOS>BOND
     1    1    2 2   
     2    2    3 1   
     3    2    4 1   
     4    3    6 1   
     5    3   31 1   
     6    4    5 1   
     7    4   32 1   
     8    4   33 1   
     9    5    6 ar  
    10    5   11 ar  
    11    6    7 ar  
    12    7    8 ar  
    13    7   34 1   
    14    8    9 1   
    15    8   10 ar  
    16   10   11 ar  
    17   10   35 1   
    18   11   12 1   
    19   12   13 1   
    20   12   36 1   
    21   12   37 1   
    22   13   14 1   
    23   13   16 1   
    24   14   15 2   
    25   14   22 1   
    26   16   17 ar  
    27   16   21 ar  
    28   17   18 ar  
    29   17   22 1   
    30   18   19 ar  
    31   18   38 1   
    32   19   20 ar  
    33   19   39 1   
    34   20   21 ar  
    35   20   40 1   
    36   21   41 1   
    37   22   23 1   
    38   23   24 1   
    39   23   28 1   
    40   23   42 1   
    41   24   25 1   
    42   24   43 1   
    43   24   44 1   
    44   25   26 1   
    45   25   27 1   
    46   28   29 1   
    47   28   45 1   
    48   28   46 1   
    49   29   30 1   
    50   29   47 1   
    51   29   48 1   
    52   30   49 1   
    53   30   50 1   
    54   30   51 1   
@<TRIPOS>SUBSTRUCTURE
     1 1P9         1 TEMP              0 ****  ****    0 ROOT
