@<TRIPOS>MOLECULE
1PA
   27    27     1     0     0
SMALL
bcc


@<TRIPOS>ATOM
      1 N          -2.8480    1.5220   -0.8570 n3        1 1PA     -0.903800
      2 CA         -3.0100    0.1310   -0.4770 c3        1 1PA      0.041500
      3 CB         -2.0370   -0.3700    0.6070 c3        1 1PA     -0.055100
      4 CG         -0.6040   -0.2320    0.2340 ca        1 1PA     -0.084300
      5 CD1         0.1810    0.8060    0.7520 ca        1 1PA     -0.145000
      6 CE1         1.5280    0.9220    0.4170 ca        1 1PA     -0.141500
      7 CD2        -0.0010   -1.1570   -0.6280 ca        1 1PA     -0.145000
      8 CE2         1.3450   -1.0410   -0.9660 ca        1 1PA     -0.141500
      9 CZ          2.1280    0.0030   -0.4540 ca        1 1PA     -0.042300
     10 CH          3.5440    0.1530   -0.8690 c3        1 1PA     -0.157100
     11 CO          4.5330    0.4770    0.2680 c         1 1PA      0.915600
     12 O1          5.4330   -0.3760    0.5240 o         1 1PA     -0.855800
     13 O2          4.4490    1.5960    0.8540 o         1 1PA     -0.855800
     14 C          -4.4510   -0.1980    0.0340 c         1 1PA      0.909600
     15 O          -5.0770    0.6840    0.6910 o         1 1PA     -0.853300
     16 OXT        -4.9120   -1.3450   -0.2250 o         1 1PA     -0.853300
     17 H          -3.5310    2.0750   -0.3680 hn        1 1PA      0.334300
     18 H2         -1.9370    1.8450   -0.5850 hn        1 1PA      0.334300
     19 HA         -2.8270   -0.4800   -1.4090 h1        1 1PA      0.045700
     20 HB2        -2.2400    0.1860    1.5600 hc        1 1PA      0.046200
     21 HB3        -2.2770   -1.4510    0.7890 hc        1 1PA      0.046200
     22 HD1        -0.2740    1.5370    1.4370 ha        1 1PA      0.113500
     23 HE1         2.1600    1.7220    0.8440 ha        1 1PA      0.137500
     24 HD2        -0.6060   -1.9760   -1.0420 ha        1 1PA      0.113500
     25 HE2         1.8000   -1.7790   -1.6410 ha        1 1PA      0.137500
     26 HH2         3.8950   -0.7790   -1.3830 hc        1 1PA      0.028200
     27 HH3         3.6060    0.9980   -1.6070 hc        1 1PA      0.028200
@<TRIPOS>BOND
     1    1    2 1   
     2    1   17 1   
     3    1   18 1   
     4    2    3 1   
     5    2   14 1   
     6    2   19 1   
     7    3    4 1   
     8    3   20 1   
     9    3   21 1   
    10    4    5 ar  
    11    4    7 ar  
    12    5    6 ar  
    13    5   22 1   
    14    6    9 ar  
    15    6   23 1   
    16    7    8 ar  
    17    7   24 1   
    18    8    9 ar  
    19    8   25 1   
    20    9   10 1   
    21   10   11 1   
    22   10   26 1   
    23   10   27 1   
    24   11   12 1   
    25   11   13 1   
    26   14   15 1   
    27   14   16 1   
@<TRIPOS>SUBSTRUCTURE
     1 1PA         1 TEMP              0 ****  ****    0 ROOT
