@<TRIPOS>MOLECULE
1PD
   58    61     1     0     0
SMALL
bcc


@<TRIPOS>ATOM
      1 O31        -0.0340    0.9200    1.3350 o         1 1PD     -0.659300
      2 S35         1.2730    0.4860    1.5010 sy        1 1PD      1.542200
      3 O30         1.4010   -0.9350    1.5550 o         1 1PD     -0.659300
      4 C8          1.9590    0.9690    2.9470 ca        1 1PD     -0.444500
      5 C3          1.4130    0.3470    4.0840 ca        1 1PD     -0.141000
      6 C7          2.1310    0.3350    5.2620 ca        1 1PD      0.034100
      7 O33         1.8700   -0.5460    6.3090 os        1 1PD     -0.296900
      8 C18         0.7060   -1.3310    6.2070 c3        1 1PD      0.066400
      9 C15         0.7980   -2.5090    5.2450 c         1 1PD      0.500100
     10 O29         0.0880   -3.5010    5.2910 o         1 1PD     -0.394100
     11 N27         1.8140   -2.4950    4.1360 nz        1 1PD     -0.764400
     12 C2          3.2650    1.1720    5.4260 ca        1 1PD     -0.057000
     13 N25         2.3010    1.1650    0.4250 nu        1 1PD     -0.841100
     14 C13         3.3300    2.0710    0.7130 ce        1 1PD      0.842500
     15 N23         3.7280    2.3410    1.9590 nf        1 1PD     -0.737100
     16 C6          3.1240    1.7510    3.0600 ca        1 1PD      0.309400
     17 C1          3.7280    1.8980    4.3520 ca        1 1PD     -0.100000
     18 C11         4.0390    2.7380   -0.3980 cc        1 1PD     -0.423800
     19 C12         5.3190    3.2760   -0.2600 cd        1 1PD      0.219500
     20 O32         6.0960    3.2520    0.8380 oh        1 1PD     -0.450100
     21 C14         3.3590    2.8990   -1.6920 c         1 1PD      0.698700
     22 O28         2.2130    2.4840   -1.9570 o         1 1PD     -0.638500
     23 N26         4.0830    3.5710   -2.7270 n         1 1PD     -0.167800
     24 C20         3.4030    3.8210   -4.0200 c3        1 1PD      0.100000
     25 C19         2.9260    5.2590   -4.1910 c3        1 1PD     -0.097400
     26 C21         2.2300    5.4310   -5.5350 c3        1 1PD     -0.064700
     27 C17         0.8380    4.8330   -5.5190 c3        1 1PD     -0.094600
     28 C16         2.1620    6.9030   -5.8900 c3        1 1PD     -0.094600
     29 N24         5.2900    4.0560   -2.5730 nc        1 1PD     -0.368300
     30 C10         5.9450    3.9270   -1.4170 cd        1 1PD      0.402200
     31 C9          7.2920    4.4500   -1.3280 cd        1 1PD     -0.264300
     32 S34         8.3750    4.4950   -2.6230 ss        1 1PD     -0.006300
     33 C5          9.5510    5.2220   -1.6430 cd        1 1PD      0.368300
     34 N22         9.1860    5.4490   -0.3800 nc        1 1PD     -0.623000
     35 C4          7.8910    5.0120   -0.1960 cc        1 1PD      0.375200
     36 H3          0.4170   -0.1190    3.9940 ha        1 1PD      0.145000
     37 H18         0.5830   -1.7620    7.2490 h1        1 1PD      0.141700
     38 H18A       -0.2050   -0.7310    5.9310 h1        1 1PD      0.141700
     39 HN27        2.6440   -1.9680    4.4250 hn        1 1PD      0.483800
     40 HN2A        1.4220   -2.0430    3.2820 hn        1 1PD      0.483800
     41 H2          3.7570    1.2240    6.4120 ha        1 1PD      0.180000
     42 HN25        2.1300    1.0320   -0.5590 hn        1 1PD      0.507800
     43 H1          4.5880    2.5790    4.4730 ha        1 1PD      0.180000
     44 HO32        5.6250    2.8590    1.6000 ho        1 1PD      0.475000
     45 H20         4.1220    3.5590   -4.8480 h1        1 1PD      0.087700
     46 H20A        2.5260    3.1150   -4.0690 h1        1 1PD      0.087700
     47 H19         3.8020    5.9590   -4.1360 hc        1 1PD      0.059200
     48 H19A        2.2190    5.5350   -3.3660 hc        1 1PD      0.059200
     49 H21         2.8370    4.9040   -6.3250 hc        1 1PD      0.048700
     50 H17         0.8770    3.7390   -5.3010 hc        1 1PD      0.040200
     51 H17A        0.3490    4.9780   -6.5130 hc        1 1PD      0.040200
     52 H17B        0.2070    5.3270   -4.7410 hc        1 1PD      0.040200
     53 H16         1.6420    7.0380   -6.8690 hc        1 1PD      0.040200
     54 H16A        1.6000    7.4690   -5.1090 hc        1 1PD      0.040200
     55 H16B        3.1890    7.3350   -5.9720 hc        1 1PD      0.040200
     56 H5         10.5480    5.5020   -2.0010 h5        1 1PD      0.067100
     57 H4          7.4280    5.1220    0.7930 h4        1 1PD      0.054100
     58 H273        2.0800   -3.4550    3.8850 hn        1 1PD      0.483800
@<TRIPOS>BOND
     1    1    2 2   
     2    2    3 2   
     3    2    4 1   
     4    2   13 1   
     5    4    5 ar  
     6    4   16 ar  
     7    5    6 ar  
     8    5   36 1   
     9    6    7 1   
    10    6   12 ar  
    11    7    8 1   
    12    8    9 1   
    13    8   37 1   
    14    8   38 1   
    15    9   10 2   
    16    9   11 1   
    17   11   39 1   
    18   11   40 1   
    19   11   58 1   
    20   12   17 ar  
    21   12   41 1   
    22   13   14 1   
    23   13   42 1   
    24   14   15 2   
    25   14   18 1   
    26   15   16 1   
    27   16   17 ar  
    28   17   43 1   
    29   18   19 2   
    30   18   21 1   
    31   19   20 1   
    32   19   30 1   
    33   20   44 1   
    34   21   22 2   
    35   21   23 1   
    36   23   24 1   
    37   23   29 1   
    38   24   25 1   
    39   24   45 1   
    40   24   46 1   
    41   25   26 1   
    42   25   47 1   
    43   25   48 1   
    44   26   27 1   
    45   26   28 1   
    46   26   49 1   
    47   27   50 1   
    48   27   51 1   
    49   27   52 1   
    50   28   53 1   
    51   28   54 1   
    52   28   55 1   
    53   29   30 2   
    54   30   31 1   
    55   31   32 1   
    56   31   35 2   
    57   32   33 1   
    58   33   34 2   
    59   33   56 1   
    60   34   35 1   
    61   35   57 1   
@<TRIPOS>SUBSTRUCTURE
     1 1PD         1 TEMP              0 ****  ****    0 ROOT
