@<TRIPOS>MOLECULE
1PD
   58    61     1     0     0
SMALL
bcc


@<TRIPOS>ATOM
      1 O31        -0.0270    0.8950    1.3110 o         1 1PD     -0.659300
      2 S35         1.2810    0.4700    1.4870 sy        1 1PD      1.542200
      3 O30         1.4200   -0.9500    1.5440 o         1 1PD     -0.659300
      4 C8          1.9540    0.9600    2.9380 ca        1 1PD     -0.444500
      5 C3          1.4030    0.3360    4.0710 ca        1 1PD     -0.141000
      6 C7          2.1130    0.3300    5.2540 ca        1 1PD      0.034100
      7 O33         1.8500   -0.5510    6.3010 os        1 1PD     -0.296900
      8 C18         0.6930   -1.3450    6.1920 c3        1 1PD      0.066400
      9 C15         0.8000   -2.5220    5.2320 c         1 1PD      0.500100
     10 O29         0.0960   -3.5190    5.2740 o         1 1PD     -0.394100
     11 N27         1.8240   -2.5040    4.1310 n4        1 1PD     -0.764400
     12 C2          3.2400    1.1760    5.4260 ca        1 1PD     -0.057000
     13 N25         2.3120    1.1560    0.4180 nh        1 1PD     -0.841100
     14 C13         3.3320    2.0690    0.7130 ce        1 1PD      0.842500
     15 N23         3.7200    2.3430    1.9610 nf        1 1PD     -0.737100
     16 C6          3.1120    1.7500    3.0580 ca        1 1PD      0.309400
     17 C1          3.7050    1.9030    4.3540 ca        1 1PD     -0.100000
     18 C11         4.0450    2.7410   -0.3940 cc        1 1PD     -0.423800
     19 C12         5.3200    3.2870   -0.2470 cd        1 1PD      0.219500
     20 O32         6.0890    3.2700    0.8550 oh        1 1PD     -0.450100
     21 C14         3.3730    2.8950   -1.6930 c         1 1PD      0.698700
     22 O28         2.2320    2.4710   -1.9660 o         1 1PD     -0.638500
     23 N26         4.0990    3.5720   -2.7240 n         1 1PD     -0.167800
     24 C20         3.4260    3.8160   -4.0210 c3        1 1PD      0.100000
     25 C19         2.9340    5.2500   -4.1930 c3        1 1PD     -0.097400
     26 C21         2.2480    5.4160   -5.5430 c3        1 1PD     -0.064700
     27 C17         0.8630    4.8020   -5.5410 c3        1 1PD     -0.094600
     28 C16         2.1650    6.8880   -5.8950 c3        1 1PD     -0.094600
     29 N24         5.3010    4.0670   -2.5620 nc        1 1PD     -0.368300
     30 C10         5.9490    3.9430   -1.4010 cd        1 1PD      0.402200
     31 C9          7.2900    4.4770   -1.3030 cd        1 1PD     -0.264300
     32 S34         8.3820    4.5300   -2.5910 ss        1 1PD     -0.006300
     33 C5          9.5460    5.2680   -1.6030 cd        1 1PD      0.368300
     34 N22         9.1700    5.4920   -0.3420 nc        1 1PD     -0.623000
     35 C4          7.8780    5.0440   -0.1670 cc        1 1PD      0.375200
     36 H3          0.4110   -0.1370    3.9750 ha        1 1PD      0.145000
     37 H18         0.5650   -1.7740    7.2330 h1        1 1PD      0.141700
     38 H18A       -0.2210   -0.7500    5.9090 h1        1 1PD      0.141700
     39 HN27        2.0990   -3.4620    3.8840 hn        1 1PD      0.483800
     40 HN2A        1.4360   -2.0550    3.2730 hn        1 1PD      0.483800
     41 H2          3.7240    1.2330    6.4150 ha        1 1PD      0.180000
     42 HN25        2.1500    1.0190   -0.5670 hn        1 1PD      0.507800
     43 H1          4.5600    2.5900    4.4810 ha        1 1PD      0.180000
     44 HO32        5.6160    2.8740    1.6140 ho        1 1PD      0.475000
     45 H20         4.1530    3.5630   -4.8450 h1        1 1PD      0.087700
     46 H20A        2.5560    3.1010   -4.0770 h1        1 1PD      0.087700
     47 H19         3.8020    5.9590   -4.1300 hc        1 1PD      0.059200
     48 H19A        2.2170    5.5160   -3.3740 hc        1 1PD      0.059200
     49 H21         2.8680    4.8990   -6.3300 hc        1 1PD      0.048700
     50 H17         0.3800    4.9440   -6.5380 hc        1 1PD      0.040200
     51 H17A        0.9130    3.7080   -5.3270 hc        1 1PD      0.040200
     52 H17B        0.2200    5.2850   -4.7670 hc        1 1PD      0.040200
     53 H16         1.6520    7.0190   -6.8780 hc        1 1PD      0.040200
     54 H16A        3.1870    7.3330   -5.9670 hc        1 1PD      0.040200
     55 H16B        1.5890    7.4450   -5.1180 hc        1 1PD      0.040200
     56 H5         10.5430    5.5550   -1.9540 h5        1 1PD      0.067100
     57 H4          7.4070    5.1500    0.8190 h4        1 1PD      0.054100
     58 H273        2.6490   -1.9710    4.4250 hn        1 1PD      0.483800
@<TRIPOS>BOND
     1    1    2 2   
     2    2    3 2   
     3    2    4 1   
     4    2   13 1   
     5    4    5 ar  
     6    4   16 ar  
     7    5    6 ar  
     8    5   36 1   
     9    6    7 1   
    10    6   12 ar  
    11    7    8 1   
    12    8    9 1   
    13    8   37 1   
    14    8   38 1   
    15    9   10 2   
    16    9   11 1   
    17   11   39 1   
    18   11   40 1   
    19   11   58 1   
    20   12   17 ar  
    21   12   41 1   
    22   13   14 1   
    23   13   42 1   
    24   14   15 2   
    25   14   18 1   
    26   15   16 1   
    27   16   17 ar  
    28   17   43 1   
    29   18   19 2   
    30   18   21 1   
    31   19   20 1   
    32   19   30 1   
    33   20   44 1   
    34   21   22 2   
    35   21   23 1   
    36   23   24 1   
    37   23   29 1   
    38   24   25 1   
    39   24   45 1   
    40   24   46 1   
    41   25   26 1   
    42   25   47 1   
    43   25   48 1   
    44   26   27 1   
    45   26   28 1   
    46   26   49 1   
    47   27   50 1   
    48   27   51 1   
    49   27   52 1   
    50   28   53 1   
    51   28   54 1   
    52   28   55 1   
    53   29   30 2   
    54   30   31 1   
    55   31   32 1   
    56   31   35 2   
    57   32   33 1   
    58   33   34 2   
    59   33   56 1   
    60   34   35 1   
    61   35   57 1   
@<TRIPOS>SUBSTRUCTURE
     1 1PD         1 TEMP              0 ****  ****    0 ROOT
