@<TRIPOS>MOLECULE
1PD
   57    52     1     0     0
SMALL
bcc


@<TRIPOS>ATOM
      1 O31        -1.9520   -2.4380   -2.4130 o         1 1PD     -0.918000
      2 S35        -1.0740   -2.2480   -1.2920 ss        1 1PD      2.861000
      3 O30         0.0240   -3.1700   -1.3920 o         1 1PD     -0.918000
      4 C8         -1.9450   -2.5940    0.1440 c1        1 1PD     -0.371500
      5 C3         -2.6930   -3.7730    0.2350 c1        1 1PD     -0.066000
      6 C7         -3.5350   -3.9790    1.3210 c1        1 1PD      0.033000
      7 O33        -4.3610   -5.0320    1.7500 os        1 1PD     -0.209000
      8 C18        -3.6540   -6.1670    2.1930 c3        1 1PD     -0.050000
      9 C15        -4.6300   -7.2860    2.4900 c2        1 1PD      0.266000
     10 O29        -5.4780   -7.1410    3.3470 o         1 1PD     -0.373000
     11 N27        -4.5270   -8.5190    1.7960 n         1 1PD     -0.415000
     12 C2         -3.6340   -3.0150    2.3170 c1        1 1PD     -0.120000
     13 N25        -0.4990   -0.7770   -1.3500 n2        1 1PD     -0.816000
     14 C13        -0.7640    0.1340   -0.2760 c2        1 1PD      0.256000
     15 N23        -1.2090   -0.3870    1.0510 n1        1 1PD     -0.275000
     16 C6         -2.0430   -1.6380    1.1310 c1        1 1PD     -0.371500
     17 C1         -2.8940   -1.8470    2.2270 c1        1 1PD     -0.066000
     18 C11        -0.7260    1.6250   -0.5250 c2        1 1PD     -0.280000
     19 C12        -0.7780    2.2940    0.6070 c1        1 1PD      0.229000
     20 O32        -1.9620    2.2970    1.3680 o         1 1PD     -0.218000
     21 C14         0.4050    2.0790   -1.4110 c2        1 1PD      0.337000
     22 O28         0.3580    3.2540   -1.7050 o         1 1PD     -0.355000
     23 N26         1.5750    1.7620   -0.9850 n         1 1PD     -0.210000
     24 C20         2.6560    1.6380   -1.9030 c3        1 1PD     -0.015000
     25 C19         3.1180    3.0170   -2.3290 c3        1 1PD     -0.174000
     26 C21         4.3180    2.8870   -3.2430 c3        1 1PD     -0.105000
     27 C17         5.4720    3.6880   -2.6790 c3        1 1PD     -0.210500
     28 C16         3.9650    3.4130   -4.6180 c3        1 1PD     -0.210500
     29 N24         1.8440    2.0430    0.4330 n2        1 1PD      0.028000
     30 C10         0.5740    2.4820    1.2960 c2        1 1PD     -0.054000
     31 C9          0.7270    3.5070    2.3980 c2        1 1PD     -0.358000
     32 S34        -0.4080    4.1330    3.2020 ss        1 1PD      0.550000
     33 C5          0.2300    5.0100    4.3000 c1        1 1PD     -0.356000
     34 N22         1.6480    4.9190    4.1660 n2        1 1PD     -0.102000
     35 C4          1.9730    3.9670    2.9620 c1        1 1PD     -0.095000
     36 H3         -2.6360   -4.4430   -0.4720 ha        1 1PD      0.162500
     37 H18        -3.0290   -6.4560    1.4960 h1        1 1PD      0.131500
     38 H18A       -3.1560   -5.9450    3.0070 h1        1 1PD      0.131500
     39 HN27       -5.1040   -9.2010    1.9880 hn        1 1PD      0.233000
     40 HN2A       -3.8720   -8.6370    1.1690 hn        1 1PD      0.233000
     41 H2         -4.2260   -3.1600    3.0800 ha        1 1PD      0.165000
     42 HN25       -0.0560   -0.4890   -2.0930 hn        1 1PD      0.282000
     43 H1         -2.9640   -1.1700    2.9270 ha        1 1PD      0.162500
     44 HO32       -2.6130    2.6820    0.9010 ho        1 1PD      0.271000
     45 H20         3.3970    1.1640   -1.4720 h1        1 1PD      0.123000
     46 H20A        2.3600    1.1350   -2.6900 h1        1 1PD      0.123000
     47 H19         2.3940    3.4710   -2.8050 hc        1 1PD      0.095000
     48 H19A        3.3660    3.5370   -1.5390 hc        1 1PD      0.095000
     49 H21         4.5760    1.9480   -3.3110 hc        1 1PD      0.091000
     50 H17         5.2150    4.6320   -2.6170 hc        1 1PD      0.076167
     51 H17A        6.2510    3.5990   -3.2670 hc        1 1PD      0.076167
     52 H17B        5.6970    3.3520   -1.7860 hc        1 1PD      0.076167
     53 H16         4.7340    3.3070   -5.2160 hc        1 1PD      0.076167
     54 H16A        3.7290    4.3630   -4.5540 hc        1 1PD      0.076167
     55 H16B        3.2020    2.9110   -4.9740 hc        1 1PD      0.076167
     56 H5         -0.2520    5.5350    4.9670 DU        1 1PD      0.195500
     57 H4          2.8660    3.7270    2.6480 DU        1 1PD      0.195500
@<TRIPOS>BOND
     1    1    2 1   
     2    2    3 1   
     3    4    5 1   
     4    4   16 1   
     5    5   36 1   
     6    6    7 1   
     7    6   12 1   
     8    7    8 1   
     9    8    9 1   
    10    8   37 1   
    11    8   38 1   
    12    9   10 1   
    13    9   11 1   
    14   11   39 1   
    15   11   40 1   
    16   12   41 1   
    17   13   14 1   
    18   13   42 1   
    19   14   15 1   
    20   14   18 1   
    21   16   17 1   
    22   17   43 1   
    23   18   19 1   
    24   18   21 1   
    25   19   30 1   
    26   20   44 1   
    27   21   22 1   
    28   21   23 1   
    29   23   24 1   
    30   23   29 1   
    31   24   25 1   
    32   24   45 1   
    33   24   46 1   
    34   25   26 1   
    35   25   47 1   
    36   25   48 1   
    37   26   27 1   
    38   26   28 1   
    39   26   49 1   
    40   27   50 1   
    41   27   51 1   
    42   27   52 1   
    43   28   53 1   
    44   28   54 1   
    45   28   55 1   
    46   29   30 1   
    47   30   31 1   
    48   31   32 1   
    49   31   35 1   
    50   32   33 1   
    51   33   34 1   
    52   34   35 1   
@<TRIPOS>SUBSTRUCTURE
     1 1PD         1 TEMP              0 ****  ****    0 ROOT
