@<TRIPOS>MOLECULE
1PD
   58    61     1     0     0
SMALL
bcc


@<TRIPOS>ATOM
      1 O31         1.5860   -0.9610    1.3060 o         1 1PD     -0.659800
      2 S35         2.9900   -0.7130    1.2760 sy        1 1PD      1.543200
      3 O30         3.7560   -1.8470    1.0470 o         1 1PD     -0.659800
      4 C8          3.2730   -0.0100    2.7700 ca        1 1PD     -0.438500
      5 C3          2.7590   -0.7380    3.8570 ca        1 1PD     -0.144000
      6 C7          2.5580   -0.1030    5.0660 ca        1 1PD      0.038100
      7 O33         1.7340   -0.6080    6.0690 os        1 1PD     -0.296900
      8 C18         1.2230   -1.9080    5.8860 c3        1 1PD      0.066400
      9 C15         0.0680   -2.0180    4.8990 c         1 1PD      0.500100
     10 O29        -0.7580   -2.9170    4.8970 o         1 1PD     -0.394100
     11 N27        -0.1060   -0.9800    3.8260 n4        1 1PD     -0.764400
     12 C2          3.1150    1.1770    5.3120 ca        1 1PD     -0.060000
     13 N25         3.4040    0.5090    0.2750 nh        1 1PD     -0.843100
     14 C13         4.0270    1.7080    0.6470 ce        1 1PD      0.826500
     15 N23         4.2200    2.0810    1.9110 nf        1 1PD     -0.708100
     16 C6          3.7700    1.2920    2.9650 ca        1 1PD      0.297400
     17 C1          3.7470    1.8460    4.2860 ca        1 1PD     -0.092000
     18 C11         4.4930    2.6180   -0.4210 cc        1 1PD     -0.422800
     19 C12         5.6250    3.4140   -0.2920 cd        1 1PD      0.211500
     20 O32         6.4750    3.4480    0.7520 oh        1 1PD     -0.443100
     21 C14         3.6900    2.7270   -1.6450 c         1 1PD      0.699700
     22 O28         2.6460    2.0800   -1.8660 o         1 1PD     -0.646500
     23 N26         4.1610    3.6340   -2.6430 n         1 1PD     -0.168800
     24 C20         3.3620    3.8130   -3.8760 c3        1 1PD      0.100000
     25 C19         2.6110    5.1390   -3.9350 c3        1 1PD     -0.096400
     26 C21         1.8000    5.2320   -5.2210 c3        1 1PD     -0.065700
     27 C17         0.5470    4.3840   -5.1500 c3        1 1PD     -0.094100
     28 C16         1.4360    6.6780   -5.4910 c3        1 1PD     -0.094100
     29 N24         5.2350    4.3770   -2.5020 nc        1 1PD     -0.374300
     30 C10         5.9890    4.3040   -1.4020 cd        1 1PD      0.412200
     31 C9          7.1760    5.1270   -1.3260 cd        1 1PD     -0.268300
     32 S34         8.1080    5.5710   -2.6620 ss        1 1PD     -0.003300
     33 C5          9.1550    6.4560   -1.6660 cd        1 1PD      0.368300
     34 N22         8.8530    6.4510   -0.3660 nc        1 1PD     -0.623000
     35 C4          7.7190    5.6930   -0.1670 cc        1 1PD      0.376200
     36 H3          2.5250   -1.8060    3.7050 ha        1 1PD      0.145000
     37 H18         2.0130   -2.6500    5.5790 h1        1 1PD      0.141200
     38 H18A        0.8150   -2.1800    6.9080 h1        1 1PD      0.141200
     39 HN27        0.2280   -0.0690    4.1570 hn        1 1PD      0.484133
     40 HN2A       -1.0940   -0.9100    3.5540 hn        1 1PD      0.484133
     41 H2          3.0290    1.6180    6.3190 ha        1 1PD      0.181000
     42 HN25        3.1880    0.4470   -0.7070 hn        1 1PD      0.506800
     43 H1          4.2050    2.8340    4.4680 ha        1 1PD      0.183000
     44 HO32        6.1910    2.8440    1.4610 ho        1 1PD      0.466000
     45 H20         2.6320    2.9540   -3.9190 h1        1 1PD      0.087200
     46 H20A        4.0610    3.7350   -4.7580 h1        1 1PD      0.087200
     47 H19         1.9260    5.2380   -3.0530 hc        1 1PD      0.058200
     48 H19A        3.3400    5.9910   -3.8960 hc        1 1PD      0.058200
     49 H21         2.4350    4.8620   -6.0760 hc        1 1PD      0.050700
     50 H17        -0.0290    4.4720   -6.1030 hc        1 1PD      0.039533
     51 H17A        0.8030    3.3090   -4.9920 hc        1 1PD      0.039533
     52 H17B       -0.1080    4.7200   -4.3100 hc        1 1PD      0.039533
     53 H16         0.8290    6.7530   -6.4260 hc        1 1PD      0.039533
     54 H16A        2.3560    7.2980   -5.6150 hc        1 1PD      0.039533
     55 H16B        0.8370    7.0970   -4.6460 hc        1 1PD      0.039533
     56 H5         10.0260    7.0060   -2.0400 h5        1 1PD      0.067100
     57 H4          7.3290    5.5770    0.8520 h4        1 1PD      0.054100
     58 H273        0.4380   -1.2360    2.9740 hn        1 1PD      0.484133
@<TRIPOS>BOND
     1    1    2 2   
     2    2    3 2   
     3    2    4 1   
     4    2   13 1   
     5    4    5 ar  
     6    4   16 ar  
     7    5    6 ar  
     8    5   36 1   
     9    6    7 1   
    10    6   12 ar  
    11    7    8 1   
    12    8    9 1   
    13    8   37 1   
    14    8   38 1   
    15    9   10 2   
    16    9   11 1   
    17   11   39 1   
    18   11   40 1   
    19   11   58 1   
    20   12   17 ar  
    21   12   41 1   
    22   13   14 1   
    23   13   42 1   
    24   14   15 2   
    25   14   18 1   
    26   15   16 1   
    27   16   17 ar  
    28   17   43 1   
    29   18   19 2   
    30   18   21 1   
    31   19   20 1   
    32   19   30 1   
    33   20   44 1   
    34   21   22 2   
    35   21   23 1   
    36   23   24 1   
    37   23   29 1   
    38   24   25 1   
    39   24   45 1   
    40   24   46 1   
    41   25   26 1   
    42   25   47 1   
    43   25   48 1   
    44   26   27 1   
    45   26   28 1   
    46   26   49 1   
    47   27   50 1   
    48   27   51 1   
    49   27   52 1   
    50   28   53 1   
    51   28   54 1   
    52   28   55 1   
    53   29   30 2   
    54   30   31 1   
    55   31   32 1   
    56   31   35 2   
    57   32   33 1   
    58   33   34 2   
    59   33   56 1   
    60   34   35 1   
    61   35   57 1   
@<TRIPOS>SUBSTRUCTURE
     1 1PD         1 TEMP              0 ****  ****    0 ROOT
