@<TRIPOS>MOLECULE
1PD
   57    60     1     0     0
SMALL
bcc


@<TRIPOS>ATOM
      1 O31         2.2060   -1.2180    3.0610 o         1 1PD     -0.642300
      2 S35         2.0500   -1.5830    1.7190 sy        1 1PD      1.521200
      3 O30         2.3700   -2.9170    1.4370 o         1 1PD     -0.642300
      4 C8          2.9250   -0.5340    0.7330 ca        1 1PD     -0.385500
      5 C3          4.3150   -0.6800    0.7300 ca        1 1PD     -0.038000
      6 C7          5.1140    0.1740   -0.0380 ca        1 1PD      0.095100
      7 O33         6.4730   -0.0860    0.0270 os        1 1PD     -0.336900
      8 C18         7.3160    0.8930   -0.5830 c3        1 1PD      0.052400
      9 C15         8.7770    0.5630   -0.2850 c         1 1PD      0.658100
     10 O29         9.6580    1.0450   -1.0280 o         1 1PD     -0.613100
     11 N27         9.1040   -0.1900    0.8080 n         1 1PD     -0.650000
     12 C2          4.5320    1.1850   -0.8160 ca        1 1PD     -0.131000
     13 N25         0.5090   -1.2690    1.2290 nh        1 1PD     -0.846100
     14 C13         0.1170   -0.1500    0.4830 ce        1 1PD      0.769500
     15 N23         0.9400    0.6780   -0.1280 nf        1 1PD     -0.627100
     16 C6          2.3280    0.4780   -0.0590 ca        1 1PD      0.229400
     17 C1          3.1540    1.3340   -0.8260 ca        1 1PD     -0.094000
     18 C11        -1.3420    0.1050    0.3690 cc        1 1PD     -0.325800
     19 C12        -1.9000    1.3420    0.6140 cd        1 1PD      0.161500
     20 O32        -1.1190    2.3470    1.0830 oh        1 1PD     -0.445100
     21 C14        -2.2010   -1.0030   -0.0480 c         1 1PD      0.693700
     22 O28        -1.8240   -2.1760   -0.2080 o         1 1PD     -0.616500
     23 N26        -3.5830   -0.6760   -0.2810 n         1 1PD     -0.180800
     24 C20        -4.4920   -1.7450   -0.7420 c3        1 1PD      0.099000
     25 C19        -5.4700   -2.2260    0.3250 c3        1 1PD     -0.095400
     26 C21        -6.3350   -3.3560   -0.2160 c3        1 1PD     -0.064700
     27 C17        -5.5740   -4.6640   -0.2610 c3        1 1PD     -0.093100
     28 C16        -7.5780   -3.5050    0.6380 c3        1 1PD     -0.093100
     29 N24        -4.0980    0.5090   -0.0590 nc        1 1PD     -0.368300
     30 C10        -3.3350    1.5140    0.3800 cd        1 1PD      0.340200
     31 C9         -3.9560    2.8010    0.6190 cd        1 1PD     -0.264300
     32 S34        -4.8850    3.6360   -0.5090 ss        1 1PD      0.001700
     33 C5         -5.1650    4.8810    0.6080 cd        1 1PD      0.355300
     34 N22        -4.6050    4.7120    1.8080 nc        1 1PD     -0.618000
     35 C4         -3.9170    3.5170    1.8220 cc        1 1PD      0.335200
     36 H3          4.7930   -1.4760    1.3270 ha        1 1PD      0.163000
     37 H18         7.1690    0.8780   -1.6950 h1        1 1PD      0.074700
     38 H18A        7.0910    1.9140   -0.1720 h1        1 1PD      0.074700
     39 HN27        8.3980   -0.6530    1.3230 hn        1 1PD      0.320000
     40 HN2A       10.0510   -0.4330    0.9630 hn        1 1PD      0.320000
     41 H2          5.1540    1.8600   -1.4240 ha        1 1PD      0.147000
     42 HN25       -0.2210   -1.9320    1.3890 hn        1 1PD      0.478800
     43 H1          2.6960    2.1270   -1.4410 ha        1 1PD      0.158000
     44 HO32       -1.6380    3.1710    1.1050 ho        1 1PD      0.448000
     45 H20        -5.0660   -1.3620   -1.6330 h1        1 1PD      0.082700
     46 H20A       -3.8400   -2.6020   -1.0780 h1        1 1PD      0.082700
     47 H19        -4.9130   -2.5830    1.2300 hc        1 1PD      0.057700
     48 H19A       -6.1290   -1.3760    0.6460 hc        1 1PD      0.057700
     49 H21        -6.6570   -3.0940   -1.2640 hc        1 1PD      0.046700
     50 H17        -6.2260   -5.4750   -0.6660 hc        1 1PD      0.038033
     51 H17A       -4.6720   -4.5770   -0.9130 hc        1 1PD      0.038033
     52 H17B       -5.2410   -4.9600    0.7640 hc        1 1PD      0.038033
     53 H16        -8.1830   -2.5670    0.6180 hc        1 1PD      0.038033
     54 H16A       -8.2100   -4.3430    0.2570 hc        1 1PD      0.038033
     55 H16B       -7.3010   -3.7250    1.6970 hc        1 1PD      0.038033
     56 H5         -5.7650    5.7700    0.3870 h5        1 1PD      0.063100
     57 H4         -3.4090    3.2040    2.7430 h4        1 1PD      0.055100
@<TRIPOS>BOND
     1    1    2 2   
     2    2    3 2   
     3    2    4 1   
     4    2   13 1   
     5    4    5 ar  
     6    4   16 ar  
     7    5    6 ar  
     8    5   36 1   
     9    6    7 1   
    10    6   12 ar  
    11    7    8 1   
    12    8    9 1   
    13    8   37 1   
    14    8   38 1   
    15    9   10 2   
    16    9   11 1   
    17   11   39 1   
    18   11   40 1   
    19   12   17 ar  
    20   12   41 1   
    21   13   14 1   
    22   13   42 1   
    23   14   15 2   
    24   14   18 1   
    25   15   16 1   
    26   16   17 ar  
    27   17   43 1   
    28   18   19 2   
    29   18   21 1   
    30   19   20 1   
    31   19   30 1   
    32   20   44 1   
    33   21   22 2   
    34   21   23 1   
    35   23   24 1   
    36   23   29 1   
    37   24   25 1   
    38   24   45 1   
    39   24   46 1   
    40   25   26 1   
    41   25   47 1   
    42   25   48 1   
    43   26   27 1   
    44   26   28 1   
    45   26   49 1   
    46   27   50 1   
    47   27   51 1   
    48   27   52 1   
    49   28   53 1   
    50   28   54 1   
    51   28   55 1   
    52   29   30 2   
    53   30   31 1   
    54   31   32 1   
    55   31   35 2   
    56   32   33 1   
    57   33   34 2   
    58   33   56 1   
    59   34   35 1   
    60   35   57 1   
@<TRIPOS>SUBSTRUCTURE
     1 1PD         1 TEMP              0 ****  ****    0 ROOT
