@<TRIPOS>MOLECULE
1PE
   38    37     1     0     0
SMALL
bcc


@<TRIPOS>ATOM
      1 OH2         0.6710    0.5510    7.5080 oh        1 1PE     -0.599800
      2 C12         0.4750   -0.7190    6.9230 c3        1 1PE      0.131400
      3 C22        -0.6120   -0.6850    5.8540 c3        1 1PE      0.087400
      4 OH3        -0.1040    0.1270    4.7980 os        1 1PE     -0.438600
      5 C13        -0.3110    1.0120    2.6140 c3        1 1PE      0.127400
      6 C23        -1.0470    0.2950    3.7410 c3        1 1PE      0.129400
      7 OH4        -0.0830    0.0400    1.5960 os        1 1PE     -0.428600
      8 C14         0.7490   -0.5270   -0.5440 c3        1 1PE      0.127400
      9 C24         0.7400    0.5410    0.5450 c3        1 1PE      0.127400
     10 OH5        -0.0820   -0.0400   -1.5960 os        1 1PE     -0.428600
     11 C15        -1.0400   -0.3120   -3.7410 c3        1 1PE      0.129400
     12 C25        -0.2920   -1.0160   -2.6140 c3        1 1PE      0.127400
     13 OH6        -0.1000   -0.1280   -4.7980 os        1 1PE     -0.438600
     14 C16         0.4660    0.7280   -6.9230 c3        1 1PE      0.131400
     15 C26        -0.6210    0.6760   -5.8550 c3        1 1PE      0.087400
     16 OH7         0.6840   -0.5390   -7.5070 oh        1 1PE     -0.599800
     17 HO2         0.8850    1.1610    6.7890 ho        1 1PE      0.412000
     18 H121        1.4360   -1.0930    6.4810 h1        1 1PE      0.053700
     19 H122        0.1560   -1.3840    7.7690 h1        1 1PE      0.053700
     20 H221       -0.8230   -1.7180    5.4730 h1        1 1PE      0.039200
     21 H222       -1.5550   -0.2320    6.2600 h1        1 1PE      0.039200
     22 H131       -0.9450    1.8390    2.1980 h1        1 1PE      0.043200
     23 H132        0.6650    1.4310    2.9770 h1        1 1PE      0.043200
     24 H231       -1.4260   -0.7030    3.3970 h1        1 1PE      0.045200
     25 H232       -1.9030    0.9190    4.1090 h1        1 1PE      0.045200
     26 H141        1.7900   -0.6760   -0.9360 h1        1 1PE      0.044200
     27 H142        0.3500   -1.5000   -0.1520 h1        1 1PE      0.044200
     28 H241        0.3240    1.5060    0.1520 h1        1 1PE      0.044200
     29 H242        1.7770    0.7080    0.9370 h1        1 1PE      0.044200
     30 H151       -1.8850   -0.9500   -4.1100 h1        1 1PE      0.045200
     31 H152       -1.4360    0.6800   -3.3970 h1        1 1PE      0.045200
     32 H251        0.6910   -1.4180   -2.9760 h1        1 1PE      0.043200
     33 H252       -0.9120   -1.8540   -2.1980 h1        1 1PE      0.043200
     34 H161        0.1360    1.3870   -7.7690 h1        1 1PE      0.053700
     35 H162        1.4210    1.1190   -6.4810 h1        1 1PE      0.053700
     36 H261       -1.5560    0.2060   -6.2600 h1        1 1PE      0.039200
     37 H262       -0.8490    1.7050   -5.4730 h1        1 1PE      0.039200
     38 HO7         0.9080   -1.1450   -6.7880 ho        1 1PE      0.412000
@<TRIPOS>BOND
     1    1    2 1   
     2    1   17 1   
     3    2    3 1   
     4    2   18 1   
     5    2   19 1   
     6    3    4 1   
     7    3   20 1   
     8    3   21 1   
     9    4    6 1   
    10    5    6 1   
    11    5    7 1   
    12    5   22 1   
    13    5   23 1   
    14    6   24 1   
    15    6   25 1   
    16    7    9 1   
    17    8    9 1   
    18    8   10 1   
    19    8   26 1   
    20    8   27 1   
    21    9   28 1   
    22    9   29 1   
    23   10   12 1   
    24   11   12 1   
    25   11   13 1   
    26   11   30 1   
    27   11   31 1   
    28   12   32 1   
    29   12   33 1   
    30   13   15 1   
    31   14   15 1   
    32   14   16 1   
    33   14   34 1   
    34   14   35 1   
    35   15   36 1   
    36   15   37 1   
    37   16   38 1   
@<TRIPOS>SUBSTRUCTURE
     1 1PE         1 TEMP              0 ****  ****    0 ROOT
