@<TRIPOS>MOLECULE
1PE
   38    37     1     0     0
SMALL
bcc


@<TRIPOS>ATOM
      1 OH2        -1.3940    1.1170    1.2380 oh        1 1PE     -0.599800
      2 C12        -0.9850    0.1540    0.2900 c3        1 1PE      0.131400
      3 C22         0.5180   -0.0960    0.3540 c3        1 1PE      0.087400
      4 OH3         0.7640   -0.7040    1.6210 os        1 1PE     -0.438600
      5 C13         2.2470   -1.7620    3.1320 c3        1 1PE      0.127400
      6 C23         2.1520   -0.9480    1.8460 c3        1 1PE      0.129400
      7 OH4         2.5790   -3.0930    2.7440 os        1 1PE     -0.428600
      8 C14         3.0900   -5.3280    3.3280 c3        1 1PE      0.127400
      9 C24         2.5450   -4.0000    3.8440 c3        1 1PE      0.127400
     10 OH5         4.4050   -5.4620    3.8650 os        1 1PE     -0.428600
     11 C15         6.3990   -6.7090    4.1090 c3        1 1PE      0.129400
     12 C25         5.0950   -6.5880    3.3280 c3        1 1PE      0.127400
     13 OH6         6.2510   -7.8330    4.9750 os        1 1PE     -0.438600
     14 C16         7.0660   -9.2260    6.6960 c3        1 1PE      0.131400
     15 C26         7.3360   -7.9600    5.8910 c3        1 1PE      0.087400
     16 OH7         7.1380  -10.3820    5.8890 oh        1 1PE     -0.599800
     17 HO2        -1.1150    0.7930    2.1050 ho        1 1PE      0.412000
     18 H121       -1.5410   -0.8070    0.4510 h1        1 1PE      0.053700
     19 H122       -1.2540    0.5930   -0.7070 h1        1 1PE      0.053700
     20 H221        1.0860    0.8690    0.2820 h1        1 1PE      0.039200
     21 H222        0.8390   -0.7870   -0.4680 h1        1 1PE      0.039200
     22 H131        3.0590   -1.3570    3.7920 h1        1 1PE      0.043200
     23 H132        1.2700   -1.7500    3.6840 h1        1 1PE      0.043200
     24 H231        2.6820    0.0340    1.9630 h1        1 1PE      0.045200
     25 H232        2.5910   -1.5140    0.9820 h1        1 1PE      0.045200
     26 H141        3.1260   -5.3350    2.2060 h1        1 1PE      0.044200
     27 H142        2.4550   -6.1790    3.6910 h1        1 1PE      0.044200
     28 H241        3.1750   -3.6120    4.6880 h1        1 1PE      0.044200
     29 H242        1.4840   -4.1210    4.1880 h1        1 1PE      0.044200
     30 H151        7.2580   -6.8950    3.4120 h1        1 1PE      0.045200
     31 H152        6.5920   -5.7800    4.7080 h1        1 1PE      0.045200
     32 H251        5.3060   -6.4080    2.2400 h1        1 1PE      0.043200
     33 H252        4.4730   -7.5160    3.4420 h1        1 1PE      0.043200
     34 H161        7.8650   -9.3610    7.4720 h1        1 1PE      0.053700
     35 H162        6.0590   -9.1600    7.1880 h1        1 1PE      0.053700
     36 H261        7.3730   -7.0640    6.5640 h1        1 1PE      0.039200
     37 H262        8.3000   -8.0460    5.3240 h1        1 1PE      0.039200
     38 HO7         6.5020  -10.2630    5.1710 ho        1 1PE      0.412000
@<TRIPOS>BOND
     1    1    2 1   
     2    1   17 1   
     3    2    3 1   
     4    2   18 1   
     5    2   19 1   
     6    3    4 1   
     7    3   20 1   
     8    3   21 1   
     9    4    6 1   
    10    5    6 1   
    11    5    7 1   
    12    5   22 1   
    13    5   23 1   
    14    6   24 1   
    15    6   25 1   
    16    7    9 1   
    17    8    9 1   
    18    8   10 1   
    19    8   26 1   
    20    8   27 1   
    21    9   28 1   
    22    9   29 1   
    23   10   12 1   
    24   11   12 1   
    25   11   13 1   
    26   11   30 1   
    27   11   31 1   
    28   12   32 1   
    29   12   33 1   
    30   13   15 1   
    31   14   15 1   
    32   14   16 1   
    33   14   34 1   
    34   14   35 1   
    35   15   36 1   
    36   15   37 1   
    37   16   38 1   
@<TRIPOS>SUBSTRUCTURE
     1 1PE         1 TEMP              0 ****  ****    0 ROOT
