@<TRIPOS>MOLECULE
1PE
   38    37     1     0     0
SMALL
bcc


@<TRIPOS>ATOM
      1 OH2        -2.8780    6.4050   -5.7330 oh        1 1PE     -0.602800
      2 C12        -2.7470    5.0190   -5.4280 c3        1 1PE      0.127400
      3 C22        -1.9310    4.8540   -4.1330 c3        1 1PE      0.129400
      4 OH3        -1.7930    3.4670   -3.8300 os        1 1PE     -0.431600
      5 C13        -1.0600    1.6990   -2.3370 c3        1 1PE      0.129400
      6 C23        -1.0640    3.2090   -2.6220 c3        1 1PE      0.130400
      7 OH4        -0.4240    1.4480   -1.0570 os        1 1PE     -0.429600
      8 C14         0.1910   -0.1420    0.7210 c3        1 1PE      0.129400
      9 C24        -0.1950    0.0450   -0.7860 c3        1 1PE      0.129400
     10 OH5         0.6450   -1.4940    0.9410 os        1 1PE     -0.429600
     11 C15         1.5480   -3.1300    2.4690 c3        1 1PE      0.130400
     12 C25         0.7680   -1.8440    2.3380 c3        1 1PE      0.129400
     13 OH6         1.5260   -3.5660    3.8250 os        1 1PE     -0.431600
     14 C16         2.1790   -5.1680    5.5330 c3        1 1PE      0.127400
     15 C26         2.3960   -4.6570    4.0840 c3        1 1PE      0.129400
     16 OH7         3.2580   -6.0100    5.9000 oh        1 1PE     -0.602800
     17 HO2        -3.6020    6.5310   -6.2490 ho        1 1PE      0.405000
     18 H121       -2.2740    4.5530   -6.1860 h1        1 1PE      0.035700
     19 H122       -3.6560    4.6170   -5.3040 h1        1 1PE      0.035700
     20 H221       -1.0320    5.2570   -4.2540 h1        1 1PE      0.042700
     21 H222       -2.4020    5.3130   -3.3820 h1        1 1PE      0.042700
     22 H131       -1.9860    1.3690   -2.3120 h1        1 1PE      0.042700
     23 H132       -0.5670    1.2350   -3.0420 h1        1 1PE      0.042700
     24 H231       -0.1430    3.5260   -2.7230 h1        1 1PE      0.042700
     25 H232       -1.4920    3.6790   -1.8760 h1        1 1PE      0.042700
     26 H141        0.9030    0.4800    0.9540 h1        1 1PE      0.042700
     27 H142       -0.6010    0.0350    1.2880 h1        1 1PE      0.042700
     28 H241        0.5480   -0.2890   -1.3660 h1        1 1PE      0.042700
     29 H242       -1.0120   -0.4610   -0.9770 h1        1 1PE      0.042700
     30 H151        2.4790   -2.9780    2.1910 h1        1 1PE      0.042700
     31 H152        1.1430   -3.8180    1.8980 h1        1 1PE      0.042700
     32 H251       -0.1250   -1.9630    2.7240 h1        1 1PE      0.042700
     33 H252        1.2340   -1.1310    2.8110 h1        1 1PE      0.042700
     34 H161        1.3490   -5.6680    5.5780 h1        1 1PE      0.035700
     35 H162        2.1360   -4.4060    6.1470 h1        1 1PE      0.035700
     36 H261        2.2070   -5.3850    3.4460 h1        1 1PE      0.042700
     37 H262        3.3110   -4.3690    3.9800 h1        1 1PE      0.042700
     38 HO7         3.1640   -6.2620    6.7680 ho        1 1PE      0.405000
@<TRIPOS>BOND
     1    1    2 1   
     2    1   17 1   
     3    2    3 1   
     4    2   18 1   
     5    2   19 1   
     6    3    4 1   
     7    3   20 1   
     8    3   21 1   
     9    4    6 1   
    10    5    6 1   
    11    5    7 1   
    12    5   22 1   
    13    5   23 1   
    14    6   24 1   
    15    6   25 1   
    16    7    9 1   
    17    8    9 1   
    18    8   10 1   
    19    8   26 1   
    20    8   27 1   
    21    9   28 1   
    22    9   29 1   
    23   10   12 1   
    24   11   12 1   
    25   11   13 1   
    26   11   30 1   
    27   11   31 1   
    28   12   32 1   
    29   12   33 1   
    30   13   15 1   
    31   14   15 1   
    32   14   16 1   
    33   14   34 1   
    34   14   35 1   
    35   15   36 1   
    36   15   37 1   
    37   16   38 1   
@<TRIPOS>SUBSTRUCTURE
     1 1PE         1 TEMP              0 ****  ****    0 ROOT
