@<TRIPOS>MOLECULE
1PE
   38    37     1     0     0
SMALL
bcc


@<TRIPOS>ATOM
      1 OH2        -1.3860    1.1020    1.1800 oh        1 1PE     -0.599800
      2 C12        -0.9640    0.1390    0.2370 c3        1 1PE      0.131400
      3 C22         0.5390   -0.1080    0.3200 c3        1 1PE      0.087400
      4 OH3         0.7710   -0.7150    1.5890 os        1 1PE     -0.438600
      5 C13         2.2380   -1.7680    3.1190 c3        1 1PE      0.127400
      6 C23         2.1560   -0.9550    1.8310 c3        1 1PE      0.129400
      7 OH4         2.5770   -3.0990    2.7360 os        1 1PE     -0.428600
      8 C14         3.0880   -5.3320    3.3280 c3        1 1PE      0.127400
      9 C24         2.5340   -4.0050    3.8370 c3        1 1PE      0.127400
     10 OH5         4.3980   -5.4610    3.8760 os        1 1PE     -0.428600
     11 C15         6.3950   -6.7000    4.1380 c3        1 1PE      0.129400
     12 C25         5.0960   -6.5860    3.3470 c3        1 1PE      0.127400
     13 OH6         6.2450   -7.8220    5.0060 os        1 1PE     -0.438600
     14 C16         7.0540   -9.2070    6.7370 c3        1 1PE      0.131400
     15 C26         7.3250   -7.9410    5.9300 c3        1 1PE      0.087400
     16 OH7         7.1370  -10.3650    5.9320 oh        1 1PE     -0.599800
     17 HO2        -1.1170    0.7790    2.0500 ho        1 1PE      0.412000
     18 H121       -1.5200   -0.8240    0.3920 h1        1 1PE      0.053700
     19 H122       -1.2220    0.5770   -0.7640 h1        1 1PE      0.053700
     20 H221        1.1060    0.8580    0.2540 h1        1 1PE      0.039200
     21 H222        0.8720   -0.7980   -0.4980 h1        1 1PE      0.039200
     22 H131        3.0400   -1.3610    3.7880 h1        1 1PE      0.043200
     23 H132        1.2540   -1.7590    3.6600 h1        1 1PE      0.043200
     24 H231        2.6830    0.0280    1.9540 h1        1 1PE      0.045200
     25 H232        2.6070   -1.5220    0.9740 h1        1 1PE      0.045200
     26 H141        3.1330   -5.3410    2.2060 h1        1 1PE      0.044200
     27 H142        2.4530   -6.1840    3.6880 h1        1 1PE      0.044200
     28 H241        3.1540   -3.6150    4.6870 h1        1 1PE      0.044200
     29 H242        1.4700   -4.1290    4.1700 h1        1 1PE      0.044200
     30 H151        7.2600   -6.8840    3.4470 h1        1 1PE      0.045200
     31 H152        6.5800   -5.7680    4.7360 h1        1 1PE      0.045200
     32 H251        5.3140   -6.4080    2.2610 h1        1 1PE      0.043200
     33 H252        4.4770   -7.5150    3.4600 h1        1 1PE      0.043200
     34 H161        7.8480   -9.3360    7.5190 h1        1 1PE      0.053700
     35 H162        6.0430   -9.1440    7.2210 h1        1 1PE      0.053700
     36 H261        7.3530   -7.0440    6.6010 h1        1 1PE      0.039200
     37 H262        8.2940   -8.0260    5.3700 h1        1 1PE      0.039200
     38 HO7         6.5060  -10.2510    5.2100 ho        1 1PE      0.412000
@<TRIPOS>BOND
     1    1    2 1   
     2    1   17 1   
     3    2    3 1   
     4    2   18 1   
     5    2   19 1   
     6    3    4 1   
     7    3   20 1   
     8    3   21 1   
     9    4    6 1   
    10    5    6 1   
    11    5    7 1   
    12    5   22 1   
    13    5   23 1   
    14    6   24 1   
    15    6   25 1   
    16    7    9 1   
    17    8    9 1   
    18    8   10 1   
    19    8   26 1   
    20    8   27 1   
    21    9   28 1   
    22    9   29 1   
    23   10   12 1   
    24   11   12 1   
    25   11   13 1   
    26   11   30 1   
    27   11   31 1   
    28   12   32 1   
    29   12   33 1   
    30   13   15 1   
    31   14   15 1   
    32   14   16 1   
    33   14   34 1   
    34   14   35 1   
    35   15   36 1   
    36   15   37 1   
    37   16   38 1   
@<TRIPOS>SUBSTRUCTURE
     1 1PE         1 TEMP              0 ****  ****    0 ROOT
