@<TRIPOS>MOLECULE
1PF
   64    63     1     0     0
SMALL
bcc


@<TRIPOS>ATOM
      1 C10         0.1980   -0.9430   -0.5250 c2        1 1PF     -0.244000
      2 C14        -2.1680    0.5430   -2.9720 c2        1 1PF     -0.020000
      3 C15        -2.6880    1.4190   -3.9330 c1        1 1PF     -0.072000
      4 C16        -3.1330    2.1730   -4.7490 c1        1 1PF     -0.214000
      5 C17         0.4670    2.1820   -3.8570 c3        1 1PF     -0.172000
      6 C20         1.5920    3.1200   -1.4700 c2        1 1PF     -0.351000
      7 C22         5.7460    4.7880   -0.2770 c3        1 1PF     -0.211000
      8 C23         6.1870    3.4600    0.2970 c3        1 1PF     -0.061000
      9 C24         6.3480    3.5020    1.7220 c1        1 1PF     -0.163000
     10 C31         4.4940   -1.3550    4.6140 c3        1 1PF     -0.068000
     11 C30         4.7800   -0.7970    3.2150 c3        1 1PF     -0.169000
     12 C28         1.5320   -0.7160   -0.7770 c1        1 1PF     -0.117000
     13 C26         2.0120    5.1500   -0.1350 c3        1 1PF     -0.210000
     14 C25         6.4870    3.5320    2.9100 c1        1 1PF     -0.233000
     15 C18         0.0830    1.7020   -2.5240 c2        1 1PF     -0.085000
     16 N02         4.2770   -0.4060    5.6780 n3        1 1PF     -0.318000
     17 C03         2.9280    0.0790    5.8140 c3        1 1PF     -0.154000
     18 C04         3.6160    1.2100    2.2000 c2        1 1PF     -0.191000
     19 C05         3.6380   -0.0570    2.6210 c2        1 1PF     -0.041000
     20 O06         2.4300   -0.8110    2.6110 os        1 1PF     -0.108000
     21 C07         2.0350   -1.4040    1.4890 c2        1 1PF      0.164000
     22 C08         0.7170   -2.1030    1.6020 c3        1 1PF     -0.192500
     23 C09        -0.2270   -1.7490    0.5350 c1        1 1PF     -0.117000
     24 C11        -0.8140   -0.4600   -1.4470 c2        1 1PF      0.068000
     25 N12        -2.0240   -1.1490   -1.6310 na        1 1PF     -0.140000
     26 N13        -2.8290   -0.5680   -2.5070 n2        1 1PF     -0.066000
     27 C21         2.0210    3.6390   -0.1590 c3        1 1PF     -0.080000
     28 C27        -0.8720    0.6590   -2.3110 c2        1 1PF     -0.104000
     29 C29         2.5920   -1.1440    0.1500 c3        1 1PF     -0.192500
     30 H1         -0.1810    1.7090   -4.6360 hc        1 1PF      0.090667
     31 H2          1.5380    1.9260   -4.0690 hc        1 1PF      0.090667
     32 H3         -3.5250    2.8420   -5.4710 ha        1 1PF      0.221000
     33 H4          0.3560    3.2960   -3.9210 hc        1 1PF      0.090667
     34 H5          1.9930    3.4840   -2.4130 h4        1 1PF      0.153000
     35 H7          3.0660    3.2730    0.0510 hc        1 1PF      0.071000
     36 H8          4.7260    5.0600    0.0940 hc        1 1PF      0.084000
     37 H9          6.4570    5.6000    0.0090 hc        1 1PF      0.084000
     38 H10         7.1640    3.1530   -0.1730 hc        1 1PF      0.098500
     39 H11         5.4270    2.6700    0.0340 hc        1 1PF      0.098500
     40 H12         5.0400   -1.6610    2.5460 hc        1 1PF      0.108000
     41 H13         5.6700   -0.1130    3.2490 hc        1 1PF      0.108000
     42 H14         3.6030   -2.0420    4.5500 h1        1 1PF      0.099000
     43 H15         5.3910   -1.9720    4.9110 h1        1 1PF      0.099000
     44 H16         3.4160   -0.3780    0.1790 hc        1 1PF      0.163000
     45 H17         2.4000    5.5220    0.8440 hc        1 1PF      0.073667
     46 H18         0.9750    5.5380   -0.2780 hc        1 1PF      0.073667
     47 H19         2.6550    5.5600   -0.9510 hc        1 1PF      0.073667
     48 H20         6.6200    3.5740    3.9610 ha        1 1PF      0.223000
     49 H21         3.1570   -1.7340    8.1200 ha        1 1PF      0.009000
     50 H22         2.2580   -0.7750    6.1090 h1        1 1PF      0.092000
     51 H23         4.0510   -0.2150    8.5400 ha        1 1PF      0.009000
     52 H25         2.8970    0.8660    6.6180 h1        1 1PF      0.092000
     53 H26         4.9280    0.3540    5.6130 hn        1 1PF      0.159000
     54 H27         2.5100    0.5260    4.8690 h1        1 1PF      0.092000
     55 H28         2.7270    1.6770    1.7480 ha        1 1PF      0.159500
     56 H29         4.5040    1.8580    2.2870 ha        1 1PF      0.159500
     57 H30         0.8950   -3.2170    1.5420 hc        1 1PF      0.163000
     58 H31         0.2350   -1.8890    2.5980 hc        1 1PF      0.163000
     59 H32        -2.3220   -1.9240   -1.0800 hn        1 1PF      0.288000
     60 H33         1.3580    3.2430    0.6570 hc        1 1PF      0.071000
     61 H34         3.0210   -2.0910   -0.2930 hc        1 1PF      0.163000
     62 O19         0.6340    2.1960   -1.4150 os        1 1PF      0.098000
     63 C01         3.0640   -0.6540    8.3210 c1        1 1PF     -0.038000
     64 H6          5.7090    4.7210   -1.3910 hc        1 1PF      0.084000
@<TRIPOS>BOND
     1    1   12 1   
     2    1   23 1   
     3    1   24 1   
     4    2    3 1   
     5    2   26 1   
     6    2   28 1   
     7    3    4 1   
     8    4   32 1   
     9    5   15 1   
    10    5   30 1   
    11    5   31 1   
    12    5   33 1   
    13    6   27 1   
    14    6   34 1   
    15    6   62 1   
    16    7    8 1   
    17    7   36 1   
    18    7   37 1   
    19    7   64 1   
    20    8    9 1   
    21    8   38 1   
    22    8   39 1   
    23    9   14 1   
    24   10   11 1   
    25   10   16 1   
    26   10   42 1   
    27   10   43 1   
    28   11   19 1   
    29   11   40 1   
    30   11   41 1   
    31   12   29 1   
    32   13   27 1   
    33   13   45 1   
    34   13   46 1   
    35   13   47 1   
    36   14   48 1   
    37   15   28 1   
    38   15   62 1   
    39   16   17 1   
    40   16   53 1   
    41   17   50 1   
    42   17   52 1   
    43   17   54 1   
    44   18   19 1   
    45   18   55 1   
    46   18   56 1   
    47   19   20 1   
    48   20   21 1   
    49   21   22 1   
    50   21   29 1   
    51   22   23 1   
    52   22   57 1   
    53   22   58 1   
    54   24   25 1   
    55   24   28 1   
    56   25   26 1   
    57   25   59 1   
    58   27   35 1   
    59   27   60 1   
    60   29   44 1   
    61   29   61 1   
    62   49   63 1   
    63   51   63 1   
@<TRIPOS>SUBSTRUCTURE
     1 1PF         1 TEMP              0 ****  ****    0 ROOT
