@<TRIPOS>MOLECULE
1PF
   64    62     1     0     0
SMALL
bcc


@<TRIPOS>ATOM
      1 C10        -0.2610   -0.3690   -0.3360 c2        1 1PF     -0.303000
      2 C14        -2.1070    0.9670   -3.2970 c2        1 1PF      0.009000
      3 C15        -2.5280    1.8200   -4.3820 c2        1 1PF     -0.446000
      4 C16        -3.7620    1.9840   -4.8260 c1        1 1PF      0.278000
      5 C17        -0.5890    3.6420   -2.9550 c3        1 1PF     -0.257000
      6 C20         1.7020    3.4810   -1.5340 c2        1 1PF     -0.132000
      7 C22         8.4980    4.5350   -1.2170 c3        1 1PF     -0.208000
      8 C23         7.6220    4.7950   -0.0110 c3        1 1PF     -0.050000
      9 C24         6.6280    3.7820    0.1780 c1        1 1PF     -0.160000
     10 C31         4.3110   -2.7280    5.6500 c3        1 1PF     -0.122000
     11 C30         4.8680    0.7820    2.9030 c1        1 1PF     -0.177000
     12 C28         0.4920    0.5540    0.3960 c1        1 1PF     -0.159500
     13 C26         1.4170    3.7610    0.9300 c3        1 1PF     -0.239000
     14 C25         5.7960    2.9380    0.3450 c1        1 1PF     -0.163000
     15 C18        -0.2460    2.3790   -2.2520 c2        1 1PF      0.275000
     16 N02         3.6630   -1.4510    5.5210 n3        1 1PF     -0.321000
     17 C03         2.8560   -1.0670    6.6630 c3        1 1PF     -0.070000
     18 C04         4.7950    1.9250    0.5320 c3        1 1PF      0.058000
     19 C05         4.8410    1.3070    1.8280 c1        1 1PF     -0.204000
     20 O06         1.6270   -1.7090    3.0760 o         1 1PF     -0.341000
     21 C07         1.0900   -1.3170    2.0290 c2        1 1PF      0.192000
     22 C08         0.2890   -2.2630    1.1750 c3        1 1PF     -0.227500
     23 C09        -0.4140   -1.7180    0.0270 c1        1 1PF     -0.159500
     24 C11        -0.9970    0.0340   -1.4880 c2        1 1PF      0.299000
     25 N12        -1.9850   -0.7850   -2.0220 na        1 1PF     -0.180000
     26 N13        -2.6200   -0.2600   -3.0830 n2        1 1PF     -0.045000
     27 C21         1.9900    4.1020   -0.3830 c2        1 1PF     -0.094000
     28 C27        -1.0270    1.2490   -2.3130 c2        1 1PF     -0.273000
     29 C29         1.2150    0.1160    1.5850 c3        1 1PF     -0.227500
     30 H1         -1.7080    2.3510   -4.9140 ha        1 1PF      0.196000
     31 H2         -0.0530    3.6900   -3.9370 hc        1 1PF      0.123333
     32 H3         -1.6920    3.7140   -3.1320 hc        1 1PF      0.123333
     33 H4         -0.2820    4.5280   -2.3400 hc        1 1PF      0.123333
     34 H5          2.1270    3.7140   -2.5200 h4        1 1PF      0.146000
     35 H7          2.7240    4.9280   -0.4030 ha        1 1PF      0.140000
     36 H8          9.0320    3.5600   -1.1130 hc        1 1PF      0.078000
     37 H9          9.2560    5.3480   -1.3150 hc        1 1PF      0.078000
     38 H10         8.2650    4.8540    0.9130 hc        1 1PF      0.096000
     39 H11         7.1160    5.7950   -0.1240 hc        1 1PF      0.096000
     40 H12         4.8770    0.3050    3.8540 ha        1 1PF      0.245000
     41 H13         3.6030   -3.5780    5.8610 h1        1 1PF      0.064000
     42 H14         4.8570   -2.9530    4.6970 h1        1 1PF      0.064000
     43 H15         5.0560   -2.6820    6.4890 h1        1 1PF      0.064000
     44 H16         0.8940    0.7790    2.4410 hc        1 1PF      0.145750
     45 H17         2.2100    3.7940    1.7180 hc        1 1PF      0.115000
     46 H18         2.9310    0.8660   -1.4700 ha        1 1PF      0.002500
     47 H19         0.9620    2.7300    0.9150 hc        1 1PF      0.115000
     48 H20         0.6240    4.5030    1.2020 hc        1 1PF      0.115000
     49 H21         2.9620   -0.3940    8.7110 hc        1 1PF      0.074000
     50 H22         4.1430   -1.7090    8.3100 hc        1 1PF      0.074000
     51 H23         4.4460   -0.0180    7.7370 hc        1 1PF      0.074000
     52 H25         3.0960   -1.4300    4.6910 hn        1 1PF      0.183000
     53 H26         2.3010   -0.1290    6.3730 h1        1 1PF      0.063500
     54 H27         4.9220    1.1290   -0.2630 hc        1 1PF      0.115500
     55 H28         2.0790   -1.8510    6.9110 h1        1 1PF      0.063500
     56 H29         3.7680    2.3820    0.3760 hc        1 1PF      0.115500
     57 H30         0.9790   -3.0720    0.7940 hc        1 1PF      0.145750
     58 H31        -0.4670   -2.7850    1.8310 hc        1 1PF      0.145750
     59 H32        -2.1610   -1.7230   -1.7080 hn        1 1PF      0.320000
     60 H33         2.5010    0.6640   -0.9850 ha        1 1PF      0.002500
     61 H34         2.3110    0.3430    1.4140 hc        1 1PF      0.145750
     62 O19         0.8960    2.3240   -1.5270 os        1 1PF     -0.068000
     63 C01         3.6540   -0.7820    7.9250 c3        1 1PF     -0.212000
     64 H6          7.8870    4.5030   -2.1500 hc        1 1PF      0.078000
@<TRIPOS>BOND
     1    1   12 1   
     2    1   23 1   
     3    1   24 1   
     4    2    3 1   
     5    2   26 1   
     6    2   28 1   
     7    3    4 1   
     8    3   30 1   
     9    5   15 1   
    10    5   31 1   
    11    5   32 1   
    12    5   33 1   
    13    6   27 1   
    14    6   34 1   
    15    6   62 1   
    16    7    8 1   
    17    7   36 1   
    18    7   37 1   
    19    7   64 1   
    20    8    9 1   
    21    8   38 1   
    22    8   39 1   
    23    9   14 1   
    24   10   16 1   
    25   10   41 1   
    26   10   42 1   
    27   10   43 1   
    28   11   19 1   
    29   11   40 1   
    30   12   29 1   
    31   13   27 1   
    32   13   45 1   
    33   13   47 1   
    34   13   48 1   
    35   14   18 1   
    36   15   28 1   
    37   15   62 1   
    38   16   17 1   
    39   16   52 1   
    40   17   53 1   
    41   17   55 1   
    42   17   63 1   
    43   18   19 1   
    44   18   54 1   
    45   18   56 1   
    46   20   21 1   
    47   21   22 1   
    48   21   29 1   
    49   22   23 1   
    50   22   57 1   
    51   22   58 1   
    52   24   25 1   
    53   24   28 1   
    54   25   26 1   
    55   25   59 1   
    56   27   35 1   
    57   29   44 1   
    58   29   61 1   
    59   46   60 1   
    60   49   63 1   
    61   50   63 1   
    62   51   63 1   
@<TRIPOS>SUBSTRUCTURE
     1 1PF         1 TEMP              0 ****  ****    0 ROOT
