@<TRIPOS>MOLECULE
1PG
   41    40     1     0     0
SMALL
bcc


@<TRIPOS>ATOM
      1 C2          2.0940    0.1530   -0.2510 c3        1 1PG      0.123400
      2 C1          3.6250   -1.6500   -0.2210 c3        1 1PG      0.117700
      3 O1          2.2630   -1.2620   -0.1840 os        1 1PG     -0.425600
      4 O2          0.4850    1.0500    1.2320 os        1 1PG     -0.429600
      5 C3          0.6070    0.4220   -0.0430 c3        1 1PG      0.127400
      6 C4         -0.8760    1.2040    1.6290 c3        1 1PG      0.127400
      7 C5         -0.8630    2.0360    2.9070 c3        1 1PG      0.127400
      8 O3         -1.3410    3.3320    2.5520 os        1 1PG     -0.429600
      9 C6         -1.2260    4.2620    3.6260 c3        1 1PG      0.127400
     10 C7         -1.9250    5.5380    3.1710 c3        1 1PG      0.127400
     11 O4         -3.1570    5.6030    3.8860 os        1 1PG     -0.428600
     12 C8         -3.9930    6.6640    3.4290 c3        1 1PG      0.127400
     13 C9         -5.1820    6.7190    4.3810 c3        1 1PG      0.128400
     14 O5         -5.0010    7.8800    5.1900 os        1 1PG     -0.438600
     15 C10        -5.9560    7.9600    6.2460 c3        1 1PG      0.087400
     16 C11        -5.6730    9.2700    6.9750 c3        1 1PG      0.131400
     17 O6         -5.9420   10.3900    6.1570 oh        1 1PG     -0.600800
     18 H21         2.7060    0.6550    0.5440 h1        1 1PG      0.042700
     19 H22         2.4210    0.5150   -1.2620 h1        1 1PG      0.042700
     20 H11         4.1790   -1.2300    0.6540 h1        1 1PG      0.032700
     21 H12         4.1060   -1.3120   -1.1730 h1        1 1PG      0.032700
     22 H13         3.5990   -2.7670   -0.1700 h1        1 1PG      0.032700
     23 H31         0.0230   -0.5360   -0.0620 h1        1 1PG      0.043200
     24 H32         0.2180    1.1160   -0.8340 h1        1 1PG      0.043200
     25 H41        -1.3180    0.1920    1.8260 h1        1 1PG      0.043700
     26 H42        -1.4600    1.7210    0.8230 h1        1 1PG      0.043700
     27 H51        -1.5490    1.5870    3.6730 h1        1 1PG      0.043700
     28 H52         0.1760    2.1060    3.3260 h1        1 1PG      0.043700
     29 H61        -1.7100    3.8510    4.5510 h1        1 1PG      0.043700
     30 H62        -0.1400    4.4620    3.8260 h1        1 1PG      0.043700
     31 H71        -1.3040    6.4380    3.4250 h1        1 1PG      0.044200
     32 H72        -2.1190    5.5140    2.0650 h1        1 1PG      0.044200
     33 H81        -3.4290    7.6340    3.4380 h1        1 1PG      0.043200
     34 H82        -4.3380    6.4380    2.3850 h1        1 1PG      0.043200
     35 H91        -6.1410    6.8190    3.8070 h1        1 1PG      0.045200
     36 H92        -5.2210    5.8000    5.0240 h1        1 1PG      0.045200
     37 H101       -6.9930    7.9590    5.8180 h1        1 1PG      0.039200
     38 H102       -5.8320    7.0880    6.9390 h1        1 1PG      0.039200
     39 H111       -4.6060    9.2930    7.3220 h1        1 1PG      0.053200
     40 H112       -6.3660    9.3750    7.8510 h1        1 1PG      0.053200
     41 HO6        -5.4050   10.2910    5.3610 ho        1 1PG      0.412000
@<TRIPOS>BOND
     1    1    3 1   
     2    1    5 1   
     3    1   18 1   
     4    1   19 1   
     5    2    3 1   
     6    2   20 1   
     7    2   21 1   
     8    2   22 1   
     9    4    5 1   
    10    4    6 1   
    11    5   23 1   
    12    5   24 1   
    13    6    7 1   
    14    6   25 1   
    15    6   26 1   
    16    7    8 1   
    17    7   27 1   
    18    7   28 1   
    19    8    9 1   
    20    9   10 1   
    21    9   29 1   
    22    9   30 1   
    23   10   11 1   
    24   10   31 1   
    25   10   32 1   
    26   11   12 1   
    27   12   13 1   
    28   12   33 1   
    29   12   34 1   
    30   13   14 1   
    31   13   35 1   
    32   13   36 1   
    33   14   15 1   
    34   15   16 1   
    35   15   37 1   
    36   15   38 1   
    37   16   17 1   
    38   16   39 1   
    39   16   40 1   
    40   17   41 1   
@<TRIPOS>SUBSTRUCTURE
     1 1PG         1 TEMP              0 ****  ****    0 ROOT
