@<TRIPOS>MOLECULE
1PG
   41    40     1     0     0
SMALL
bcc


@<TRIPOS>ATOM
      1 C2          3.9460    4.1060   -3.6370 c3        1 1PG      0.124400
      2 C1          5.0730    6.1560   -4.0560 c3        1 1PG      0.118700
      3 O1          5.1000    4.9240   -3.3920 os        1 1PG     -0.424600
      4 O2          2.7730    2.2090   -2.7310 os        1 1PG     -0.430600
      5 C3          4.0450    2.8210   -2.8060 c3        1 1PG      0.130400
      6 C4          2.7450    1.0370   -1.9260 c3        1 1PG      0.130400
      7 C5          1.4020    0.3130   -2.1150 c3        1 1PG      0.128400
      8 O3          1.1340   -0.4900   -0.9670 os        1 1PG     -0.429600
      9 C6         -0.1490   -1.1340   -0.9840 c3        1 1PG      0.128400
     10 C7         -0.3340   -1.9180    0.3040 c3        1 1PG      0.128400
     11 O4         -1.6710   -1.7660    0.7680 os        1 1PG     -0.429600
     12 C8         -2.0370   -2.7000    1.8030 c3        1 1PG      0.128400
     13 C9         -3.4230   -2.3630    2.3240 c3        1 1PG      0.130400
     14 O5         -3.6650   -3.0920    3.5580 os        1 1PG     -0.431600
     15 C10        -4.9070   -2.7780    4.1870 c3        1 1PG      0.129400
     16 C11        -5.1220   -3.7120    5.3800 c3        1 1PG      0.127400
     17 O6         -6.1410   -3.2120    6.1830 oh        1 1PG     -0.602800
     18 H21         3.1250    4.6050   -3.3790 h1        1 1PG      0.039700
     19 H22         3.9030    3.8730   -4.6080 h1        1 1PG      0.039700
     20 H11         5.1370    6.0070   -5.0170 h1        1 1PG      0.034033
     21 H12         5.8380    6.7130   -3.7540 h1        1 1PG      0.034033
     22 H13         4.2410    6.6130   -3.8540 h1        1 1PG      0.034033
     23 H31         4.3580    3.0400   -1.8980 h1        1 1PG      0.042200
     24 H32         4.6810    2.2040   -3.2310 h1        1 1PG      0.042200
     25 H41         3.4790    0.4400   -2.1910 h1        1 1PG      0.042200
     26 H42         2.8490    1.2840   -0.9910 h1        1 1PG      0.042200
     27 H51         1.4460   -0.2570   -2.9110 h1        1 1PG      0.041200
     28 H52         0.6960    0.9660   -2.2250 h1        1 1PG      0.041200
     29 H61        -0.2000   -1.7530   -1.7590 h1        1 1PG      0.044700
     30 H62        -0.8510   -0.4620   -1.0580 h1        1 1PG      0.044700
     31 H71         0.2790   -1.5840    0.9740 h1        1 1PG      0.044700
     32 H72        -0.1520   -2.8640    0.1400 h1        1 1PG      0.044700
     33 H81        -1.3920   -2.6440    2.5350 h1        1 1PG      0.041200
     34 H82        -2.0370   -3.6010    1.4400 h1        1 1PG      0.041200
     35 H91        -3.4810   -1.4060    2.4960 h1        1 1PG      0.042700
     36 H92        -4.0930   -2.6160    1.6570 h1        1 1PG      0.042700
     37 H101       -5.6320   -2.8940    3.5490 h1        1 1PG      0.042700
     38 H102       -4.8900   -1.8520    4.4970 h1        1 1PG      0.042700
     39 H111       -4.2970   -3.7720    5.9000 h1        1 1PG      0.035700
     40 H112       -5.3690   -4.6000    5.0570 h1        1 1PG      0.035700
     41 HO6        -6.4080   -3.8390    6.7410 ho        1 1PG      0.405000
@<TRIPOS>BOND
     1    1    3 1   
     2    1    5 1   
     3    1   18 1   
     4    1   19 1   
     5    2    3 1   
     6    2   20 1   
     7    2   21 1   
     8    2   22 1   
     9    4    5 1   
    10    4    6 1   
    11    5   23 1   
    12    5   24 1   
    13    6    7 1   
    14    6   25 1   
    15    6   26 1   
    16    7    8 1   
    17    7   27 1   
    18    7   28 1   
    19    8    9 1   
    20    9   10 1   
    21    9   29 1   
    22    9   30 1   
    23   10   11 1   
    24   10   31 1   
    25   10   32 1   
    26   11   12 1   
    27   12   13 1   
    28   12   33 1   
    29   12   34 1   
    30   13   14 1   
    31   13   35 1   
    32   13   36 1   
    33   14   15 1   
    34   15   16 1   
    35   15   37 1   
    36   15   38 1   
    37   16   17 1   
    38   16   39 1   
    39   16   40 1   
    40   17   41 1   
@<TRIPOS>SUBSTRUCTURE
     1 1PG         1 TEMP              0 ****  ****    0 ROOT
