@<TRIPOS>MOLECULE
1PG
   41    40     1     0     0
SMALL
bcc


@<TRIPOS>ATOM
      1 C2         -0.4160    1.1360   -6.3070 c3        1 1PG      0.123400
      2 C1         -0.1230    0.5040   -8.5680 c3        1 1PG      0.117700
      3 O1         -0.8700    0.3120   -7.3800 os        1 1PG     -0.424600
      4 O2         -0.2730    0.0580   -4.2070 os        1 1PG     -0.429600
      5 C3         -1.2020    0.7100   -5.0710 c3        1 1PG      0.127400
      6 C4         -0.9120   -0.5430   -3.0830 c3        1 1PG      0.127400
      7 C5          0.2010   -1.0430   -2.1680 c3        1 1PG      0.127400
      8 O3          0.2390   -0.1550   -1.0530 os        1 1PG     -0.428600
      9 C6          1.3490   -0.4120   -0.1960 c3        1 1PG      0.127400
     10 C7          1.1650    0.4780    1.0290 c3        1 1PG      0.128400
     11 O4          0.8000   -0.3860    2.1040 os        1 1PG     -0.429600
     12 C8          0.4530    0.3400    3.2800 c3        1 1PG      0.128400
     13 C9          0.0990   -0.7120    4.3260 c3        1 1PG      0.130400
     14 O5         -0.1250    0.0050    5.5380 os        1 1PG     -0.439600
     15 C10        -0.4600   -0.8610    6.6210 c3        1 1PG      0.088400
     16 C11        -0.7120    0.0430    7.8230 c3        1 1PG      0.131400
     17 O6         -1.8650    0.8380    7.6450 oh        1 1PG     -0.599800
     18 H21         0.6850    0.9940   -6.1490 h1        1 1PG      0.042700
     19 H22        -0.6250    2.2100   -6.5550 h1        1 1PG      0.042700
     20 H11        -0.5920   -0.1900   -9.3090 h1        1 1PG      0.032700
     21 H12        -0.2030    1.5630   -8.9170 h1        1 1PG      0.032700
     22 H13         0.9510    0.2380   -8.4060 h1        1 1PG      0.032700
     23 H31        -1.6250    1.6060   -4.5460 h1        1 1PG      0.043700
     24 H32        -2.0320    0.0080   -5.3500 h1        1 1PG      0.043700
     25 H41        -1.5550    0.2090   -2.5540 h1        1 1PG      0.044200
     26 H42        -1.5440   -1.4010   -3.4340 h1        1 1PG      0.044200
     27 H51        -0.0270   -2.0800   -1.8050 h1        1 1PG      0.044200
     28 H52         1.1880   -1.0390   -2.7030 h1        1 1PG      0.044200
     29 H61         1.3720   -1.4940    0.0980 h1        1 1PG      0.044200
     30 H62         2.2980   -0.1460   -0.7330 h1        1 1PG      0.044200
     31 H71         2.1250    0.9980    1.2850 h1        1 1PG      0.044700
     32 H72         0.3590    1.2390    0.8510 h1        1 1PG      0.044700
     33 H81         1.3220    0.9620    3.6200 h1        1 1PG      0.040700
     34 H82        -0.4240    1.0090    3.0760 h1        1 1PG      0.040700
     35 H91        -0.8280   -1.2700    4.0320 h1        1 1PG      0.042700
     36 H92         0.9430   -1.4380    4.4600 h1        1 1PG      0.042700
     37 H101       -1.3810   -1.4480    6.3640 h1        1 1PG      0.040200
     38 H102        0.3910   -1.5620    6.8240 h1        1 1PG      0.040200
     39 H111       -0.9240   -0.5820    8.7300 h1        1 1PG      0.053200
     40 H112        0.1830    0.6960    8.0060 h1        1 1PG      0.053200
     41 HO6        -1.7380    1.3390    6.8290 ho        1 1PG      0.413000
@<TRIPOS>BOND
     1    1    3 1   
     2    1    5 1   
     3    1   18 1   
     4    1   19 1   
     5    2    3 1   
     6    2   20 1   
     7    2   21 1   
     8    2   22 1   
     9    4    5 1   
    10    4    6 1   
    11    5   23 1   
    12    5   24 1   
    13    6    7 1   
    14    6   25 1   
    15    6   26 1   
    16    7    8 1   
    17    7   27 1   
    18    7   28 1   
    19    8    9 1   
    20    9   10 1   
    21    9   29 1   
    22    9   30 1   
    23   10   11 1   
    24   10   31 1   
    25   10   32 1   
    26   11   12 1   
    27   12   13 1   
    28   12   33 1   
    29   12   34 1   
    30   13   14 1   
    31   13   35 1   
    32   13   36 1   
    33   14   15 1   
    34   15   16 1   
    35   15   37 1   
    36   15   38 1   
    37   16   17 1   
    38   16   39 1   
    39   16   40 1   
    40   17   41 1   
@<TRIPOS>SUBSTRUCTURE
     1 1PG         1 TEMP              0 ****  ****    0 ROOT
