@<TRIPOS>MOLECULE
1PG
   41    40     1     0     0
SMALL
bcc


@<TRIPOS>ATOM
      1 C2          1.9880    0.3440   -0.5540 c3        1 1PG      0.123400
      2 C1          3.2240   -1.6370   -0.9310 c3        1 1PG      0.117700
      3 O1          1.9370   -1.0550   -0.8300 os        1 1PG     -0.424600
      4 O2          0.4430    1.1020    1.0690 os        1 1PG     -0.429600
      5 C3          0.5490    0.7920   -0.3200 c3        1 1PG      0.127400
      6 C4         -0.9000    1.3750    1.4600 c3        1 1PG      0.127400
      7 C5         -0.8420    1.8540    2.9060 c3        1 1PG      0.127400
      8 O3         -1.0820    3.2600    2.8770 os        1 1PG     -0.428600
      9 C6         -0.8900    3.8670    4.1520 c3        1 1PG      0.127400
     10 C7         -1.3500    5.3150    4.0150 c3        1 1PG      0.128400
     11 O4         -2.5800    5.4180    4.7310 os        1 1PG     -0.429600
     12 C8         -3.1940    6.6920    4.5590 c3        1 1PG      0.128400
     13 C9         -4.4780    6.6460    5.3820 c3        1 1PG      0.130400
     14 O5         -5.0280    7.9600    5.3180 os        1 1PG     -0.439600
     15 C10        -6.2420    8.0720    6.0590 c3        1 1PG      0.088400
     16 C11        -6.7270    9.5040    5.8610 c3        1 1PG      0.131400
     17 O6         -7.1140    9.7430    4.5250 oh        1 1PG     -0.599800
     18 H21         2.6190    0.5380    0.3530 h1        1 1PG      0.042700
     19 H22         2.4260    0.8770   -1.4380 h1        1 1PG      0.042700
     20 H11         3.7820   -1.5320    0.0330 h1        1 1PG      0.032700
     21 H12         3.8070   -1.1650   -1.7600 h1        1 1PG      0.032700
     22 H13         3.0270   -2.7150   -1.1540 h1        1 1PG      0.032700
     23 H31        -0.1710   -0.0240   -0.5920 h1        1 1PG      0.043700
     24 H32         0.3210    1.7120   -0.9200 h1        1 1PG      0.043700
     25 H41        -1.5040    0.4320    1.3850 h1        1 1PG      0.044200
     26 H42        -1.3460    2.1620    0.7960 h1        1 1PG      0.044200
     27 H51        -1.6420    1.3570    3.5160 h1        1 1PG      0.044200
     28 H52         0.1640    1.6410    3.3560 h1        1 1PG      0.044200
     29 H61        -1.4920    3.3310    4.9330 h1        1 1PG      0.044200
     30 H62         0.1980    3.8260    4.4210 h1        1 1PG      0.044200
     31 H71        -0.5990    6.0110    4.4740 h1        1 1PG      0.044700
     32 H72        -1.5040    5.5840    2.9370 h1        1 1PG      0.044700
     33 H81        -2.5130    7.5020    4.9320 h1        1 1PG      0.040700
     34 H82        -3.4220    6.8680    3.4760 h1        1 1PG      0.040700
     35 H91        -5.2010    5.9050    4.9520 h1        1 1PG      0.042700
     36 H92        -4.2570    6.3740    6.4470 h1        1 1PG      0.042700
     37 H101       -6.9940    7.3380    5.6650 h1        1 1PG      0.040200
     38 H102       -6.0450    7.8670    7.1440 h1        1 1PG      0.040200
     39 H111       -5.9250   10.2270    6.1660 h1        1 1PG      0.053200
     40 H112       -7.6540    9.6780    6.4700 h1        1 1PG      0.053200
     41 HO6        -6.3520    9.5340    3.9700 ho        1 1PG      0.413000
@<TRIPOS>BOND
     1    1    3 1   
     2    1    5 1   
     3    1   18 1   
     4    1   19 1   
     5    2    3 1   
     6    2   20 1   
     7    2   21 1   
     8    2   22 1   
     9    4    5 1   
    10    4    6 1   
    11    5   23 1   
    12    5   24 1   
    13    6    7 1   
    14    6   25 1   
    15    6   26 1   
    16    7    8 1   
    17    7   27 1   
    18    7   28 1   
    19    8    9 1   
    20    9   10 1   
    21    9   29 1   
    22    9   30 1   
    23   10   11 1   
    24   10   31 1   
    25   10   32 1   
    26   11   12 1   
    27   12   13 1   
    28   12   33 1   
    29   12   34 1   
    30   13   14 1   
    31   13   35 1   
    32   13   36 1   
    33   14   15 1   
    34   15   16 1   
    35   15   37 1   
    36   15   38 1   
    37   16   17 1   
    38   16   39 1   
    39   16   40 1   
    40   17   41 1   
@<TRIPOS>SUBSTRUCTURE
     1 1PG         1 TEMP              0 ****  ****    0 ROOT
