@<TRIPOS>MOLECULE
1PH
   49    51     1     0     0
SMALL
bcc


@<TRIPOS>ATOM
      1 C10        43.5760   -0.5720 -187.6810 c2        1 1PH      0.050000
      2 N11        42.3030   -0.8000 -187.1650 na        1 1PH     -0.094000
      3 N12        42.2050   -0.5670 -185.8570 n2        1 1PH      0.031000
      4 C13        43.4460   -0.1860 -185.4280 c2        1 1PH     -0.139000
      5 C14        43.9960   -0.0140 -184.1310 c1        1 1PH      0.081000
      6 C15        45.1960    0.7910 -184.0060 c3        1 1PH     -0.220000
      7 C16        46.2340    0.6370 -185.1770 c3        1 1PH     -0.047000
      8 C22      -114.0750    2.2170  447.3010 c3        1 1PH     -0.116000
      9 C20      -113.5000    0.9990  445.1900 c1        1 1PH     -0.445000
     10 C21      -113.6680    0.9840  446.4660 c2        1 1PH      0.110000
     11 C23      -114.1220    1.6580  448.6440 cu        1 1PH      0.026000
     12 N01        47.5360    0.6610 -191.8880 n4        1 1PH     -0.506000
     13 O03        47.9870   -1.8420 -191.7000 o         1 1PH     -0.846500
     14 O04        48.3210   -0.4760 -189.7480 o         1 1PH     -0.846500
     15 C05        45.9690   -0.9800 -190.4830 c2        1 1PH     -1.111000
     16 C06        45.1510   -1.8790 -191.4120 c3        1 1PH     -0.067000
     17 C07        43.7090   -1.4640 -191.3620 c2        1 1PH     -0.071000
     18 C08        43.3530   -1.1700 -190.1220 c1        1 1PH     -0.020000
     19 C09        43.9940   -0.7020 -189.0430 c2        1 1PH     -0.061000
     20 N17        47.2300    1.6890 -185.1140 n3        1 1PH     -0.314000
     21 O19      -113.1780    1.0290  442.7440 o         1 1PH     -0.060000
     22 C24      -114.1110    0.9420  449.8310 cu        1 1PH      0.112000
     23 C25      -113.7910    0.2560  448.6710 cu        1 1PH      0.026000
     24 C26      -113.4870   -0.2710  447.3480 c3        1 1PH     -0.116000
     25 C27        45.6340    0.4180 -186.5030 c1        1 1PH     -0.160000
     26 C28        44.3750   -0.1450 -186.5800 c2        1 1PH     -0.212000
     27 C29        45.3870   -0.3940 -189.3760 c2        1 1PH      0.180000
     28 H1         41.5000   -1.1070 -187.6760 hn        1 1PH      0.298000
     29 H2         44.8720    1.8720 -183.9200 hc        1 1PH      0.152500
     30 H3         45.7230    0.5380 -183.0440 hc        1 1PH      0.152500
     31 H5         -5.1260   19.7510   28.1520 ha        1 1PH      0.000000
     32 H6         -4.8200   19.2320   27.8440 ha        1 1PH      0.000000
     33 H7       -115.0680    2.6280  446.9660 hc        1 1PH      0.195000
     34 H8         46.6090    1.0470 -192.0250 hn        1 1PH      0.248000
     35 H9         48.1180    1.3810 -191.4640 hn        1 1PH      0.248000
     36 H10        45.3090   -2.9520 -191.1120 hc        1 1PH      0.138500
     37 H11        45.5020   -1.7700 -192.4740 hc        1 1PH      0.138500
     38 H12        43.1160   -1.3530 -192.2770 ha        1 1PH      0.199000
     39 H13        46.8250    2.5750 -185.3420 hn        1 1PH      0.153500
     40 H14      -114.2520    0.9290  450.9070 ha        1 1PH      0.272000
     41 H15      -112.4390   -0.6770  447.2720 hc        1 1PH      0.195000
     42 H16      -114.1890   -1.0950  447.0360 hc        1 1PH      0.195000
     43 H17        46.7830   -0.3410 -184.9510 h1        1 1PH      0.149000
     44 H18        45.9640    0.1890 -188.6000 ha        1 1PH      0.250000
     45 H013       47.9260    0.4460 -192.8030 hn        1 1PH      0.248000
     46 H172       47.9780    1.4960 -185.7510 hn        1 1PH      0.153500
     47 S02        47.5270   -0.9280 -190.7770 s6        1 1PH      2.843000
     48 C18      -113.3330    1.0150  443.9170 c1        1 1PH      0.408000
     49 H4       -113.3190    3.0460  447.2010 hc        1 1PH      0.195000
@<TRIPOS>BOND
     1    1    2 1   
     2    1   19 1   
     3    1   26 1   
     4    2    3 1   
     5    2   28 1   
     6    3    4 1   
     7    4    5 1   
     8    4   26 1   
     9    5    6 1   
    10    6    7 1   
    11    6   29 1   
    12    6   30 1   
    13    7   20 1   
    14    7   25 1   
    15    7   43 1   
    16    8   10 1   
    17    8   11 1   
    18    8   33 1   
    19    8   49 1   
    20    9   10 1   
    21    9   48 1   
    22   10   24 1   
    23   11   22 1   
    24   11   23 1   
    25   12   34 1   
    26   12   35 1   
    27   12   45 1   
    28   12   47 1   
    29   13   47 1   
    30   14   47 1   
    31   15   16 1   
    32   15   27 1   
    33   15   47 1   
    34   16   17 1   
    35   16   36 1   
    36   16   37 1   
    37   17   18 1   
    38   17   38 1   
    39   18   19 1   
    40   19   27 1   
    41   20   39 1   
    42   20   46 1   
    43   21   48 1   
    44   22   23 1   
    45   22   40 1   
    46   23   24 1   
    47   24   41 1   
    48   24   42 1   
    49   25   26 1   
    50   27   44 1   
    51   31   32 1   
@<TRIPOS>SUBSTRUCTURE
     1 1PH         1 TEMP              0 ****  ****    0 ROOT
