@<TRIPOS>MOLECULE
1PH
   48    48     1     0     0
SMALL
bcc


@<TRIPOS>ATOM
      1 C10         0.5550   -0.5620    0.6790 c2        1 1PH     -0.267000
      2 N11         1.7960   -1.1640    0.7520 na        1 1PH      0.089000
      3 N12         2.5490   -0.7790    1.7220 n2        1 1PH     -0.085000
      4 C13         1.8110    0.2150    2.4700 c2        1 1PH     -0.054000
      5 C14         2.2560    0.8410    3.5380 c1        1 1PH     -0.061000
      6 C15         2.6920    1.4580    4.5860 c2        1 1PH     -0.132000
      7 C16        -1.5460    1.9570    2.2930 c2        1 1PH      0.036000
      8 C22        -5.6070    3.0340    5.0310 c2        1 1PH     -0.180000
      9 C20        -5.1020    1.2430    3.4100 c3        1 1PH     -0.134000
     10 C21        -5.0610    1.8420    4.7730 c2        1 1PH     -0.115000
     11 C23        -0.8680    0.3060    6.6620 c1        1 1PH      0.411000
     12 N01        -3.0960    2.9430   -0.9940 n4        1 1PH     -0.525000
     13 O03        -3.7350    1.7220   -3.1190 o         1 1PH     -0.861500
     14 O04        -1.4620    2.4700   -2.8650 o         1 1PH     -0.861500
     15 C05        -2.2290    0.5080   -1.4920 c2        1 1PH     -1.075000
     16 C06        -3.4010   -0.3520   -1.1320 c3        1 1PH     -0.228000
     17 C07        -3.3140   -1.7760   -1.0250 c1        1 1PH      0.046000
     18 C08        -1.0240   -2.1040   -0.2260 c1        1 1PH      0.252000
     19 C09        -0.5200   -0.8540   -0.2490 c2        1 1PH     -0.318000
     20 N17        -2.6710    1.6280    3.0690 n         1 1PH     -0.344000
     21 O19        -4.1210    1.8760    1.3040 o         1 1PH     -0.533000
     22 C24        -2.1870    0.4550    6.7640 c2        1 1PH     -0.533000
     23 C25        -2.9980    0.8660    5.6890 c1        1 1PH     -0.057000
     24 C26        -4.4370    1.0230    5.8570 c3        1 1PH     -0.173000
     25 C27        -0.5150    1.1800    2.0850 c1        1 1PH     -0.249000
     26 C28         0.4820    0.3870    1.8050 c2        1 1PH      0.099000
     27 C29        -0.9660    0.2530   -1.0440 c2        1 1PH      0.203000
     28 H1          2.1280   -1.8700    0.1170 hn        1 1PH      0.293000
     29 H2          2.5420    1.0640    5.6060 ha        1 1PH      0.161500
     30 H3          3.2410    2.4130    4.5230 ha        1 1PH      0.161500
     31 H5         -6.0350    1.5710    2.8730 hc        1 1PH      0.124500
     32 H6         -5.1270    0.1210    3.4770 hc        1 1PH      0.124500
     33 H7         -5.6050    3.4800    6.0350 ha        1 1PH      0.127500
     34 H8         -2.8180    2.5850   -0.0660 hn        1 1PH      0.266000
     35 H9         -2.7040    3.8750   -1.0990 hn        1 1PH      0.266000
     36 H10        -4.2560   -0.1800   -1.8680 hc        1 1PH      0.201000
     37 H11        -3.8120   -0.0100   -0.1170 hc        1 1PH      0.201000
     38 H12        -2.3250   -2.3290   -1.1080 ha        1 1PH      0.108000
     39 H13        -2.5520    1.3100    4.0590 hn        1 1PH      0.323000
     40 H14        -2.6360    0.2430    7.7650 ha        1 1PH      0.194000
     41 H15        -4.8880   -0.0180    5.8410 hc        1 1PH      0.130000
     42 H16        -4.7010    1.4590    6.8640 hc        1 1PH      0.130000
     43 H17        -1.5840    2.9750    1.8490 h4        1 1PH      0.122000
     44 H18        -0.1600    0.9880   -1.2850 ha        1 1PH      0.171000
     45 H013       -4.1140    3.0340   -0.9500 hn        1 1PH      0.266000
     46 S02        -2.5730    1.8050   -2.3720 s6        1 1PH      2.822000
     47 C18        -3.9230    1.6170    2.5270 c2        1 1PH      0.331000
     48 H4         -6.0960    3.6380    4.2550 ha        1 1PH      0.127500
@<TRIPOS>BOND
     1    1    2 1   
     2    1   19 1   
     3    1   26 1   
     4    2    3 1   
     5    2   28 1   
     6    3    4 1   
     7    4    5 1   
     8    4   26 1   
     9    5    6 1   
    10    6   29 1   
    11    6   30 1   
    12    7   20 1   
    13    7   25 1   
    14    7   43 1   
    15    8   10 1   
    16    8   33 1   
    17    8   48 1   
    18    9   10 1   
    19    9   31 1   
    20    9   32 1   
    21    9   47 1   
    22   10   24 1   
    23   11   22 1   
    24   12   34 1   
    25   12   35 1   
    26   12   45 1   
    27   12   46 1   
    28   13   46 1   
    29   14   46 1   
    30   15   16 1   
    31   15   27 1   
    32   15   46 1   
    33   16   17 1   
    34   16   36 1   
    35   16   37 1   
    36   17   38 1   
    37   18   19 1   
    38   19   27 1   
    39   20   39 1   
    40   20   47 1   
    41   21   47 1   
    42   22   23 1   
    43   22   40 1   
    44   23   24 1   
    45   24   41 1   
    46   24   42 1   
    47   25   26 1   
    48   27   44 1   
@<TRIPOS>SUBSTRUCTURE
     1 1PH         1 TEMP              0 ****  ****    0 ROOT
