@<TRIPOS>MOLECULE
1PH
   48    47     1     0     0
SMALL
bcc


@<TRIPOS>ATOM
      1 C10         0.0980    0.0820   -0.8420 c2        1 1PH     -0.203000
      2 N11         1.5230    0.0410   -0.9370 na        1 1PH     -0.112000
      3 N12         2.1270    0.0710    0.2180 n2        1 1PH      0.087000
      4 C13         1.1510    0.1790    1.1870 c2        1 1PH     -0.229000
      5 C14         1.3060    0.2510    2.5910 c1        1 1PH      0.020000
      6 C15         0.0860    0.3110    3.3800 c3        1 1PH     -0.213000
      7 C16        -1.2590    0.3380    2.6970 c2        1 1PH      0.151000
      8 C22        -7.1620    4.1720   11.9840 c2        1 1PH     -0.176000
      9 C20        -5.1180    1.4550    8.3820 c1        1 1PH     -0.031500
     10 C21        -5.2090    0.9710    7.2680 c1        1 1PH     -0.236000
     11 C23        -6.4820    3.0250   12.0620 c2        1 1PH     -0.083000
     12 N01         0.3210    1.9120   -6.0260 nz        1 1PH     -0.508000
     13 O03        -1.0910   -0.0370   -6.8810 o         1 1PH     -0.841000
     14 O04         0.8630   -0.5280   -5.5730 o         1 1PH     -0.841000
     15 C05        -1.2000    0.4590   -4.4070 c2        1 1PH     -0.876000
     16 C06        -2.5340    0.6720   -4.4050 c2        1 1PH      0.024000
     17 C07        -2.8010   -0.7370   -0.6400 c1        1 1PH      0.286000
     18 C08        -2.0740   -0.6240   -1.7430 c2        1 1PH     -0.494000
     19 C09        -0.7900    0.0070   -1.9690 c2        1 1PH      0.220000
     20 N17        -2.4040    0.4080    3.4620 ns        1 1PH     -0.331000
     21 O19        -1.4780    0.4500    5.5780 o         1 1PH     -0.336000
     22 C24        -5.1240    2.8900   11.7260 c1        1 1PH     -0.139000
     23 C25        -3.9640    2.7570   11.4550 c1        1 1PH     -0.214000
     24 C26        -5.1620    0.4660    6.0220 c1        1 1PH     -0.031500
     25 C27        -1.3430    0.3050    1.3090 c2        1 1PH     -0.314000
     26 C28        -0.1700    0.1870    0.5440 c2        1 1PH      0.044000
     27 C29        -0.4110    0.4820   -3.1900 c2        1 1PH     -0.294000
     28 H1          2.0330   -0.1420   -1.7730 hn        1 1PH      0.278000
     29 H2          0.1250   -0.5670    4.1020 hc        1 1PH      0.195000
     30 H3          0.1790    1.2200    4.0560 hc        1 1PH      0.195000
     31 H5         -5.0230    1.8830    9.3570 ha        1 1PH      0.185000
     32 H6         -3.5760    0.4890    5.2720 h5        1 1PH      0.257000
     33 H7         -6.7120    5.1140   11.6440 ha        1 1PH      0.123000
     34 H8          0.0720    2.5390   -5.2660 hn        1 1PH      0.253333
     35 H9          1.3370    1.9050   -6.1020 hn        1 1PH      0.253333
     36 H10        -3.1410    0.6150   -5.3270 ha        1 1PH      0.164500
     37 H11        -3.0880    0.9070   -3.4790 ha        1 1PH      0.164500
     38 H12        -2.5070   -1.1480   -2.6280 ha        1 1PH      0.191000
     39 H13        -3.2710    0.4090    2.9680 hn        1 1PH      0.234000
     40 H14        -6.9660    2.0960   12.4200 ha        1 1PH      0.141000
     41 H15        -6.0230   -0.0190    5.5520 ha        1 1PH      0.185000
     42 H16        -2.9330    2.6440   11.2330 ha        1 1PH      0.230000
     43 H17        -2.3260    0.4060    0.8080 ha        1 1PH      0.145000
     44 H18         0.5840    0.9470   -3.2950 ha        1 1PH      0.124000
     45 H013       -0.0520    2.2980   -6.8910 hn        1 1PH      0.253333
     46 S02        -0.3340    0.1310   -5.7400 s6        1 1PH      2.789000
     47 C18        -2.4880    0.4520    4.8660 c2        1 1PH      0.188000
     48 H4         -8.2220    4.2340   12.2660 ha        1 1PH      0.123000
@<TRIPOS>BOND
     1    1    2 1   
     2    1   19 1   
     3    1   26 1   
     4    2    3 1   
     5    2   28 1   
     6    3    4 1   
     7    4    5 1   
     8    4   26 1   
     9    5    6 1   
    10    6    7 1   
    11    6   29 1   
    12    6   30 1   
    13    7   20 1   
    14    7   25 1   
    15    8   11 1   
    16    8   33 1   
    17    8   48 1   
    18    9   10 1   
    19    9   31 1   
    20   10   24 1   
    21   11   22 1   
    22   11   40 1   
    23   12   34 1   
    24   12   35 1   
    25   12   45 1   
    26   12   46 1   
    27   13   46 1   
    28   14   46 1   
    29   15   16 1   
    30   15   27 1   
    31   15   46 1   
    32   16   36 1   
    33   16   37 1   
    34   17   18 1   
    35   18   19 1   
    36   18   38 1   
    37   19   27 1   
    38   20   39 1   
    39   20   47 1   
    40   21   47 1   
    41   22   23 1   
    42   23   42 1   
    43   24   41 1   
    44   25   26 1   
    45   25   43 1   
    46   27   44 1   
    47   32   47 1   
@<TRIPOS>SUBSTRUCTURE
     1 1PH         1 TEMP              0 ****  ****    0 ROOT
