@<TRIPOS>MOLECULE
1PI
   32    32     1     0     0
SMALL
bcc


@<TRIPOS>ATOM
      1 C           3.8410    0.2080    0.7090 c         1 1PI      0.571900
      2 N           2.2880    1.3550   -0.8180 n3        1 1PI     -0.903800
      3 O           4.7240   -0.0180   -0.1150 o         1 1PI     -0.519100
      4 C1         -0.3410   -2.2230   -0.2270 c3        1 1PI     -0.074400
      5 C2         -1.8180   -2.1800   -0.5530 c3        1 1PI     -0.108400
      6 C3         -2.5680   -1.2930    0.4390 c3        1 1PI      0.170800
      7 CA          2.3890    0.4930    0.3370 c3        1 1PI      0.058500
      8 CB          1.6960   -0.8800    0.2530 c3        1 1PI     -0.110400
      9 CD         -0.5790    0.0390    0.8190 c3        1 1PI      0.185800
     10 NE         -2.0200    0.0450    0.6220 nh        1 1PI     -0.695600
     11 CG          0.2390   -0.8150   -0.1620 c3        1 1PI     -0.095700
     12 NH1        -1.7740    1.4150   -1.3570 n2        1 1PI     -0.868100
     13 NH2        -3.8690    1.4180   -0.1310 nh        1 1PI     -0.930800
     14 H4          4.0380    0.1980    1.8040 h4        1 1PI     -0.002800
     15 H           2.8240    0.9920   -1.5820 hn        1 1PI      0.365800
     16 H2          1.3300    1.4570   -1.0960 hn        1 1PI      0.365800
     17 H1         -0.1880   -2.7380    0.7580 hc        1 1PI      0.042200
     18 H1A         0.2030   -2.8170   -1.0060 hc        1 1PI      0.042200
     19 H2B        -1.9640   -1.7920   -1.5950 hc        1 1PI      0.052700
     20 H2A        -2.2490   -3.2130   -0.5090 hc        1 1PI      0.052700
     21 H3         -3.6460   -1.2250    0.1280 h1        1 1PI      0.057700
     22 H3A        -2.5300   -1.7790    1.4570 h1        1 1PI      0.057700
     23 HA          1.9240    1.0640    1.1980 h1        1 1PI      0.067700
     24 HB          2.2480   -1.5230   -0.4850 hc        1 1PI      0.049700
     25 HBA         1.7780   -1.3720    1.2580 hc        1 1PI      0.049700
     26 HD         -0.2010    1.0990    0.7940 h1        1 1PI      0.057200
     27 HDA        -0.4210   -0.3660    1.8610 h1        1 1PI      0.057200
     28 HG          0.1650   -0.3650   -1.1910 hc        1 1PI      0.077700
     29 HNH1       -2.1700    2.1230   -1.9360 hn        1 1PI      0.393400
     30 HNH2       -4.2460    1.1650    0.7560 hn        1 1PI      0.394800
     31 HNHA       -4.0450    2.3710   -0.3610 hn        1 1PI      0.394800
     32 CZ         -2.5160    1.0110   -0.3590 c2        1 1PI      0.743100
@<TRIPOS>BOND
     1    1    3 2   
     2    1    7 1   
     3    1   14 1   
     4    2    7 1   
     5    2   15 1   
     6    2   16 1   
     7    4    5 1   
     8    4   11 1   
     9    4   17 1   
    10    4   18 1   
    11    5    6 1   
    12    5   19 1   
    13    5   20 1   
    14    6   10 1   
    15    6   21 1   
    16    6   22 1   
    17    7    8 1   
    18    7   23 1   
    19    8   11 1   
    20    8   24 1   
    21    8   25 1   
    22    9   10 1   
    23    9   11 1   
    24    9   26 1   
    25    9   27 1   
    26   10   32 1   
    27   11   28 1   
    28   12   29 1   
    29   12   32 2   
    30   13   30 1   
    31   13   31 1   
    32   13   32 1   
@<TRIPOS>SUBSTRUCTURE
     1 1PI         1 TEMP              0 ****  ****    0 ROOT
