@<TRIPOS>MOLECULE
1PI
   32    30     1     0     0
SMALL
bcc


@<TRIPOS>ATOM
      1 C          -3.1590    1.1490   -1.8150 c1        1 1PI      0.187000
      2 N          -1.5880    2.9300   -2.1300 n3        1 1PI     -0.340000
      3 O          -3.5100    0.3300   -2.6420 o         1 1PI     -0.283000
      4 C1          1.2020    1.2700    0.1360 c3        1 1PI     -0.157000
      5 C2          2.3870    0.4260    0.3490 c3        1 1PI     -0.157000
      6 C3          2.0990   -0.7570    1.2610 c3        1 1PI     -0.065000
      7 CA         -1.7090    1.5690   -1.7360 c2        1 1PI     -0.088000
      8 CB         -1.2150    1.4100   -0.3160 c3        1 1PI     -0.152000
      9 CD         -0.2540   -0.6980    0.6130 c3        1 1PI     -0.059000
     10 NE          0.9280   -1.5300    0.8270 n3        1 1PI     -0.270000
     11 CG          0.0260    0.4850   -0.3020 c3        1 1PI     -0.103000
     12 CZ          0.7800   -2.8820    1.2310 c2        1 1PI      0.140000
     13 NH1         1.0760   -3.8480    0.4030 n1        1 1PI     -0.292000
     14 NH2         0.3110   -3.1840    2.5360 n3        1 1PI     -0.344000
     15 H4         -3.8160    1.5450   -1.2090 ha        1 1PI      0.098000
     16 H          -0.7190    3.1050   -2.3620 hn        1 1PI      0.158500
     17 H2         -2.1340    3.0900   -2.8490 hn        1 1PI      0.158500
     18 H1          1.4080    1.9390   -0.5480 hc        1 1PI      0.089000
     19 H1A         0.9840    1.7270    0.9720 hc        1 1PI      0.089000
     20 H2B         3.0950    0.9690    0.7500 hc        1 1PI      0.089500
     21 H2A         2.6970    0.0900   -0.5160 hc        1 1PI      0.089500
     22 H3          2.8800   -1.3460    1.2710 h1        1 1PI      0.071500
     23 H3A         1.9400   -0.4260    2.1680 h1        1 1PI      0.071500
     24 HA         -1.1750    1.0090   -2.3320 h4        1 1PI      0.076000
     25 HB         -1.9220    1.0160    0.2330 hc        1 1PI      0.093000
     26 HBA        -0.9720    2.2860    0.0450 hc        1 1PI      0.093000
     27 HD         -0.9590   -1.2470    0.2150 h1        1 1PI      0.082500
     28 HDA        -0.5640   -0.3630    1.4780 h1        1 1PI      0.082500
     29 HG          0.1840    0.1550   -1.2060 hc        1 1PI      0.096000
     30 HNH1        1.3780   -3.6530   -0.4370 DU        1 1PI      0.166000
     31 HNH2        0.8880   -3.1650    3.2450 hn        1 1PI      0.190500
     32 HNHA       -0.5680   -3.4000    2.6670 hn        1 1PI      0.190500
@<TRIPOS>BOND
     1    1    3 1   
     2    1   15 1   
     3    2    7 1   
     4    2   16 1   
     5    2   17 1   
     6    4    5 1   
     7    4   11 1   
     8    4   18 1   
     9    4   19 1   
    10    5    6 1   
    11    5   20 1   
    12    5   21 1   
    13    6   10 1   
    14    6   22 1   
    15    6   23 1   
    16    7    8 1   
    17    7   24 1   
    18    8   11 1   
    19    8   25 1   
    20    8   26 1   
    21    9   10 1   
    22    9   11 1   
    23    9   27 1   
    24    9   28 1   
    25   10   12 1   
    26   11   29 1   
    27   12   13 1   
    28   12   14 1   
    29   14   31 1   
    30   14   32 1   
@<TRIPOS>SUBSTRUCTURE
     1 1PI         1 TEMP              0 ****  ****    0 ROOT
