@<TRIPOS>MOLECULE
1PJ
   25    26     1     0     0
SMALL
bcc


@<TRIPOS>ATOM
      1 C6          0.0820    0.2030    0.0480 ca        1 1PJ     -0.100000
      2 C5          1.5920   -1.0240   -2.2880 c         1 1PJ      0.944600
      3 C4          3.6480    0.2750   -1.3770 cx        1 1PJ     -0.125900
      4 C2          1.4790    0.0260    0.0180 ca        1 1PJ     -0.016300
      5 O8          0.3830   -0.8950   -2.6300 o         1 1PJ     -0.830800
      6 O9          2.3680   -1.9110   -2.7340 o         1 1PJ     -0.830800
      7 C1          2.1690   -0.0050   -1.2790 cx        1 1PJ     -0.175700
      8 C3          2.6680    1.2910   -1.8790 cx        1 1PJ     -0.125900
      9 C10        -0.6060    0.2520    1.2520 ca        1 1PJ     -0.188500
     10 C12         0.1060    0.1140    2.4570 ca        1 1PJ      0.081100
     11 O13        -0.6650    0.2120    3.6110 os        1 1PJ     -0.342900
     12 C14        -0.0190   -0.1800    4.8120 c3        1 1PJ      0.121700
     13 C11         1.4870   -0.0890    2.4500 ca        1 1PJ     -0.188500
     14 C7          2.1610   -0.1350    1.2280 ca        1 1PJ     -0.100000
     15 H1         -0.4540    0.2570   -0.9190 ha        1 1PJ      0.157500
     16 H2          4.2160   -0.3340   -2.1040 hc        1 1PJ      0.056950
     17 H3          4.2320    0.5030   -0.4690 hc        1 1PJ      0.056950
     18 H5          2.5460    1.4360   -2.9670 hc        1 1PJ      0.056950
     19 H6          2.5360    2.2310   -1.3150 hc        1 1PJ      0.056950
     20 H7         -1.6950    0.3890    1.2790 ha        1 1PJ      0.122000
     21 H8          0.7890    0.5440    5.0780 h1        1 1PJ      0.029700
     22 H9         -0.8350   -0.1510    5.5780 h1        1 1PJ      0.029700
     23 H10         0.4020   -1.2110    4.7260 h1        1 1PJ      0.029700
     24 H11         2.0480   -0.2170    3.3840 ha        1 1PJ      0.122000
     25 H12         3.2470   -0.3140    1.2240 ha        1 1PJ      0.157500
@<TRIPOS>BOND
     1    1    4 ar  
     2    1    9 ar  
     3    1   15 1   
     4    2    5 1   
     5    2    6 1   
     6    2    7 1   
     7    3    7 1   
     8    3    8 1   
     9    3   16 1   
    10    3   17 1   
    11    4    7 1   
    12    4   14 ar  
    13    7    8 1   
    14    8   18 1   
    15    8   19 1   
    16    9   10 ar  
    17    9   20 1   
    18   10   11 1   
    19   10   13 ar  
    20   11   12 1   
    21   12   21 1   
    22   12   22 1   
    23   12   23 1   
    24   13   14 ar  
    25   13   24 1   
    26   14   25 1   
@<TRIPOS>SUBSTRUCTURE
     1 1PJ         1 TEMP              0 ****  ****    0 ROOT
