@<TRIPOS>MOLECULE
1PJ
   25    26     1     0     0
SMALL
bcc


@<TRIPOS>ATOM
      1 C6          0.0830    0.2180    0.0490 ca        1 1PJ     -0.100000
      2 C5          1.5800   -1.0220   -2.2880 c         1 1PJ      0.944600
      3 C4          3.6480    0.2570   -1.3790 cx        1 1PJ     -0.125900
      4 C2          1.4780    0.0280    0.0180 ca        1 1PJ     -0.016300
      5 O8          0.3720   -0.8820   -2.6300 o         1 1PJ     -0.830800
      6 O9          2.3470   -1.9160   -2.7360 o         1 1PJ     -0.830800
      7 C1          2.1670   -0.0090   -1.2800 cx        1 1PJ     -0.175700
      8 C3          2.6780    1.2830   -1.8790 cx        1 1PJ     -0.125900
      9 C10        -0.6030    0.2720    1.2540 ca        1 1PJ     -0.188500
     10 C12         0.1080    0.1270    2.4580 ca        1 1PJ      0.081100
     11 O13        -0.6600    0.2320    3.6130 os        1 1PJ     -0.342900
     12 C14        -0.0180   -0.1680    4.8130 c3        1 1PJ      0.121700
     13 C11         1.4870   -0.0880    2.4490 ca        1 1PJ     -0.188500
     14 C7          2.1600   -0.1400    1.2270 ca        1 1PJ     -0.100000
     15 H1         -0.4530    0.2770   -0.9180 ha        1 1PJ      0.157500
     16 H2          4.2350    0.4800   -0.4720 hc        1 1PJ      0.056950
     17 H3          4.2110   -0.3570   -2.1070 hc        1 1PJ      0.056950
     18 H5          2.5560    1.4290   -2.9670 hc        1 1PJ      0.056950
     19 H6          2.5540    2.2230   -1.3160 hc        1 1PJ      0.056950
     20 H7         -1.6910    0.4200    1.2820 ha        1 1PJ      0.122000
     21 H8         -0.8330   -0.1320    5.5800 h1        1 1PJ      0.029700
     22 H9          0.3930   -1.2030    4.7250 h1        1 1PJ      0.029700
     23 H10         0.7980    0.5480    5.0800 h1        1 1PJ      0.029700
     24 H11         2.0480   -0.2220    3.3830 ha        1 1PJ      0.122000
     25 H12         3.2440   -0.3290    1.2220 ha        1 1PJ      0.157500
@<TRIPOS>BOND
     1    1    4 ar  
     2    1    9 ar  
     3    1   15 1   
     4    2    5 1   
     5    2    6 1   
     6    2    7 1   
     7    3    7 1   
     8    3    8 1   
     9    3   16 1   
    10    3   17 1   
    11    4    7 1   
    12    4   14 ar  
    13    7    8 1   
    14    8   18 1   
    15    8   19 1   
    16    9   10 ar  
    17    9   20 1   
    18   10   11 1   
    19   10   13 ar  
    20   11   12 1   
    21   12   21 1   
    22   12   22 1   
    23   12   23 1   
    24   13   14 ar  
    25   13   24 1   
    26   14   25 1   
@<TRIPOS>SUBSTRUCTURE
     1 1PJ         1 TEMP              0 ****  ****    0 ROOT
