@<TRIPOS>MOLECULE
1PJ
   25    26     1     0     0
SMALL
bcc


@<TRIPOS>ATOM
      1 C6         -0.2240    0.9040    0.6170 ca        1 1PJ     -0.100000
      2 C5          2.5590    0.5790   -0.5580 c         1 1PJ      0.944600
      3 C4          2.2950   -1.9350    0.0340 cx        1 1PJ     -0.125900
      4 C2          0.2800   -0.3080    0.1090 ca        1 1PJ     -0.016300
      5 O8          2.4710    1.7470   -0.0830 o         1 1PJ     -0.830800
      6 O9          3.3000    0.2590   -1.5270 o         1 1PJ     -0.830800
      7 C1          1.7320   -0.5380    0.1150 cx        1 1PJ     -0.175700
      8 C3          2.3710   -1.1810    1.3260 cx        1 1PJ     -0.125900
      9 C10        -1.5890    1.1550    0.6430 ca        1 1PJ     -0.188500
     10 C12        -2.4770    0.1840    0.1450 ca        1 1PJ      0.081100
     11 O13        -3.8250    0.5110    0.2460 os        1 1PJ     -0.342900
     12 C14        -4.7130   -0.3250   -0.4780 c3        1 1PJ      0.121700
     13 C11        -1.9960   -1.0140   -0.3870 ca        1 1PJ     -0.188500
     14 C7         -0.6200   -1.2480   -0.4040 ca        1 1PJ     -0.100000
     15 H1          0.5030    1.6680    0.9540 ha        1 1PJ      0.157500
     16 H2          1.6190   -2.8040   -0.0340 hc        1 1PJ      0.056950
     17 H3          3.2110   -2.0610   -0.5730 hc        1 1PJ      0.056950
     18 H5          1.7310   -1.4960    2.1680 hc        1 1PJ      0.056950
     19 H6          3.3430   -0.7830    1.6670 hc        1 1PJ      0.056950
     20 H7         -1.9860    2.0990    1.0380 ha        1 1PJ      0.122000
     21 H8         -5.7060    0.1790   -0.3710 h1        1 1PJ      0.029700
     22 H9         -4.4180   -0.3900   -1.5540 h1        1 1PJ      0.029700
     23 H10        -4.7460   -1.3470   -0.0270 h1        1 1PJ      0.029700
     24 H11        -2.6800   -1.7690   -0.7950 ha        1 1PJ      0.122000
     25 H12        -0.2430   -2.1840   -0.8410 ha        1 1PJ      0.157500
@<TRIPOS>BOND
     1    1    4 ar  
     2    1    9 ar  
     3    1   15 1   
     4    2    5 1   
     5    2    6 1   
     6    2    7 1   
     7    3    7 1   
     8    3    8 1   
     9    3   16 1   
    10    3   17 1   
    11    4    7 1   
    12    4   14 ar  
    13    7    8 1   
    14    8   18 1   
    15    8   19 1   
    16    9   10 ar  
    17    9   20 1   
    18   10   11 1   
    19   10   13 ar  
    20   11   12 1   
    21   12   21 1   
    22   12   22 1   
    23   12   23 1   
    24   13   14 ar  
    25   13   24 1   
    26   14   25 1   
@<TRIPOS>SUBSTRUCTURE
     1 1PJ         1 TEMP              0 ****  ****    0 ROOT
