@<TRIPOS>MOLECULE
1PJ
   25    21     1     0     0
SMALL
bcc


@<TRIPOS>ATOM
      1 C6         -1.1710   -0.2490   -0.3910 c1        1 1PJ     -0.086000
      2 C5          1.5380   -0.8750   -2.5830 c1        1 1PJ      0.660600
      3 C4          0.9540    1.4740   -3.2100 cx        1 1PJ     -0.120700
      4 C2          0.2200   -0.2210   -0.3520 c1        1 1PJ      0.009000
      5 O8          2.4720   -1.5800   -2.1050 os        1 1PJ     -0.571000
      6 O9          0.9260   -1.2580   -3.6190 o         1 1PJ     -0.790500
      7 C1          1.1200    0.4130   -1.8810 cu        1 1PJ     -0.209500
      8 C3          2.3600    1.4800   -2.3820 cx        1 1PJ     -0.120700
      9 C10        -1.9020   -0.1620    0.7900 c1        1 1PJ     -0.086000
     10 C12        -1.2420   -0.0490    2.0100 c1        1 1PJ      0.037600
     11 O13        -1.9860    0.1410    3.2000 os        1 1PJ     -0.339400
     12 C14        -2.2660   -1.0600    3.9000 c3        1 1PJ      0.122700
     13 C11         0.1490   -0.0210    2.0480 c1        1 1PJ     -0.113500
     14 C7          0.8790   -0.1080    0.8680 c1        1 1PJ     -0.038500
     15 H1         -1.6360   -0.3290   -1.2520 ha        1 1PJ      0.067500
     16 H2          0.9850    1.0530   -4.0950 hc        1 1PJ      0.057450
     17 H3          0.3720    2.2510   -3.0630 hc        1 1PJ      0.057450
     18 H5          3.1220    1.0620   -2.8370 hc        1 1PJ      0.057450
     19 H6          2.5090    2.2600   -1.8040 hc        1 1PJ      0.057450
     20 H7         -2.8830   -0.1490    0.7590 ha        1 1PJ      0.067500
     21 H8         -2.6130   -1.7310    3.2730 h1        1 1PJ      0.028367
     22 H9         -2.9370   -0.8840    4.5970 h1        1 1PJ      0.028367
     23 H10        -1.4430   -1.3960    4.3170 h1        1 1PJ      0.028367
     24 H11         0.6150    0.0590    2.9090 ha        1 1PJ      0.063500
     25 H12         1.8610   -0.1240    0.8980 ha        1 1PJ      0.129500
@<TRIPOS>BOND
     1    1    9 3   
     2    1   15 1   
     3    2    6 2   
     4    2    7 2   
     5    3    7 1   
     6    3    8 1   
     7    3   16 1   
     8    3   17 1   
     9    4   14 3   
    10    7    8 1   
    11    8   18 1   
    12    8   19 1   
    13    9   20 1   
    14   10   11 1   
    15   10   13 3   
    16   11   12 1   
    17   12   21 1   
    18   12   22 1   
    19   12   23 1   
    20   13   24 1   
    21   14   25 1   
@<TRIPOS>SUBSTRUCTURE
     1 1PJ         1 TEMP              0 ****  ****    0 ROOT
