@<TRIPOS>MOLECULE
1PK
   23    25     1     0     0
SMALL
bcc


@<TRIPOS>ATOM
      1 N14         3.8000   -0.0140    0.1920 nh        1 1PK     -0.918500
      2 C11         2.3840    0.0370    0.0290 cc        1 1PK      0.740400
      3 N5          1.7250   -1.2190   -0.0770 na        1 1PK     -0.400900
      4 N7          1.7620    1.2160    0.0040 nd        1 1PK     -0.767000
      5 C3          0.3610    1.2330   -0.0060 ca        1 1PK      0.438600
      6 C8         -0.3390    2.4390   -0.0090 ca        1 1PK     -0.212300
      7 C13        -1.7470    2.4350   -0.0140 ca        1 1PK     -0.094000
      8 C10        -2.4660    1.2610   -0.0110 ca        1 1PK     -0.158000
      9 C4         -1.7960    0.0110   -0.0060 ca        1 1PK      0.014000
     10 C1         -0.3840    0.0020   -0.0110 ca        1 1PK     -0.155300
     11 C9         -2.4920   -1.2290    0.0030 ca        1 1PK     -0.162000
     12 C12        -1.7990   -2.4140    0.0130 ca        1 1PK     -0.082000
     13 C6         -0.3880   -2.4450    0.0100 ca        1 1PK     -0.215000
     14 C2          0.3240   -1.2500   -0.0130 ca        1 1PK      0.063700
     15 H1          4.2490   -0.6330   -0.4500 hn        1 1PK      0.404800
     16 H2          4.2220    0.8930    0.1980 hn        1 1PK      0.404800
     17 H3          2.2140   -2.0500    0.1690 hn        1 1PK      0.288700
     18 H4          0.1990    3.3980   -0.0060 ha        1 1PK      0.147000
     19 H5         -2.2730    3.4030   -0.0190 ha        1 1PK      0.131000
     20 H6         -3.5650    1.2720   -0.0140 ha        1 1PK      0.134000
     21 H7         -3.5910   -1.2160    0.0040 ha        1 1PK      0.135000
     22 H8         -2.3390   -3.3740    0.0240 ha        1 1PK      0.131000
     23 H9          0.1260   -3.4160    0.0220 ha        1 1PK      0.133000
@<TRIPOS>BOND
     1    1    2 1   
     2    1   15 1   
     3    1   16 1   
     4    2    3 1   
     5    2    4 2   
     6    3   14 1   
     7    3   17 1   
     8    4    5 1   
     9    5    6 ar  
    10    5   10 ar  
    11    6    7 ar  
    12    6   18 1   
    13    7    8 ar  
    14    7   19 1   
    15    8    9 ar  
    16    8   20 1   
    17    9   10 ar  
    18    9   11 ar  
    19   10   14 ar  
    20   11   12 ar  
    21   11   21 1   
    22   12   13 ar  
    23   12   22 1   
    24   13   14 ar  
    25   13   23 1   
@<TRIPOS>SUBSTRUCTURE
     1 1PK         1 TEMP              0 ****  ****    0 ROOT
