@<TRIPOS>MOLECULE
1PK
   23    19     1     0     0
SMALL
bcc


@<TRIPOS>ATOM
      1 N14        -3.9530   -0.0010   -0.0860 n3        1 1PK     -0.316000
      2 C11        -2.5340   -0.0010   -0.0860 c1        1 1PK      0.196000
      3 N5         -1.8290   -0.0010    1.1340 n2        1 1PK     -0.287000
      4 N7         -1.8260   -0.0010   -1.3100 n1        1 1PK     -0.241000
      5 C3         -0.3810   -0.0010   -1.3080 c1        1 1PK      0.045000
      6 C8          0.3220   -0.0010   -2.5270 c1        1 1PK     -0.147000
      7 C13         1.7280   -0.0010   -2.5280 c1        1 1PK     -0.126000
      8 C10         2.4340   -0.0010   -1.3090 c1        1 1PK     -0.126000
      9 C4          1.7300   -0.0010   -0.0810 c1        1 1PK      0.014000
     10 C1          0.3290   -0.0010   -0.0800 c1        1 1PK     -0.090000
     11 C9          2.4350   -0.0010    1.1390 c2        1 1PK     -0.162000
     12 C12         1.7370   -0.0010    2.3510 c1        1 1PK     -0.082000
     13 C6          0.3370   -0.0010    2.3530 c1        1 1PK     -0.215000
     14 C2         -0.3700   -0.0010    1.1330 c2        1 1PK      0.088000
     15 H1         -4.4080    0.7880   -0.1030 hn        1 1PK      0.200000
     16 H2         -4.4080   -0.7910   -0.0940 hn        1 1PK      0.200000
     17 H3         -2.2850    0.0260    1.9240 hn        1 1PK      0.239000
     18 H4         -0.1670   -0.0010   -3.3720 ha        1 1PK      0.147000
     19 H5          2.2150   -0.0010   -3.3740 ha        1 1PK      0.132500
     20 H6          3.4100   -0.0010   -1.3110 ha        1 1PK      0.132500
     21 H7          3.4110   -0.0010    1.1390 ha        1 1PK      0.135000
     22 H8          2.2260   -0.0010    3.1960 ha        1 1PK      0.131000
     23 H9         -0.1500   -0.0010    3.1990 ha        1 1PK      0.133000
@<TRIPOS>BOND
     1    1    2 1   
     2    1   15 1   
     3    1   16 1   
     4    2    4 1   
     5    3   14 1   
     6    3   17 1   
     7    5    6 1   
     8    6   18 1   
     9    7    8 1   
    10    7   19 1   
    11    8   20 1   
    12    9   10 1   
    13    9   11 1   
    14   10   14 1   
    15   11   12 1   
    16   11   21 1   
    17   12   22 1   
    18   13   14 1   
    19   13   23 1   
@<TRIPOS>SUBSTRUCTURE
     1 1PK         1 TEMP              0 ****  ****    0 ROOT
