@<TRIPOS>MOLECULE
1PK
   24    26     1     0     0
SMALL
bcc


@<TRIPOS>ATOM
      1 N14        -0.1010   -0.0900   -0.0020 nz        1 1PK     -0.832300
      2 C11         1.3970    0.0200   -0.0110 cc        1 1PK      0.541400
      3 N5          1.9980    0.0120    1.2880 na        1 1PK     -0.334900
      4 N7          1.9690   -0.0260   -1.1910 nd        1 1PK     -0.602000
      5 C3          3.3730    0.0070   -1.2330 ca        1 1PK      0.324600
      6 C8          4.0480    0.0200   -2.4510 ca        1 1PK     -0.089300
      7 C13         5.4600    0.0040   -2.4620 ca        1 1PK     -0.135000
      8 C10         6.1830   -0.0300   -1.2940 ca        1 1PK     -0.058000
      9 C4          5.5270   -0.0380   -0.0310 ca        1 1PK     -0.025000
     10 C1          4.1170   -0.0100    0.0000 ca        1 1PK     -0.104300
     11 C9          6.2430   -0.0780    1.1970 ca        1 1PK     -0.098000
     12 C12         5.5690   -0.0830    2.3940 ca        1 1PK     -0.103000
     13 C6          4.1570   -0.0390    2.4410 ca        1 1PK     -0.105000
     14 C2          3.4310   -0.0020    1.2590 ca        1 1PK     -0.039300
     15 H1         -0.3700   -0.9260    0.5330 hn        1 1PK      0.476800
     16 H2         -0.5040    0.7450    0.4340 hn        1 1PK      0.476800
     17 H3          1.6400    0.7170    1.9100 hn        1 1PK      0.261700
     18 H4          3.5000    0.0390   -3.4080 ha        1 1PK      0.165000
     19 H5          5.9760    0.0140   -3.4370 ha        1 1PK      0.165000
     20 H6          7.2860   -0.0540   -1.3140 ha        1 1PK      0.162000
     21 H7          7.3440   -0.1050    1.1680 ha        1 1PK      0.160000
     22 H8          6.1220   -0.1180    3.3470 ha        1 1PK      0.162000
     23 H9          3.6580   -0.0340    3.4230 ha        1 1PK      0.155000
     24 H143       -0.4520   -0.1750   -0.9660 hn        1 1PK      0.476800
@<TRIPOS>BOND
     1    1    2 1   
     2    1   15 1   
     3    1   16 1   
     4    1   24 1   
     5    2    3 1   
     6    2    4 2   
     7    3   14 1   
     8    3   17 1   
     9    4    5 1   
    10    5    6 ar  
    11    5   10 ar  
    12    6    7 ar  
    13    6   18 1   
    14    7    8 ar  
    15    7   19 1   
    16    8    9 ar  
    17    8   20 1   
    18    9   10 ar  
    19    9   11 ar  
    20   10   14 ar  
    21   11   12 ar  
    22   11   21 1   
    23   12   13 ar  
    24   12   22 1   
    25   13   14 ar  
    26   13   23 1   
@<TRIPOS>SUBSTRUCTURE
     1 1PK         1 TEMP              0 ****  ****    0 ROOT
