@<TRIPOS>MOLECULE
1PL
   38    40     1     0     0
SMALL
bcc


@<TRIPOS>ATOM
      1 C10        -1.7430    1.5210    0.8670 c3        1 1PL     -0.081100
      2 C9         -0.3400    1.5210    0.8670 c3        1 1PL     -0.046700
      3 C11         0.1640    1.5210    2.2440 c3        1 1PL     -0.076400
      4 C12         0.4860    0.0620    2.5960 c3        1 1PL     -0.065400
      5 C5          0.7580   -0.7310    1.1490 c3        1 1PL     -0.018500
      6 C4          0.2520    0.0880    0.1290 c3        1 1PL     -0.053000
      7 C3          1.1210    0.3400   -0.7730 c3        1 1PL     -0.058400
      8 C2          0.5980    0.0510   -1.8200 c3        1 1PL     -0.058000
      9 C14         0.0710    1.3170   -2.5130 c3        1 1PL     -0.080600
     10 C15         1.6080   -0.6720   -2.7340 c3        1 1PL     -0.080600
     11 C1         -0.6550   -0.9580   -1.4500 c3        1 1PL     -0.062400
     12 C8         -0.9040   -0.7810   -0.5450 c3        1 1PL     -0.025500
     13 C7         -0.9540   -1.4890   -0.0930 c2        1 1PL     -0.216200
     14 C6          0.1260   -1.6250    1.0660 ce        1 1PL     -0.130400
     15 C13        -0.1870   -2.4610    2.3130 c         1 1PL      0.909800
     16 O1         -1.3790   -2.6030    2.6910 o         1 1PL     -0.836300
     17 O2          0.7410   -3.0760    2.9100 o         1 1PL     -0.836300
     18 H101       -2.0680    0.7040    1.2890 hc        1 1PL      0.027033
     19 H102       -2.0680    2.2960    1.3640 hc        1 1PL      0.027033
     20 H103       -2.0680    1.5650   -0.0520 hc        1 1PL      0.027033
     21 H9         -0.0060    2.3050    0.3900 hc        1 1PL      0.025700
     22 H111        0.9710    2.0660    2.3050 hc        1 1PL      0.022700
     23 H112       -0.5190    1.8680    2.8500 hc        1 1PL      0.022700
     24 H121        1.2850    0.0220    3.1550 hc        1 1PL      0.051200
     25 H122       -0.2690   -0.3440    3.0630 hc        1 1PL      0.051200
     26 H5          1.7030   -0.9380    1.0140 hc        1 1PL      0.072700
     27 H31         1.3540    1.2880   -0.7620 hc        1 1PL      0.039700
     28 H32         1.9190   -0.2050   -0.6330 hc        1 1PL      0.039700
     29 H141       -0.2510    1.0890   -3.4060 hc        1 1PL      0.026700
     30 H142       -0.6620    1.6940   -1.9890 hc        1 1PL      0.026700
     31 H143        0.7900    1.9730   -2.5840 hc        1 1PL      0.026700
     32 H151        1.1790   -0.8910   -3.5840 hc        1 1PL      0.026700
     33 H152        1.9090   -1.4930   -2.3010 hc        1 1PL      0.026700
     34 H153        2.3740   -0.0900   -2.8970 hc        1 1PL      0.026700
     35 H11        -0.3720   -1.8870   -1.5410 hc        1 1PL      0.035200
     36 H12        -1.4100   -0.7810   -2.0420 hc        1 1PL      0.035200
     37 H8         -1.7520   -0.2980   -0.5140 hc        1 1PL      0.042700
     38 H7         -1.8010   -1.9700   -0.0290 ha        1 1PL      0.136000
@<TRIPOS>BOND
     1    1    2 1   
     2    1   18 1   
     3    1   19 1   
     4    1   20 1   
     5    2    3 1   
     6    2    6 1   
     7    2   21 1   
     8    3    4 1   
     9    3   22 1   
    10    3   23 1   
    11    4    5 1   
    12    4   24 1   
    13    4   25 1   
    14    5    6 1   
    15    5   14 1   
    16    5   26 1   
    17    6    7 1   
    18    6   12 1   
    19    7    8 1   
    20    7   27 1   
    21    7   28 1   
    22    8    9 1   
    23    8   10 1   
    24    8   11 1   
    25    9   29 1   
    26    9   30 1   
    27    9   31 1   
    28   10   32 1   
    29   10   33 1   
    30   10   34 1   
    31   11   12 1   
    32   11   35 1   
    33   11   36 1   
    34   12   13 1   
    35   12   37 1   
    36   13   14 2   
    37   13   38 1   
    38   14   15 1   
    39   15   16 1   
    40   15   17 1   
@<TRIPOS>SUBSTRUCTURE
     1 1PL         1 TEMP              0 ****  ****    0 ROOT
