@<TRIPOS>MOLECULE
1PL
   38    40     1     0     0
SMALL
bcc


@<TRIPOS>ATOM
      1 C10         0.5570    0.7460   -0.1110 c3        1 1PL     -0.079100
      2 C9          1.8310   -0.0230    0.1270 c3        1 1PL     -0.056700
      3 C11         1.9720   -0.4620    1.5860 c3        1 1PL     -0.070400
      4 C12         2.9100   -1.6580    1.5890 c3        1 1PL     -0.083400
      5 C5          2.9290   -2.2180    0.1730 c3        1 1PL     -0.017500
      6 C4          2.0490   -1.2840   -0.7270 c3        1 1PL     -0.054000
      7 C3          0.7870   -1.9780   -1.2270 c3        1 1PL     -0.054400
      8 C2          0.8540   -2.0920   -2.7600 c3        1 1PL     -0.055000
      9 C14        -0.1770   -1.1770   -3.4030 c3        1 1PL     -0.081100
     10 C15         0.5810   -3.5210   -3.1970 c3        1 1PL     -0.081100
     11 C1          2.2690   -1.6680   -3.1740 c3        1 1PL     -0.064400
     12 C8          2.9250   -0.9870   -1.9800 c3        1 1PL     -0.021500
     13 C7          4.2740   -1.5550   -1.6490 c2        1 1PL     -0.236200
     14 C6          4.2900   -2.2070   -0.4720 ce        1 1PL     -0.114400
     15 C13         5.4680   -2.8710    0.1980 c         1 1PL      0.912800
     16 O1          5.9180   -3.9400   -0.3020 o         1 1PL     -0.833800
     17 O2          5.9420   -2.3230    1.2360 o         1 1PL     -0.833800
     18 H101       -0.3310    0.2160    0.3110 hc        1 1PL      0.022700
     19 H102        0.3940    0.9040   -1.2050 hc        1 1PL      0.022700
     20 H103        0.6230    1.7460    0.3850 hc        1 1PL      0.022700
     21 H9          2.6930    0.6720   -0.0950 hc        1 1PL      0.053700
     22 H111        0.9720   -0.7450    2.0030 hc        1 1PL      0.021700
     23 H112        2.3730    0.3730    2.2110 hc        1 1PL      0.021700
     24 H121        2.5570   -2.4320    2.3140 hc        1 1PL      0.066200
     25 H122        3.9530   -1.3670    1.8920 hc        1 1PL      0.066200
     26 H5          2.5420   -3.2690    0.1670 hc        1 1PL      0.054700
     27 H31         0.7070   -3.0020   -0.7770 hc        1 1PL      0.036200
     28 H32        -0.1390   -1.4290   -0.9260 hc        1 1PL      0.036200
     29 H141        0.0110   -0.1160   -3.1110 hc        1 1PL      0.026867
     30 H142       -1.2070   -1.4600   -3.0770 hc        1 1PL      0.026867
     31 H143       -0.1250   -1.2540   -4.5160 hc        1 1PL      0.026867
     32 H151        0.6540   -3.6070   -4.3080 hc        1 1PL      0.026867
     33 H152        1.3230   -4.2170   -2.7370 hc        1 1PL      0.026867
     34 H153       -0.4440   -3.8340   -2.8830 hc        1 1PL      0.026867
     35 H11         2.2350   -0.9760   -4.0530 hc        1 1PL      0.038200
     36 H12         2.8680   -2.5650   -3.4780 hc        1 1PL      0.038200
     37 H8          2.9960    0.1160   -2.1670 hc        1 1PL      0.033700
     38 H7          5.1120   -1.4230   -2.3320 ha        1 1PL      0.128000
@<TRIPOS>BOND
     1    1    2 1   
     2    1   18 1   
     3    1   19 1   
     4    1   20 1   
     5    2    3 1   
     6    2    6 1   
     7    2   21 1   
     8    3    4 1   
     9    3   22 1   
    10    3   23 1   
    11    4    5 1   
    12    4   24 1   
    13    4   25 1   
    14    5    6 1   
    15    5   14 1   
    16    5   26 1   
    17    6    7 1   
    18    6   12 1   
    19    7    8 1   
    20    7   27 1   
    21    7   28 1   
    22    8    9 1   
    23    8   10 1   
    24    8   11 1   
    25    9   29 1   
    26    9   30 1   
    27    9   31 1   
    28   10   32 1   
    29   10   33 1   
    30   10   34 1   
    31   11   12 1   
    32   11   35 1   
    33   11   36 1   
    34   12   13 1   
    35   12   37 1   
    36   13   14 2   
    37   13   38 1   
    38   14   15 1   
    39   15   16 1   
    40   15   17 1   
@<TRIPOS>SUBSTRUCTURE
     1 1PL         1 TEMP              0 ****  ****    0 ROOT
