@<TRIPOS>MOLECULE
1PL
   38    40     1     0     0
SMALL
bcc


@<TRIPOS>ATOM
      1 C10         0.5030    0.7210   -0.0970 c3        1 1PL     -0.079100
      2 C9          1.8000   -0.0100    0.1360 c3        1 1PL     -0.056700
      3 C11         1.9600   -0.4380    1.5950 c3        1 1PL     -0.075400
      4 C12         2.9660   -1.5780    1.5930 c3        1 1PL     -0.066400
      5 C5          2.9350   -2.1930    0.1990 c3        1 1PL     -0.018500
      6 C4          2.0520   -1.2700   -0.7110 c3        1 1PL     -0.055000
      7 C3          0.8080   -1.9860   -1.2230 c3        1 1PL     -0.054400
      8 C2          0.8710   -2.0730   -2.7580 c3        1 1PL     -0.054000
      9 C14        -0.2030   -1.1980   -3.3830 c3        1 1PL     -0.081100
     10 C15         0.6590   -3.5080   -3.2130 c3        1 1PL     -0.081100
     11 C1          2.2640   -1.5830   -3.1740 c3        1 1PL     -0.063400
     12 C8          2.9360   -0.9610   -1.9560 c3        1 1PL     -0.024500
     13 C7          4.2680   -1.5790   -1.6480 c2        1 1PL     -0.221200
     14 C6          4.2780   -2.2420   -0.4770 ce        1 1PL     -0.126400
     15 C13         5.4210   -3.0220    0.1240 c         1 1PL      0.908800
     16 O1          5.1460   -4.0850    0.7510 o         1 1PL     -0.835300
     17 O2          6.5960   -2.5820   -0.0320 o         1 1PL     -0.835300
     18 H101        0.3290    0.8730   -1.1900 hc        1 1PL      0.023033
     19 H102       -0.3660    0.1660    0.3310 hc        1 1PL      0.023033
     20 H103        0.5420    1.7230    0.3970 hc        1 1PL      0.023033
     21 H9          2.6390    0.7120   -0.0930 hc        1 1PL      0.050700
     22 H111        0.9790   -0.7820    2.0080 hc        1 1PL      0.022700
     23 H112        2.3100    0.4180    2.2230 hc        1 1PL      0.022700
     24 H121        2.7100   -2.3430    2.3660 hc        1 1PL      0.051700
     25 H122        3.9950   -1.2020    1.8240 hc        1 1PL      0.051700
     26 H5          2.5300   -3.2360    0.2520 hc        1 1PL      0.070700
     27 H31         0.7550   -3.0200   -0.7910 hc        1 1PL      0.037700
     28 H32        -0.1320   -1.4670   -0.9090 hc        1 1PL      0.037700
     29 H141       -1.2170   -1.5330   -3.0560 hc        1 1PL      0.027033
     30 H142       -0.0640   -0.1330   -3.0780 hc        1 1PL      0.027033
     31 H143       -0.1530   -1.2580   -4.4970 hc        1 1PL      0.027033
     32 H151       -0.3490   -3.8700   -2.8970 hc        1 1PL      0.027033
     33 H152        1.4350   -4.1760   -2.7660 hc        1 1PL      0.027033
     34 H153        0.7280   -3.5750   -4.3250 hc        1 1PL      0.027033
     35 H11         2.8780   -2.4390   -3.5550 hc        1 1PL      0.036200
     36 H12         2.1870   -0.8360   -4.0030 hc        1 1PL      0.036200
     37 H8          3.0440    0.1440   -2.1100 hc        1 1PL      0.035700
     38 H7          5.1080   -1.4710   -2.3340 ha        1 1PL      0.135000
@<TRIPOS>BOND
     1    1    2 1   
     2    1   18 1   
     3    1   19 1   
     4    1   20 1   
     5    2    3 1   
     6    2    6 1   
     7    2   21 1   
     8    3    4 1   
     9    3   22 1   
    10    3   23 1   
    11    4    5 1   
    12    4   24 1   
    13    4   25 1   
    14    5    6 1   
    15    5   14 1   
    16    5   26 1   
    17    6    7 1   
    18    6   12 1   
    19    7    8 1   
    20    7   27 1   
    21    7   28 1   
    22    8    9 1   
    23    8   10 1   
    24    8   11 1   
    25    9   29 1   
    26    9   30 1   
    27    9   31 1   
    28   10   32 1   
    29   10   33 1   
    30   10   34 1   
    31   11   12 1   
    32   11   35 1   
    33   11   36 1   
    34   12   13 1   
    35   12   37 1   
    36   13   14 2   
    37   13   38 1   
    38   14   15 1   
    39   15   16 1   
    40   15   17 1   
@<TRIPOS>SUBSTRUCTURE
     1 1PL         1 TEMP              0 ****  ****    0 ROOT
