@<TRIPOS>MOLECULE
1PL
   38    40     1     0     0
SMALL
bcc


@<TRIPOS>ATOM
      1 C10         2.1470    2.4040   -0.7330 c3        1 1PL     -0.083100
      2 C9          1.2150    1.8270    0.3090 c3        1 1PL     -0.050700
      3 C11         0.0100    2.7540    0.5080 c3        1 1PL     -0.073400
      4 C12        -1.1360    2.1760   -0.3040 c3        1 1PL     -0.081400
      5 C5         -0.8530    0.6870   -0.4600 c3        1 1PL     -0.016500
      6 C4          0.6290    0.4440   -0.0260 c3        1 1PL     -0.055000
      7 C3          1.4010   -0.3900   -1.0440 c3        1 1PL     -0.057400
      8 C2          2.2100   -1.4430   -0.2700 c3        1 1PL     -0.058000
      9 C14         3.5960   -0.9110    0.0510 c3        1 1PL     -0.080600
     10 C15         2.3360   -2.7220   -1.0750 c3        1 1PL     -0.080600
     11 C1          1.4180   -1.6810    1.0240 c3        1 1PL     -0.063400
     12 C8          0.5340   -0.4600    1.2490 c3        1 1PL     -0.022500
     13 C7         -0.9220   -0.7890    1.3810 c2        1 1PL     -0.231200
     14 C6         -1.6830   -0.1580    0.4700 ce        1 1PL     -0.117400
     15 C13        -3.1850   -0.2070    0.3270 c         1 1PL      0.911800
     16 O1         -3.8340    0.8560    0.5490 o         1 1PL     -0.834300
     17 O2         -3.7200   -1.3000   -0.0110 o         1 1PL     -0.834300
     18 H101        2.4340    3.4470   -0.4500 hc        1 1PL      0.024033
     19 H102        3.0840    1.7990   -0.8090 hc        1 1PL      0.024033
     20 H103        1.6530    2.4370   -1.7340 hc        1 1PL      0.024033
     21 H9          1.7960    1.7590    1.2700 hc        1 1PL      0.032700
     22 H111       -0.2660    2.7790    1.5930 hc        1 1PL      0.029200
     23 H112        0.2450    3.8010    0.1950 hc        1 1PL      0.029200
     24 H121       -2.1300    2.3280    0.1970 hc        1 1PL      0.063700
     25 H122       -1.1780    2.6650   -1.3100 hc        1 1PL      0.063700
     26 H5         -1.0310    0.3660   -1.5180 hc        1 1PL      0.055700
     27 H31         0.6720   -0.9180   -1.7160 hc        1 1PL      0.041700
     28 H32         2.0680    0.2160   -1.7010 hc        1 1PL      0.041700
     29 H141        3.5130    0.0300    0.6470 hc        1 1PL      0.026700
     30 H142        4.1760   -1.6610    0.6410 hc        1 1PL      0.026700
     31 H143        4.1560   -0.6890   -0.8900 hc        1 1PL      0.026700
     32 H151        2.8760   -2.5250   -2.0310 hc        1 1PL      0.026700
     33 H152        2.9040   -3.4890   -0.4950 hc        1 1PL      0.026700
     34 H153        1.3260   -3.1350   -1.3150 hc        1 1PL      0.026700
     35 H11         0.7850   -2.6000    0.9240 hc        1 1PL      0.036700
     36 H12         2.1100   -1.8400    1.8870 hc        1 1PL      0.036700
     37 H8          0.8790    0.0940    2.1610 hc        1 1PL      0.035700
     38 H7         -1.2670   -1.4740    2.1560 ha        1 1PL      0.129000
@<TRIPOS>BOND
     1    1    2 1   
     2    1   18 1   
     3    1   19 1   
     4    1   20 1   
     5    2    3 1   
     6    2    6 1   
     7    2   21 1   
     8    3    4 1   
     9    3   22 1   
    10    3   23 1   
    11    4    5 1   
    12    4   24 1   
    13    4   25 1   
    14    5    6 1   
    15    5   14 1   
    16    5   26 1   
    17    6    7 1   
    18    6   12 1   
    19    7    8 1   
    20    7   27 1   
    21    7   28 1   
    22    8    9 1   
    23    8   10 1   
    24    8   11 1   
    25    9   29 1   
    26    9   30 1   
    27    9   31 1   
    28   10   32 1   
    29   10   33 1   
    30   10   34 1   
    31   11   12 1   
    32   11   35 1   
    33   11   36 1   
    34   12   13 1   
    35   12   37 1   
    36   13   14 2   
    37   13   38 1   
    38   14   15 1   
    39   15   16 1   
    40   15   17 1   
@<TRIPOS>SUBSTRUCTURE
     1 1PL         1 TEMP              0 ****  ****    0 ROOT
