@<TRIPOS>MOLECULE
1PM
   60    56     1     0     0
SMALL
bcc


@<TRIPOS>ATOM
      1 N3          4.4770   -3.3380   -2.0650 n3        1 1PM     -0.130000
      2 C4          4.7750   -2.5600   -3.1170 c1        1 1PM     -0.128000
      3 C5          5.3870   -3.3380   -4.0520 c1        1 1PM     -0.175000
      4 NFE         5.4610   -4.5980   -3.5640 n2        1 1PM     -0.140000
      5 C2          4.9050   -4.6070   -2.3450 c1        1 1PM     -0.048000
      6 C11         3.8960   -2.9340   -0.9180 c1        1 1PM      0.192000
      7 N12         2.5380   -2.9340   -0.8080 n1        1 1PM     -0.257000
      8 C13         1.9560   -2.5380    0.3400 c1        1 1PM      0.179000
      9 C14         2.7300   -2.1320    1.4020 c1        1 1PM     -0.145500
     10 C15         4.0900   -2.1320    1.2920 c1        1 1PM     -0.145500
     11 N16         4.6750   -2.5290    0.1430 n1        1 1PM     -0.217000
     12 N21         0.4910   -2.5000    0.4460 n3        1 1PM     -0.253000
     13 C22         0.0300   -3.7220    1.0200 c3        1 1PM     -0.042000
     14 C23        -1.4820   -3.6990    1.3170 c3        1 1PM     -0.050000
     15 N24        -1.8650   -2.5590    2.0740 n         1 1PM     -0.260000
     16 C25        -1.4030   -1.3360    1.4970 c3        1 1PM     -0.063000
     17 C26         0.1060   -1.3600    1.2000 c3        1 1PM     -0.005000
     18 C27        -3.0760   -2.5770    2.8280 c2        1 1PM      0.377000
     19 O28        -3.3650   -1.6490    3.5110 o         1 1PM     -0.415000
     20 O29        -3.8840   -3.7140    2.8200 os        1 1PM     -0.265000
     21 C30        -5.2570   -3.4450    3.0310 c3        1 1PM     -0.055000
     22 C31         0.4600   -0.1230    0.4190 c3        1 1PM     -0.196000
     23 C32        -0.1870    1.1750    1.1410 c2        1 1PM      0.294000
     24 O33        -0.4660    1.1330    2.3510 o         1 1PM     -0.389000
     25 N34        -0.2670    2.4210    0.4320 n         1 1PM     -0.366000
     26 C36        -1.1620    3.4230    0.8740 c3        1 1PM      0.013000
     27 C41        -1.1860    4.6050   -0.1680 c2        1 1PM     -0.118000
     28 C42        -0.3750    5.7260    0.0310 c2        1 1PM     -0.113000
     29 C43        -0.4310    6.7850   -0.8480 c1        1 1PM     -0.115000
     30 C44        -1.2960    6.7420   -1.9380 c1        1 1PM      0.010000
     31 C45        -2.1030    5.6320   -2.1420 c1        1 1PM      0.010000
     32 C46        -2.0460    4.5590   -1.2500 c1        1 1PM     -0.102000
     33 O47        -1.4490    7.6290   -3.0840 os        1 1PM     -0.217500
     34 C48        -2.4790    7.1190   -3.8900 c3        1 1PM      0.099000
     35 O49        -2.8290    5.8320   -3.3800 os        1 1PM     -0.217500
     36 H4          4.5830   -1.5860   -3.2000 DU        1 1PM      0.198333
     37 H5          5.6980   -3.0560   -4.8740 DU        1 1PM      0.198333
     38 H2          4.8220   -5.3720   -1.7690 DU        1 1PM      0.198333
     39 H14         2.2690   -1.8180    2.3090 ha        1 1PM      0.179000
     40 H15         4.6260   -1.8510    2.0290 ha        1 1PM      0.179000
     41 H22         0.5530   -3.8980    1.9200 h1        1 1PM      0.106000
     42 H23        -1.7080   -4.4740    1.8000 h1        1 1PM      0.109500
     43 H25        -1.5830   -0.6180    2.1060 h1        1 1PM      0.127500
     44 H301       -5.3950   -2.5190    3.0410 h1        1 1PM      0.096000
     45 H302       -5.5470   -3.8410    3.9180 h1        1 1PM      0.096000
     46 H303       -5.7840   -3.8450    2.3070 h1        1 1PM      0.096000
     47 H311        1.4010   -0.0280    0.3880 hc        1 1PM      0.120000
     48 H312        0.1020   -0.2040   -0.5110 hc        1 1PM      0.120000
     49 H35         0.3300    2.5930   -0.3360 hn        1 1PM      0.250000
     50 H361       -0.8540    3.7780    1.7870 h1        1 1PM      0.109000
     51 H362       -2.0490    3.0490    0.9560 h1        1 1PM      0.109000
     52 H42         0.2390    5.7410    0.7470 ha        1 1PM      0.160000
     53 H43         0.1470    7.5810   -0.7040 ha        1 1PM      0.157000
     54 H46        -2.6380    3.7630   -1.3840 ha        1 1PM      0.155000
     55 H481       -3.3010    7.7440   -3.8300 h2        1 1PM      0.111500
     56 H482       -2.1530    7.0270   -4.7990 h2        1 1PM      0.111500
     57 H221        0.2060   -4.4020    0.4390 h1        1 1PM      0.106000
     58 H231       -2.0070   -3.6990    0.4140 h1        1 1PM      0.109500
     59 H24        -1.9110   -1.1650    0.6240 h1        1 1PM      0.127500
     60 H251        0.5840   -1.3550    2.0200 h1        1 1PM      0.122000
@<TRIPOS>BOND
     1    1    2 1   
     2    1    5 1   
     3    1    6 1   
     4    2    3 1   
     5    3    4 1   
     6    4    5 1   
     7    6   11 1   
     8    7    8 1   
     9    8   12 1   
    10    9   10 1   
    11    9   39 1   
    12   10   40 1   
    13   12   13 1   
    14   12   17 1   
    15   13   14 1   
    16   13   41 1   
    17   13   57 1   
    18   14   15 1   
    19   14   42 1   
    20   14   58 1   
    21   15   16 1   
    22   15   18 1   
    23   16   17 1   
    24   16   43 1   
    25   16   59 1   
    26   17   22 1   
    27   17   60 1   
    28   18   19 1   
    29   18   20 1   
    30   20   21 1   
    31   21   44 1   
    32   21   45 1   
    33   21   46 1   
    34   22   23 1   
    35   22   47 1   
    36   22   48 1   
    37   23   24 1   
    38   23   25 1   
    39   25   26 1   
    40   25   49 1   
    41   26   27 1   
    42   26   50 1   
    43   26   51 1   
    44   27   28 1   
    45   27   32 1   
    46   28   29 1   
    47   28   52 1   
    48   29   53 1   
    49   30   31 1   
    50   30   33 1   
    51   31   35 1   
    52   32   54 1   
    53   33   34 1   
    54   34   35 1   
    55   34   55 1   
    56   34   56 1   
@<TRIPOS>SUBSTRUCTURE
     1 1PM         1 TEMP              0 ****  ****    0 ROOT
