@<TRIPOS>MOLECULE
1PM
   61    65     1     0     0
SMALL
bcc


@<TRIPOS>ATOM
      1 N3         -1.0030    2.4670   -0.8780 na        1 1PM     -0.281700
      2 C4          0.1510    3.1680   -1.2780 cc        1 1PM     -0.194600
      3 C5          0.4500    4.0440   -0.2270 cd        1 1PM      0.296200
      4 NFE        -0.4680    3.8790    0.8190 nd        1 1PM     -0.632000
      5 C2         -1.3210    2.9200    0.4290 cc        1 1PM      0.352400
      6 C11        -1.6470    1.4240   -1.5890 ca        1 1PM      0.765500
      7 N12        -2.9710    1.1950   -1.2730 nb        1 1PM     -0.852000
      8 C13        -3.6030    0.1770   -1.9420 ca        1 1PM      0.684200
      9 C14        -2.9050   -0.5630   -2.9470 ca        1 1PM     -0.388600
     10 C15        -1.5690   -0.2270   -3.1930 ca        1 1PM      0.480200
     11 N16        -0.9100    0.7470   -2.5380 nb        1 1PM     -0.699000
     12 N21        -4.9750   -0.1050   -1.7090 nh        1 1PM     -0.738300
     13 C22        -5.2560   -1.5310   -1.5200 c3        1 1PM      0.150800
     14 C23        -6.7640   -1.8610   -1.5320 c3        1 1PM      0.071000
     15 N24        -7.5430   -1.0110   -0.6630 n         1 1PM     -0.409800
     16 C25        -7.2610    0.3920   -0.8280 c3        1 1PM      0.075000
     17 C26        -5.7350    0.7490   -0.7910 c3        1 1PM      0.174500
     18 C27        -7.8980   -1.4440    0.6250 c         1 1PM      0.719100
     19 O28        -8.2960   -0.7200    1.5510 o         1 1PM     -0.564000
     20 O29        -7.8510   -2.8050    0.8100 os        1 1PM     -0.430900
     21 C30        -8.4190   -3.2710    2.0430 c3        1 1PM      0.133700
     22 C31        -5.6540    2.2540   -1.1220 c3        1 1PM     -0.140400
     23 C32        -4.7180    2.9490   -0.1780 c         1 1PM      0.574100
     24 O33        -4.5290    2.7170    1.0070 o         1 1PM     -0.419100
     25 N34        -3.9160    4.0990   -0.7420 n4        1 1PM     -0.682800
     26 C36        -4.7640    5.3250   -0.9230 c3        1 1PM      0.183100
     27 C41        -3.9750    6.4450   -1.5060 ca        1 1PM     -0.196300
     28 C42        -4.1090    6.7570   -2.8610 ca        1 1PM     -0.086000
     29 C43        -3.4180    7.8320   -3.4460 ca        1 1PM     -0.118000
     30 C44        -2.5960    8.5610   -2.6090 ca        1 1PM      0.112100
     31 C45        -2.4570    8.2420   -1.2260 ca        1 1PM      0.070100
     32 C46        -3.1340    7.1920   -0.6470 ca        1 1PM     -0.099000
     33 O47        -1.8080    9.6550   -2.9050 os        1 1PM     -0.311900
     34 C48        -1.1540   10.0580   -1.6710 c3        1 1PM      0.319200
     35 O49        -1.5780    9.1340   -0.6350 os        1 1PM     -0.315900
     36 H4          0.6440    2.9860   -2.2350 h4        1 1PM      0.211000
     37 H5          1.2660    4.7650   -0.1530 h4        1 1PM      0.067100
     38 H2         -2.1100    2.4620    1.0420 h5        1 1PM      0.085100
     39 H14        -3.3870   -1.3560   -3.5330 ha        1 1PM      0.178000
     40 H15        -0.9750   -0.7660   -3.9600 h4        1 1PM      0.059100
     41 H22        -4.8060   -1.8910   -0.5490 h1        1 1PM      0.068700
     42 H23        -7.1670   -1.7250   -2.5770 h1        1 1PM      0.092700
     43 H25        -7.7700    0.9790   -0.0110 h1        1 1PM      0.088200
     44 H301       -7.8510   -2.8470    2.9050 h1        1 1PM      0.063700
     45 H302       -8.2960   -4.3810    1.9690 h1        1 1PM      0.063700
     46 H303       -9.4930   -2.9760    2.1020 h1        1 1PM      0.063700
     47 H311       -6.6670    2.7270   -0.9660 hc        1 1PM      0.104200
     48 H312       -5.3720    2.4150   -2.1960 hc        1 1PM      0.104200
     49 H35        -3.5090    3.8260   -1.6420 hn        1 1PM      0.466800
     50 H361       -5.1630    5.6090    0.0940 hx        1 1PM      0.103700
     51 H362       -5.6280    5.0460   -1.5920 hx        1 1PM      0.103700
     52 H42        -4.7830    6.1640   -3.4990 ha        1 1PM      0.142000
     53 H43        -3.5340    8.0810   -4.5100 ha        1 1PM      0.179000
     54 H46        -3.0380    6.9610    0.4220 ha        1 1PM      0.166000
     55 H481       -1.5060   11.0850   -1.4020 h2        1 1PM      0.096200
     56 H482       -0.0490    9.9600   -1.8080 h2        1 1PM      0.096200
     57 H221       -4.7880   -2.1140   -2.3610 h1        1 1PM      0.068700
     58 H231       -6.8860   -2.9420   -1.2390 h1        1 1PM      0.092700
     59 H24        -7.6810    0.6990   -1.8280 h1        1 1PM      0.088200
     60 H251       -5.3710    0.5920    0.2720 h1        1 1PM      0.082700
     61 H342       -3.1390    4.3240   -0.0980 hn        1 1PM      0.466800
@<TRIPOS>BOND
     1    1    2 1   
     2    1    5 1   
     3    1    6 1   
     4    2    3 2   
     5    2   36 1   
     6    3    4 1   
     7    3   37 1   
     8    4    5 2   
     9    5   38 1   
    10    6    7 ar  
    11    6   11 ar  
    12    7    8 ar  
    13    8    9 ar  
    14    8   12 1   
    15    9   10 ar  
    16    9   39 1   
    17   10   11 ar  
    18   10   40 1   
    19   12   13 1   
    20   12   17 1   
    21   13   14 1   
    22   13   41 1   
    23   13   57 1   
    24   14   15 1   
    25   14   42 1   
    26   14   58 1   
    27   15   16 1   
    28   15   18 1   
    29   16   17 1   
    30   16   43 1   
    31   16   59 1   
    32   17   22 1   
    33   17   60 1   
    34   18   19 2   
    35   18   20 1   
    36   20   21 1   
    37   21   44 1   
    38   21   45 1   
    39   21   46 1   
    40   22   23 1   
    41   22   47 1   
    42   22   48 1   
    43   23   24 2   
    44   23   25 1   
    45   25   26 1   
    46   25   49 1   
    47   25   61 1   
    48   26   27 1   
    49   26   50 1   
    50   26   51 1   
    51   27   28 ar  
    52   27   32 ar  
    53   28   29 ar  
    54   28   52 1   
    55   29   30 ar  
    56   29   53 1   
    57   30   31 ar  
    58   30   33 1   
    59   31   32 ar  
    60   31   35 1   
    61   32   54 1   
    62   33   34 1   
    63   34   35 1   
    64   34   55 1   
    65   34   56 1   
@<TRIPOS>SUBSTRUCTURE
     1 1PM         1 TEMP              0 ****  ****    0 ROOT
