@<TRIPOS>MOLECULE
1PM
   61    65     1     0     0
SMALL
bcc


@<TRIPOS>ATOM
      1 N3         -1.0110    2.4770   -0.7640 na        1 1PM     -0.281700
      2 C4          0.1540    3.1790   -1.1290 cc        1 1PM     -0.194600
      3 C5          0.4100    4.0670   -0.0750 cd        1 1PM      0.296200
      4 NFE        -0.5450    3.9060    0.9380 nd        1 1PM     -0.632000
      5 C2         -1.3780    2.9410    0.5260 cc        1 1PM      0.352400
      6 C11        -1.6230    1.4240   -1.4890 ca        1 1PM      0.765500
      7 N12        -2.9580    1.1920   -1.2190 nb        1 1PM     -0.852000
      8 C13        -3.5600    0.1650   -1.9020 ca        1 1PM      0.684200
      9 C14        -2.8220   -0.5810   -2.8730 ca        1 1PM     -0.388600
     10 C15        -1.4790   -0.2410   -3.0730 ca        1 1PM      0.480200
     11 N16        -0.8500    0.7410   -2.4030 nb        1 1PM     -0.699000
     12 N21        -4.9380   -0.1210   -1.7160 nh        1 1PM     -0.738300
     13 C22        -5.2200   -1.5470   -1.5240 c3        1 1PM      0.150800
     14 C23        -6.7250   -1.8840   -1.5890 c3        1 1PM      0.071000
     15 N24        -7.5390   -1.0300   -0.7570 n         1 1PM     -0.409800
     16 C25        -7.2570    0.3740   -0.9250 c3        1 1PM      0.075000
     17 C26        -5.7360    0.7370   -0.8350 c3        1 1PM      0.174500
     18 C27        -7.9400   -1.4520    0.5210 c         1 1PM      0.719100
     19 O28        -8.3750   -0.7210    1.4240 o         1 1PM     -0.564000
     20 O29        -7.8940   -2.8100    0.7210 os        1 1PM     -0.430900
     21 C30        -8.5050   -3.2680    1.9360 c3        1 1PM      0.133700
     22 C31        -5.6480    2.2400   -1.1770 c3        1 1PM     -0.140400
     23 C32        -4.7500    2.9470   -0.2050 c         1 1PM      0.574100
     24 O33        -4.6040    2.7270    0.9880 o         1 1PM     -0.419100
     25 N34        -3.9330    4.0960   -0.7500 n4        1 1PM     -0.682800
     26 C36        -4.7790    5.3170   -0.9740 c3        1 1PM      0.183100
     27 C41        -3.9740    6.4350   -1.5370 ca        1 1PM     -0.196300
     28 C42        -4.0570    6.7340   -2.8980 ca        1 1PM     -0.086000
     29 C43        -3.3500    7.8080   -3.4660 ca        1 1PM     -0.118000
     30 C44        -2.5640    8.5490   -2.6050 ca        1 1PM      0.112100
     31 C45        -2.4770    8.2420   -1.2140 ca        1 1PM      0.070100
     32 C46        -3.1710    7.1940   -0.6530 ca        1 1PM     -0.099000
     33 O47        -1.7710    9.6440   -2.8800 os        1 1PM     -0.311900
     34 C48        -1.1670   10.0620   -1.6260 c3        1 1PM      0.319200
     35 O49        -1.6260    9.1450   -0.5990 os        1 1PM     -0.315900
     36 H4          0.6820    2.9910   -2.0650 h4        1 1PM      0.211000
     37 H5          1.2200    4.7920    0.0220 h4        1 1PM      0.067100
     38 H2         -2.1870    2.4840    1.1130 h5        1 1PM      0.085100
     39 H14        -3.2790   -1.3820   -3.4690 ha        1 1PM      0.178000
     40 H15        -0.8550   -0.7850   -3.8120 h4        1 1PM      0.059100
     41 H22        -4.8050   -1.8960   -0.5340 h1        1 1PM      0.068700
     42 H23        -7.0900   -1.7600   -2.6490 h1        1 1PM      0.092700
     43 H25        -7.7990    0.9650   -0.1330 h1        1 1PM      0.088200
     44 H301       -7.9710   -2.8340    2.8150 h1        1 1PM      0.063367
     45 H302       -9.5820   -2.9760    1.9530 h1        1 1PM      0.063367
     46 H303       -8.3760   -4.3770    1.8770 h1        1 1PM      0.063367
     47 H311       -5.3270    2.3920   -2.2410 hc        1 1PM      0.104200
     48 H312       -6.6680    2.7100   -1.0630 hc        1 1PM      0.104200
     49 H35        -3.4920    3.8170   -1.6310 hn        1 1PM      0.466800
     50 H361       -5.6160    5.0270   -1.6730 hx        1 1PM      0.103700
     51 H362       -5.2190    5.6080    0.0250 hx        1 1PM      0.103700
     52 H42        -4.7030    6.1320   -3.5560 ha        1 1PM      0.142000
     53 H43        -3.4250    8.0460   -4.5360 ha        1 1PM      0.179000
     54 H46        -3.1150    6.9730    0.4220 ha        1 1PM      0.166000
     55 H481       -0.0570    9.9670   -1.7190 h2        1 1PM      0.096200
     56 H482       -1.5340   11.0880   -1.3800 h2        1 1PM      0.096200
     57 H221       -4.7180   -2.1360   -2.3410 h1        1 1PM      0.068700
     58 H231       -6.8530   -2.9630   -1.2900 h1        1 1PM      0.092700
     59 H24        -7.6420    0.6690   -1.9430 h1        1 1PM      0.088200
     60 H251       -5.4100    0.5920    0.2420 h1        1 1PM      0.082700
     61 H342       -3.1820    4.3310   -0.0790 hn        1 1PM      0.466800
@<TRIPOS>BOND
     1    1    2 1   
     2    1    5 1   
     3    1    6 1   
     4    2    3 2   
     5    2   36 1   
     6    3    4 1   
     7    3   37 1   
     8    4    5 2   
     9    5   38 1   
    10    6    7 ar  
    11    6   11 ar  
    12    7    8 ar  
    13    8    9 ar  
    14    8   12 1   
    15    9   10 ar  
    16    9   39 1   
    17   10   11 ar  
    18   10   40 1   
    19   12   13 1   
    20   12   17 1   
    21   13   14 1   
    22   13   41 1   
    23   13   57 1   
    24   14   15 1   
    25   14   42 1   
    26   14   58 1   
    27   15   16 1   
    28   15   18 1   
    29   16   17 1   
    30   16   43 1   
    31   16   59 1   
    32   17   22 1   
    33   17   60 1   
    34   18   19 2   
    35   18   20 1   
    36   20   21 1   
    37   21   44 1   
    38   21   45 1   
    39   21   46 1   
    40   22   23 1   
    41   22   47 1   
    42   22   48 1   
    43   23   24 2   
    44   23   25 1   
    45   25   26 1   
    46   25   49 1   
    47   25   61 1   
    48   26   27 1   
    49   26   50 1   
    50   26   51 1   
    51   27   28 ar  
    52   27   32 ar  
    53   28   29 ar  
    54   28   52 1   
    55   29   30 ar  
    56   29   53 1   
    57   30   31 ar  
    58   30   33 1   
    59   31   32 ar  
    60   31   35 1   
    61   32   54 1   
    62   33   34 1   
    63   34   35 1   
    64   34   55 1   
    65   34   56 1   
@<TRIPOS>SUBSTRUCTURE
     1 1PM         1 TEMP              0 ****  ****    0 ROOT
