@<TRIPOS>MOLECULE
1PM
   61    65     1     0     0
SMALL
bcc


@<TRIPOS>ATOM
      1 N3         -1.0100    2.4640   -0.7850 na        1 1PM     -0.281700
      2 C4          0.1560    3.1600   -1.1590 cc        1 1PM     -0.194600
      3 C5          0.4240    4.0480   -0.1090 cd        1 1PM      0.296200
      4 NFE        -0.5250    3.8950    0.9110 nd        1 1PM     -0.632000
      5 C2         -1.3650    2.9320    0.5070 cc        1 1PM      0.352400
      6 C11        -1.6320    1.4120   -1.5020 ca        1 1PM      0.765500
      7 N12        -2.9650    1.1860   -1.2220 nb        1 1PM     -0.852000
      8 C13        -3.5770    0.1610   -1.8980 ca        1 1PM      0.684200
      9 C14        -2.8500   -0.5920   -2.8730 ca        1 1PM     -0.388600
     10 C15        -1.5060   -0.2580   -3.0840 ca        1 1PM      0.480200
     11 N16        -0.8680    0.7230   -2.4200 nb        1 1PM     -0.699000
     12 N21        -4.9550   -0.1190   -1.7020 nh        1 1PM     -0.738300
     13 C22        -5.2420   -1.5430   -1.5040 c3        1 1PM      0.150800
     14 C23        -6.7490   -1.8740   -1.5570 c3        1 1PM      0.071000
     15 N24        -7.5530   -1.0130   -0.7220 n         1 1PM     -0.409800
     16 C25        -7.2660    0.3890   -0.8960 c3        1 1PM      0.075000
     17 C26        -5.7420    0.7460   -0.8180 c3        1 1PM      0.174500
     18 C27        -7.9470   -1.4300    0.5590 c         1 1PM      0.719100
     19 O28        -8.3720   -0.6950    1.4640 o         1 1PM     -0.564000
     20 O29        -7.9060   -2.7880    0.7630 os        1 1PM     -0.430900
     21 C30        -8.5110   -3.2400    1.9840 c3        1 1PM      0.133700
     22 C31        -5.6510    2.2470   -1.1640 c3        1 1PM     -0.140400
     23 C32        -4.7430    2.9530   -0.2000 c         1 1PM      0.574100
     24 O33        -4.5890    2.7350    0.9920 o         1 1PM     -0.419100
     25 N34        -3.9250    4.0970   -0.7540 ny        1 1PM     -0.682800
     26 C36        -4.7660    5.3200   -0.9760 c3        1 1PM      0.183100
     27 C41        -3.9600    6.4330   -1.5480 ca        1 1PM     -0.196300
     28 C42        -4.0540    6.7290   -2.9090 ca        1 1PM     -0.086000
     29 C43        -3.3460    7.7970   -3.4870 ca        1 1PM     -0.118000
     30 C44        -2.5490    8.5360   -2.6350 ca        1 1PM      0.112100
     31 C45        -2.4510    8.2330   -1.2440 ca        1 1PM      0.070100
     32 C46        -3.1460    7.1910   -0.6740 ca        1 1PM     -0.099000
     33 O47        -1.7530    9.6270   -2.9210 os        1 1PM     -0.311900
     34 C48        -1.1350   10.0450   -1.6730 c3        1 1PM      0.319200
     35 O49        -1.5900    9.1330   -0.6390 os        1 1PM     -0.315900
     36 H4          0.6770    2.9670   -2.0980 h4        1 1PM      0.211000
     37 H5          1.2380    4.7700   -0.0200 h4        1 1PM      0.067100
     38 H2         -2.1720    2.4810    1.1010 h5        1 1PM      0.085100
     39 H14        -3.3140   -1.3920   -3.4630 ha        1 1PM      0.178000
     40 H15        -0.8900   -0.8060   -3.8250 h4        1 1PM      0.059100
     41 H22        -4.8220   -1.8910   -0.5160 h1        1 1PM      0.068700
     42 H23        -6.8790   -2.9510   -1.2550 h1        1 1PM      0.092700
     43 H25        -7.8000    0.9850   -0.1010 h1        1 1PM      0.088200
     44 H301       -8.3870   -4.3500    1.9260 h1        1 1PM      0.063367
     45 H302       -9.5860   -2.9430    2.0070 h1        1 1PM      0.063367
     46 H303       -7.9680   -2.8060    2.8570 h1        1 1PM      0.063367
     47 H311       -5.3370    2.3950   -2.2310 hc        1 1PM      0.104200
     48 H312       -6.6680    2.7220   -1.0440 hc        1 1PM      0.104200
     49 H35        -3.1670    4.3290   -0.0900 hn        1 1PM      0.466800
     50 H361       -5.6110    5.0330   -1.6660 hx        1 1PM      0.103700
     51 H362       -5.1960    5.6170    0.0260 hx        1 1PM      0.103700
     52 H42        -4.7090    6.1280   -3.5600 ha        1 1PM      0.142000
     53 H43        -3.4300    8.0330   -4.5570 ha        1 1PM      0.179000
     54 H46        -3.0810    6.9720    0.4010 ha        1 1PM      0.166000
     55 H481       -0.0270    9.9450   -1.7750 h2        1 1PM      0.096200
     56 H482       -1.4950   11.0740   -1.4260 h2        1 1PM      0.096200
     57 H221       -4.7490   -2.1360   -2.3230 h1        1 1PM      0.068700
     58 H231       -7.1210   -1.7500   -2.6150 h1        1 1PM      0.092700
     59 H24        -7.6570    0.6830   -1.9120 h1        1 1PM      0.088200
     60 H251       -5.4100    0.6010    0.2580 h1        1 1PM      0.082700
     61 H342       -3.4910    3.8120   -1.6390 hn        1 1PM      0.466800
@<TRIPOS>BOND
     1    1    2 1   
     2    1    5 1   
     3    1    6 1   
     4    2    3 2   
     5    2   36 1   
     6    3    4 1   
     7    3   37 1   
     8    4    5 2   
     9    5   38 1   
    10    6    7 ar  
    11    6   11 ar  
    12    7    8 ar  
    13    8    9 ar  
    14    8   12 1   
    15    9   10 ar  
    16    9   39 1   
    17   10   11 ar  
    18   10   40 1   
    19   12   13 1   
    20   12   17 1   
    21   13   14 1   
    22   13   41 1   
    23   13   57 1   
    24   14   15 1   
    25   14   42 1   
    26   14   58 1   
    27   15   16 1   
    28   15   18 1   
    29   16   17 1   
    30   16   43 1   
    31   16   59 1   
    32   17   22 1   
    33   17   60 1   
    34   18   19 2   
    35   18   20 1   
    36   20   21 1   
    37   21   44 1   
    38   21   45 1   
    39   21   46 1   
    40   22   23 1   
    41   22   47 1   
    42   22   48 1   
    43   23   24 2   
    44   23   25 1   
    45   25   26 1   
    46   25   49 1   
    47   25   61 1   
    48   26   27 1   
    49   26   50 1   
    50   26   51 1   
    51   27   28 ar  
    52   27   32 ar  
    53   28   29 ar  
    54   28   52 1   
    55   29   30 ar  
    56   29   53 1   
    57   30   31 ar  
    58   30   33 1   
    59   31   32 ar  
    60   31   35 1   
    61   32   54 1   
    62   33   34 1   
    63   34   35 1   
    64   34   55 1   
    65   34   56 1   
@<TRIPOS>SUBSTRUCTURE
     1 1PM         1 TEMP              0 ****  ****    0 ROOT
