@<TRIPOS>MOLECULE
1PM
   60    64     1     0     0
SMALL
bcc


@<TRIPOS>ATOM
      1 N3         -2.0150   -3.7660    0.9240 na        1 1PM     -0.262700
      2 C4         -2.4420   -4.9810    1.5010 cc        1 1PM     -0.221600
      3 C5         -1.5650   -5.2260    2.5610 cd        1 1PM      0.293200
      4 NFE        -0.6060   -4.2040    2.6490 nd        1 1PM     -0.671000
      5 C2         -0.8830   -3.3390    1.6660 cc        1 1PM      0.452400
      6 C11        -2.6220   -3.1010   -0.1640 ca        1 1PM      0.780500
      7 N12        -2.3320   -1.7610   -0.3260 nb        1 1PM     -0.750000
      8 C13        -2.9150   -1.1300   -1.3880 ca        1 1PM      0.654200
      9 C14        -3.7910   -1.8250   -2.2710 ca        1 1PM     -0.392600
     10 C15        -4.0270   -3.1800   -1.9970 ca        1 1PM      0.459200
     11 N16        -3.4740   -3.8420   -0.9700 nb        1 1PM     -0.720000
     12 N21        -2.6570    0.2550   -1.6660 nh        1 1PM     -0.727300
     13 C22        -3.8390    1.0760   -1.4030 c3        1 1PM      0.144800
     14 C23        -3.6540    2.5470   -1.8320 c3        1 1PM      0.071000
     15 N24        -2.4260    3.1410   -1.3480 n         1 1PM     -0.401800
     16 C25        -1.2610    2.3080   -1.5700 c3        1 1PM      0.066000
     17 C26        -1.4270    0.8300   -1.1000 c3        1 1PM      0.169500
     18 C27        -2.4350    3.9130   -0.1800 c         1 1PM      0.717100
     19 O28        -1.4460    4.2580    0.4880 o         1 1PM     -0.579000
     20 O29        -3.6720    4.4000    0.1900 os        1 1PM     -0.438900
     21 C30        -3.6560    5.3430    1.2660 c3        1 1PM      0.136700
     22 C31        -0.1580    0.0760   -1.5260 c3        1 1PM     -0.149400
     23 C32         0.7060   -0.3230   -0.3420 c         1 1PM      0.660100
     24 O33         1.0090   -1.5180   -0.1510 o         1 1PM     -0.612100
     25 N34         1.1340    0.6710    0.5170 n         1 1PM     -0.562900
     26 C36         2.0530    0.4110    1.5920 c3        1 1PM      0.133300
     27 C41         3.5010    0.6280    1.2420 ca        1 1PM     -0.125300
     28 C42         4.1800    1.7430    1.7290 ca        1 1PM     -0.120000
     29 C43         5.5400    1.9690    1.4490 ca        1 1PM     -0.119000
     30 C44         6.1650    1.0260    0.6590 ca        1 1PM      0.061100
     31 C45         5.4740   -0.1110    0.1590 ca        1 1PM      0.052100
     32 C46         4.1430   -0.3370    0.4340 ca        1 1PM     -0.095000
     33 O47         7.4850    0.9890    0.2250 os        1 1PM     -0.334900
     34 C48         7.6310   -0.2120   -0.5690 c3        1 1PM      0.320200
     35 O49         6.3500   -0.8810   -0.6010 os        1 1PM     -0.330900
     36 H4         -3.2930   -5.5410    1.1180 h4        1 1PM      0.194000
     37 H5         -1.5590   -6.0630    3.2570 h4        1 1PM      0.045100
     38 H2         -0.3150   -2.4340    1.4010 h5        1 1PM      0.097100
     39 H14        -4.2520   -1.3320   -3.1340 ha        1 1PM      0.164000
     40 H15        -4.6970   -3.7810   -2.6410 h4        1 1PM      0.035100
     41 H22        -4.6960    0.6500   -1.9960 h1        1 1PM      0.056700
     42 H23        -3.6160    2.6030   -2.9580 h1        1 1PM      0.080700
     43 H25        -1.0640    2.3250   -2.6800 h1        1 1PM      0.079700
     44 H301       -4.7350    5.6110    1.3840 h1        1 1PM      0.055367
     45 H302       -3.2460    4.8630    2.1870 h1        1 1PM      0.055367
     46 H303       -3.0390    6.2310    0.9870 h1        1 1PM      0.055367
     47 H311       -0.4020   -0.8660   -2.0870 hc        1 1PM      0.083700
     48 H312        0.4590    0.7100   -2.2190 hc        1 1PM      0.083700
     49 H35         1.0090    1.6190    0.2490 hn        1 1PM      0.310500
     50 H361        1.7710    1.0870    2.4510 h1        1 1PM      0.073700
     51 H362        1.9200   -0.6610    1.9230 h1        1 1PM      0.073700
     52 H42         3.6480    2.4750    2.3570 ha        1 1PM      0.138000
     53 H43         6.0700    2.8460    1.8390 ha        1 1PM      0.155000
     54 H46         3.5970   -1.2150    0.0580 ha        1 1PM      0.177000
     55 H481        7.9070    0.0820   -1.6110 h2        1 1PM      0.072200
     56 H482        8.3720   -0.8820   -0.0690 h2        1 1PM      0.072200
     57 H221       -4.1200    1.0500   -0.3100 h1        1 1PM      0.056700
     58 H231       -4.5440    3.1330   -1.4730 h1        1 1PM      0.080700
     59 H24        -0.3750    2.7480   -1.0340 h1        1 1PM      0.079700
     60 H251       -1.4990    0.8350    0.0310 h1        1 1PM      0.066700
@<TRIPOS>BOND
     1    1    2 1   
     2    1    5 1   
     3    1    6 1   
     4    2    3 2   
     5    2   36 1   
     6    3    4 1   
     7    3   37 1   
     8    4    5 2   
     9    5   38 1   
    10    6    7 ar  
    11    6   11 ar  
    12    7    8 ar  
    13    8    9 ar  
    14    8   12 1   
    15    9   10 ar  
    16    9   39 1   
    17   10   11 ar  
    18   10   40 1   
    19   12   13 1   
    20   12   17 1   
    21   13   14 1   
    22   13   41 1   
    23   13   57 1   
    24   14   15 1   
    25   14   42 1   
    26   14   58 1   
    27   15   16 1   
    28   15   18 1   
    29   16   17 1   
    30   16   43 1   
    31   16   59 1   
    32   17   22 1   
    33   17   60 1   
    34   18   19 2   
    35   18   20 1   
    36   20   21 1   
    37   21   44 1   
    38   21   45 1   
    39   21   46 1   
    40   22   23 1   
    41   22   47 1   
    42   22   48 1   
    43   23   24 2   
    44   23   25 1   
    45   25   26 1   
    46   25   49 1   
    47   26   27 1   
    48   26   50 1   
    49   26   51 1   
    50   27   28 ar  
    51   27   32 ar  
    52   28   29 ar  
    53   28   52 1   
    54   29   30 ar  
    55   29   53 1   
    56   30   31 ar  
    57   30   33 1   
    58   31   32 ar  
    59   31   35 1   
    60   32   54 1   
    61   33   34 1   
    62   34   35 1   
    63   34   55 1   
    64   34   56 1   
@<TRIPOS>SUBSTRUCTURE
     1 1PM         1 TEMP              0 ****  ****    0 ROOT
