@<TRIPOS>MOLECULE
1PN
   37    37     1     0     0
SMALL
bcc


@<TRIPOS>ATOM
      1 S1          0.3850   -0.3800   -0.3630 ss        1 1PN     -0.202700
      2 C2          2.0370   -0.2010   -0.1110 c2        1 1PN     -0.067400
      3 C3          2.3730   -0.1020    1.2050 ce        1 1PN     -0.031200
      4 N4          1.3010   -0.0980    2.1440 nh        1 1PN     -0.668000
      5 C5          0.0230   -0.2570    1.4570 c3        1 1PN      0.280600
      6 C6         -0.8650   -1.3730    2.0090 c3        1 1PN     -0.204700
      7 C7         -0.2600   -2.7270    1.7180 c         1 1PN      0.571900
      8 O8          0.7270   -3.1340    2.3290 o         1 1PN     -0.519100
      9 C9          3.7460    0.0150    1.7180 c         1 1PN      0.667300
     10 O10         4.1420   -0.1190    2.8780 o         1 1PN     -0.531000
     11 O11         4.6610    0.2960    0.7390 os        1 1PN     -0.435900
     12 C12         6.0310    0.4120    1.1760 c3        1 1PN      0.168600
     13 C13         6.8330    0.7480   -0.0300 c2        1 1PN     -0.172200
     14 C14         8.1600    0.8360   -0.0040 c2        1 1PN     -0.215000
     15 C15        -2.3290   -1.3120    1.5660 c3        1 1PN      0.157100
     16 C16        -2.9830    0.0240    1.8590 c3        1 1PN     -0.125100
     17 O17        -2.3750   -1.5790    0.1530 os        1 1PN     -0.447900
     18 C18        -3.5460   -2.0650   -0.3680 c         1 1PN      0.638100
     19 O19        -4.4890   -2.2730    0.3960 o         1 1PN     -0.539000
     20 C20        -3.4740   -2.2740   -1.8410 c3        1 1PN     -0.151100
     21 H2          2.7570   -0.1700   -0.9320 h4        1 1PN      0.193000
     22 HN4         1.4520   -0.7610    2.8860 hn        1 1PN      0.415800
     23 H5         -0.5280    0.7200    1.5680 h2        1 1PN      0.099700
     24 H6         -0.8970   -1.2450    3.1360 hc        1 1PN      0.098700
     25 H7         -0.7640   -3.3210    0.9260 h4        1 1PN      0.025200
     26 H12         6.0910    1.2190    1.9550 h1        1 1PN      0.064700
     27 H12A        6.3430   -0.5640    1.6340 h1        1 1PN      0.064700
     28 H13         6.2510    0.9240   -0.9500 ha        1 1PN      0.141000
     29 H14         8.7520    0.6620    0.9040 ha        1 1PN      0.117000
     30 H14A        8.7440    1.0920   -0.8970 ha        1 1PN      0.117000
     31 H15        -2.8910   -2.1320    2.1040 h1        1 1PN      0.075700
     32 H16        -2.7500    0.3440    2.9010 hc        1 1PN      0.057367
     33 H16A       -4.0900   -0.0790    1.7460 hc        1 1PN      0.057367
     34 H16B       -2.6300    0.8070    1.1460 hc        1 1PN      0.057367
     35 H20        -3.7800   -3.3230   -2.0730 hc        1 1PN      0.080367
     36 H20A       -4.1830   -1.5670   -2.3380 hc        1 1PN      0.080367
     37 H20B       -2.4400   -2.0910   -2.2220 hc        1 1PN      0.080367
@<TRIPOS>BOND
     1    1    2 1   
     2    1    5 1   
     3    2    3 2   
     4    2   21 1   
     5    3    4 1   
     6    3    9 1   
     7    4    5 1   
     8    4   22 1   
     9    5    6 1   
    10    5   23 1   
    11    6    7 1   
    12    6   15 1   
    13    6   24 1   
    14    7    8 2   
    15    7   25 1   
    16    9   10 2   
    17    9   11 1   
    18   11   12 1   
    19   12   13 1   
    20   12   26 1   
    21   12   27 1   
    22   13   14 2   
    23   13   28 1   
    24   14   29 1   
    25   14   30 1   
    26   15   16 1   
    27   15   17 1   
    28   15   31 1   
    29   16   32 1   
    30   16   33 1   
    31   16   34 1   
    32   17   18 1   
    33   18   19 2   
    34   18   20 1   
    35   20   35 1   
    36   20   36 1   
    37   20   37 1   
@<TRIPOS>SUBSTRUCTURE
     1 1PN         1 TEMP              0 ****  ****    0 ROOT
