@<TRIPOS>MOLECULE
1PN
   37    37     1     0     0
SMALL
bcc


@<TRIPOS>ATOM
      1 S1          0.3810   -0.4090   -0.3680 ss        1 1PN     -0.202700
      2 C2          2.0330   -0.2140   -0.1220 c2        1 1PN     -0.067400
      3 C3          2.3700   -0.0850    1.1900 ce        1 1PN     -0.031200
      4 N4          1.2980   -0.0660    2.1310 nh        1 1PN     -0.668000
      5 C5          0.0210   -0.2480    1.4490 c3        1 1PN      0.280600
      6 C6         -0.8600   -1.3580    2.0260 c3        1 1PN     -0.204700
      7 C7         -0.2460   -2.7130    1.7640 c         1 1PN      0.571900
      8 O8          0.7440   -3.1010    2.3820 o         1 1PN     -0.519100
      9 C9          3.7420    0.0520    1.6990 c         1 1PN      0.667300
     10 O10         4.1400   -0.0540    2.8610 o         1 1PN     -0.531000
     11 O11         4.6550    0.3170    0.7130 os        1 1PN     -0.435900
     12 C12         6.0240    0.4510    1.1460 c3        1 1PN      0.168600
     13 C13         6.8230    0.7650   -0.0680 c2        1 1PN     -0.172200
     14 C14         8.1500    0.8580   -0.0460 c2        1 1PN     -0.215000
     15 C15        -2.3240   -1.3150    1.5840 c3        1 1PN      0.157100
     16 C16        -2.9860    0.0220    1.8480 c3        1 1PN     -0.125100
     17 O17        -2.3700   -1.6140    0.1770 os        1 1PN     -0.447900
     18 C18        -3.5390   -2.1190   -0.3320 c         1 1PN      0.638100
     19 O19        -4.4800   -2.3160    0.4380 o         1 1PN     -0.539000
     20 C20        -3.4660   -2.3590   -1.8000 c3        1 1PN     -0.151100
     21 H2          2.7520   -0.1970   -0.9450 h4        1 1PN      0.193000
     22 HN4         1.4540   -0.7120    2.8860 hn        1 1PN      0.415800
     23 H5         -0.5360    0.7270    1.5400 h2        1 1PN      0.099700
     24 H6         -0.8910   -1.2060    3.1500 hc        1 1PN      0.098700
     25 H7         -0.7470   -3.3280    0.9860 h4        1 1PN      0.025200
     26 H12         6.0800    1.2740    1.9070 h1        1 1PN      0.064700
     27 H12A        6.3420   -0.5140    1.6250 h1        1 1PN      0.064700
     28 H13         6.2390    0.9200   -0.9900 ha        1 1PN      0.141000
     29 H14         8.7440    0.7030    0.8640 ha        1 1PN      0.117000
     30 H14A        8.7310    1.0980   -0.9460 ha        1 1PN      0.117000
     31 H15        -2.8800   -2.1270    2.1400 h1        1 1PN      0.075700
     32 H16        -4.0940   -0.0900    1.7400 hc        1 1PN      0.057367
     33 H16A       -2.6390    0.7920    1.1180 hc        1 1PN      0.057367
     34 H16B       -2.7540    0.3670    2.8830 hc        1 1PN      0.057367
     35 H20        -4.1870   -1.6730   -2.3110 hc        1 1PN      0.080367
     36 H20A       -3.7590   -3.4170   -2.0080 hc        1 1PN      0.080367
     37 H20B       -2.4360   -2.1700   -2.1880 hc        1 1PN      0.080367
@<TRIPOS>BOND
     1    1    2 1   
     2    1    5 1   
     3    2    3 2   
     4    2   21 1   
     5    3    4 1   
     6    3    9 1   
     7    4    5 1   
     8    4   22 1   
     9    5    6 1   
    10    5   23 1   
    11    6    7 1   
    12    6   15 1   
    13    6   24 1   
    14    7    8 2   
    15    7   25 1   
    16    9   10 2   
    17    9   11 1   
    18   11   12 1   
    19   12   13 1   
    20   12   26 1   
    21   12   27 1   
    22   13   14 2   
    23   13   28 1   
    24   14   29 1   
    25   14   30 1   
    26   15   16 1   
    27   15   17 1   
    28   15   31 1   
    29   16   32 1   
    30   16   33 1   
    31   16   34 1   
    32   17   18 1   
    33   18   19 2   
    34   18   20 1   
    35   20   35 1   
    36   20   36 1   
    37   20   37 1   
@<TRIPOS>SUBSTRUCTURE
     1 1PN         1 TEMP              0 ****  ****    0 ROOT
