@<TRIPOS>MOLECULE
1PN
   37    37     1     0     0
SMALL
bcc


@<TRIPOS>ATOM
      1 S1          0.3890   -0.4040   -0.3700 ss        1 1PN     -0.202700
      2 C2          2.0410   -0.2190   -0.1180 c2        1 1PN     -0.067400
      3 C3          2.3730   -0.0920    1.1960 ce        1 1PN     -0.031200
      4 N4          1.2980   -0.0670    2.1320 nu        1 1PN     -0.668000
      5 C5          0.0220   -0.2420    1.4450 c3        1 1PN      0.280600
      6 C6         -0.8660   -1.3470    2.0190 c3        1 1PN     -0.204700
      7 C7         -0.2600   -2.7060    1.7590 c         1 1PN      0.571900
      8 O8          0.7260   -3.0990    2.3810 o         1 1PN     -0.519100
      9 C9          3.7450    0.0370    1.7100 c         1 1PN      0.667300
     10 O10         4.1380   -0.0720    2.8740 o         1 1PN     -0.531000
     11 O11         4.6620    0.2970    0.7280 os        1 1PN     -0.435900
     12 C12         6.0310    0.4230    1.1660 c3        1 1PN      0.168600
     13 C13         6.8360    0.7330   -0.0440 c2        1 1PN     -0.172200
     14 C14         8.1640    0.8200   -0.0170 c2        1 1PN     -0.215000
     15 C15        -2.3290   -1.2960    1.5710 c3        1 1PN      0.157100
     16 C16        -2.9850    0.0450    1.8330 c3        1 1PN     -0.125100
     17 O17        -2.3710   -1.5940    0.1630 os        1 1PN     -0.447900
     18 C18        -3.5410   -2.0920   -0.3500 c         1 1PN      0.638100
     19 O19        -4.4860   -2.2830    0.4160 o         1 1PN     -0.539000
     20 C20        -3.4640   -2.3320   -1.8170 c3        1 1PN     -0.151100
     21 H2          2.7630   -0.2060   -0.9380 h4        1 1PN      0.193000
     22 HN4         1.4480   -0.7150    2.8890 hn        1 1PN      0.415800
     23 H5         -0.5290    0.7370    1.5340 h2        1 1PN      0.099700
     24 H6         -0.9020   -1.1940    3.1430 hc        1 1PN      0.098700
     25 H7         -0.7610   -3.3170    0.9790 h4        1 1PN      0.025200
     26 H12         6.0880    1.2460    1.9280 h1        1 1PN      0.064700
     27 H12A        6.3420   -0.5430    1.6460 h1        1 1PN      0.064700
     28 H13         6.2560    0.8910   -0.9690 ha        1 1PN      0.141000
     29 H14         8.7540    0.6630    0.8960 ha        1 1PN      0.117000
     30 H14A        8.7500    1.0560   -0.9140 ha        1 1PN      0.117000
     31 H15        -2.8920   -2.1040    2.1240 h1        1 1PN      0.075700
     32 H16        -2.7550    0.3890    2.8690 hc        1 1PN      0.057367
     33 H16A       -2.6300    0.8140    1.1050 hc        1 1PN      0.057367
     34 H16B       -4.0920   -0.0600    1.7200 hc        1 1PN      0.057367
     35 H20        -4.1770   -1.6400   -2.3310 hc        1 1PN      0.080367
     36 H20A       -2.4310   -2.1510   -2.2010 hc        1 1PN      0.080367
     37 H20B       -3.7640   -3.3880   -2.0270 hc        1 1PN      0.080367
@<TRIPOS>BOND
     1    1    2 1   
     2    1    5 1   
     3    2    3 2   
     4    2   21 1   
     5    3    4 1   
     6    3    9 1   
     7    4    5 1   
     8    4   22 1   
     9    5    6 1   
    10    5   23 1   
    11    6    7 1   
    12    6   15 1   
    13    6   24 1   
    14    7    8 2   
    15    7   25 1   
    16    9   10 2   
    17    9   11 1   
    18   11   12 1   
    19   12   13 1   
    20   12   26 1   
    21   12   27 1   
    22   13   14 2   
    23   13   28 1   
    24   14   29 1   
    25   14   30 1   
    26   15   16 1   
    27   15   17 1   
    28   15   31 1   
    29   16   32 1   
    30   16   33 1   
    31   16   34 1   
    32   17   18 1   
    33   18   19 2   
    34   18   20 1   
    35   20   35 1   
    36   20   36 1   
    37   20   37 1   
@<TRIPOS>SUBSTRUCTURE
     1 1PN         1 TEMP              0 ****  ****    0 ROOT
