@<TRIPOS>MOLECULE
1PN
   37    35     1     0     0
SMALL
bcc


@<TRIPOS>ATOM
      1 S1         -0.8880    0.9320   -1.8600 ss        1 1PN      0.235000
      2 C2          0.3900    1.5770   -1.7810 c2        1 1PN     -0.306000
      3 C3          1.1120    1.2470   -0.5410 c1        1 1PN     -0.095000
      4 N4          0.2270    0.7770    0.5360 n2        1 1PN     -0.254000
      5 C5         -1.1600    0.4160   -0.2320 c3        1 1PN     -0.108000
      6 C6         -1.4110   -0.9450   -0.1850 c3        1 1PN     -0.169000
      7 C7         -1.1800   -1.5640   -1.6040 c2        1 1PN      0.197000
      8 O8         -1.8590   -1.1920   -2.5520 o         1 1PN     -0.280000
      9 C9          2.5710    0.7780   -0.6030 c2        1 1PN      0.367000
     10 O10         2.8230   -0.3940   -0.7640 o         1 1PN     -0.350000
     11 O11         3.6410    1.7390   -0.5220 os        1 1PN     -0.269000
     12 C12         4.9560    1.1670   -0.7110 c3        1 1PN      0.015000
     13 C13         5.9980    2.2480   -0.6030 c2        1 1PN     -0.170000
     14 C14         7.2430    2.0410   -1.1040 c1        1 1PN     -0.212000
     15 C15        -2.9010   -1.1850    0.2530 c3        1 1PN      0.048000
     16 C16        -3.2350   -2.6370    0.1110 c3        1 1PN     -0.242000
     17 O17        -3.0600   -0.8050    1.5610 os        1 1PN     -0.300000
     18 C18        -4.3770   -0.4880    1.9030 c2        1 1PN      0.307000
     19 O19        -5.2060   -0.2780    1.0200 o         1 1PN     -0.344000
     20 C20        -4.8180   -0.5450    3.3640 c3        1 1PN     -0.219000
     21 H2          0.8900    1.7810   -2.6020 h4        1 1PN      0.195000
     22 HN4         0.3160    0.9570    1.4070 hn        1 1PN      0.213000
     23 H5         -1.9110    0.9180    0.1630 h2        1 1PN      0.128000
     24 H6         -0.8000   -1.3740    0.4690 hc        1 1PN      0.138000
     25 H7         -0.4860   -2.2560   -1.7340 h4        1 1PN      0.117000
     26 H12         5.0070    0.7540   -1.5940 h1        1 1PN      0.104000
     27 H12A        5.1180    0.4860   -0.0230 h1        1 1PN      0.104000
     28 H13         5.7760    3.1120   -0.1680 ha        1 1PN      0.142000
     29 H14         7.4630    1.1820   -1.5370 DU        1 1PN      0.115000
     30 H14A        7.9080    2.7280   -1.0370 ha        1 1PN      0.120000
     31 H15        -3.4890   -0.6640   -0.3060 h1        1 1PN      0.128000
     32 H16        -2.4580   -3.1660    0.3160 hc        1 1PN      0.097667
     33 H16A       -3.9620   -2.8690    0.7310 hc        1 1PN      0.097667
     34 H16B       -3.5170   -2.8160   -0.8000 hc        1 1PN      0.097667
     35 H20        -4.3050   -1.2330    3.8330 hc        1 1PN      0.116000
     36 H20A       -5.7570   -0.7580    3.4070 hc        1 1PN      0.116000
     37 H20B       -4.6590    0.3320    3.7900 hc        1 1PN      0.116000
@<TRIPOS>BOND
     1    1    2 1   
     2    1    5 1   
     3    2    3 1   
     4    2   21 1   
     5    3    9 1   
     6    4    5 1   
     7    4   22 1   
     8    5    6 1   
     9    5   23 1   
    10    6    7 1   
    11    6   15 1   
    12    6   24 1   
    13    7    8 1   
    14    7   25 1   
    15    9   10 1   
    16    9   11 1   
    17   11   12 1   
    18   12   13 1   
    19   12   26 1   
    20   12   27 1   
    21   13   14 1   
    22   13   28 1   
    23   14   30 1   
    24   15   16 1   
    25   15   17 1   
    26   15   31 1   
    27   16   32 1   
    28   16   33 1   
    29   16   34 1   
    30   17   18 1   
    31   18   19 1   
    32   18   20 1   
    33   20   35 1   
    34   20   36 1   
    35   20   37 1   
@<TRIPOS>SUBSTRUCTURE
     1 1PN         1 TEMP              0 ****  ****    0 ROOT
