@<TRIPOS>MOLECULE
1PN
   37    37     1     0     0
SMALL
bcc


@<TRIPOS>ATOM
      1 S1          0.4330   -1.2780    0.3960 ss        1 1PN     -0.202700
      2 C2         -1.2240   -1.0640    0.2090 c2        1 1PN     -0.067400
      3 C3         -1.6130    0.2370    0.3100 ce        1 1PN     -0.031200
      4 N4         -0.5980    1.1900    0.6180 nh        1 1PN     -0.668000
      5 C5          0.7030    0.5340    0.7120 c3        1 1PN      0.280600
      6 C6          1.8030    1.1740   -0.1370 c3        1 1PN     -0.204700
      7 C7          1.5290    0.9660   -1.6080 c         1 1PN      0.571900
      8 O8          0.6410    1.5870   -2.1910 o         1 1PN     -0.519100
      9 C9         -2.9910    0.7200    0.1430 c         1 1PN      0.667300
     10 O10        -3.3810    1.8800   -0.0050 o         1 1PN     -0.531000
     11 O11        -3.9170   -0.2890    0.1470 os        1 1PN     -0.435900
     12 C12        -5.2900    0.1190   -0.0260 c3        1 1PN      0.168600
     13 C13        -6.1100   -1.1190    0.0430 c2        1 1PN     -0.172200
     14 C14        -7.4230   -1.1190   -0.1760 c2        1 1PN     -0.215000
     15 C15         3.2280    0.7500    0.2280 c3        1 1PN      0.157100
     16 C16         3.5540    0.9620    1.6930 c3        1 1PN     -0.125100
     17 O17         3.3750   -0.6410   -0.1090 os        1 1PN     -0.447900
     18 C18         4.6420   -1.1110   -0.3470 c         1 1PN      0.638100
     19 O19         5.5840   -0.3200   -0.2870 o         1 1PN     -0.539000
     20 C20         4.6620   -2.5670   -0.6570 c3        1 1PN     -0.151100
     21 H2         -1.9070   -1.8960    0.0240 h4        1 1PN      0.193000
     22 HN4        -0.6170    1.9720   -0.0150 hn        1 1PN      0.415800
     23 H5          1.0150    0.5880    1.7930 h2        1 1PN      0.099700
     24 H6          1.7720    2.2900    0.0640 hc        1 1PN      0.098700
     25 H7          2.1780    0.2230   -2.1200 h4        1 1PN      0.025200
     26 H12        -5.5540    0.8410    0.7930 h1        1 1PN      0.064700
     27 H12A       -5.3850    0.6370   -1.0170 h1        1 1PN      0.064700
     28 H13        -5.5560   -2.0390    0.2920 ha        1 1PN      0.141000
     29 H14        -8.0220   -2.0370   -0.1170 ha        1 1PN      0.117000
     30 H14A       -7.9860   -0.2110   -0.4280 ha        1 1PN      0.117000
     31 H15         3.9440    1.3500   -0.4080 h1        1 1PN      0.075700
     32 H16         3.2240    1.9770    2.0160 hc        1 1PN      0.057367
     33 H16A        3.0540    0.1930    2.3300 hc        1 1PN      0.057367
     34 H16B        4.6590    0.8740    1.8380 hc        1 1PN      0.057367
     35 H20         3.6260   -2.9770   -0.7310 hc        1 1PN      0.080367
     36 H20A        5.1980   -2.7230   -1.6260 hc        1 1PN      0.080367
     37 H20B        5.2150   -3.0990    0.1560 hc        1 1PN      0.080367
@<TRIPOS>BOND
     1    1    2 1   
     2    1    5 1   
     3    2    3 2   
     4    2   21 1   
     5    3    4 1   
     6    3    9 1   
     7    4    5 1   
     8    4   22 1   
     9    5    6 1   
    10    5   23 1   
    11    6    7 1   
    12    6   15 1   
    13    6   24 1   
    14    7    8 2   
    15    7   25 1   
    16    9   10 2   
    17    9   11 1   
    18   11   12 1   
    19   12   13 1   
    20   12   26 1   
    21   12   27 1   
    22   13   14 2   
    23   13   28 1   
    24   14   29 1   
    25   14   30 1   
    26   15   16 1   
    27   15   17 1   
    28   15   31 1   
    29   16   32 1   
    30   16   33 1   
    31   16   34 1   
    32   17   18 1   
    33   18   19 2   
    34   18   20 1   
    35   20   35 1   
    36   20   36 1   
    37   20   37 1   
@<TRIPOS>SUBSTRUCTURE
     1 1PN         1 TEMP              0 ****  ****    0 ROOT
