@<TRIPOS>MOLECULE
1PP
   47    49     1     0     0
SMALL
bcc


@<TRIPOS>ATOM
      1 O27         0.5600   -1.6870   -0.1990 o         1 1PP     -0.590100
      2 C17         0.5600   -0.4410   -0.1240 c         1 1PP      0.767100
      3 N18         1.6960    0.3340   -0.4500 n         1 1PP     -0.461100
      4 C19         2.9770   -0.2300   -0.6030 ca        1 1PP      0.079600
      5 C20         4.1240    0.5090   -0.2060 ca        1 1PP     -0.034600
      6 CL1         3.9470    2.0340    0.5320 cl        1 1PP     -0.080400
      7 C21         5.4050   -0.0120   -0.4260 ca        1 1PP      0.041400
      8 CL2         6.7880    0.8620    0.0300 cl        1 1PP     -0.067400
      9 C22         5.5690   -1.2650   -1.0210 ca        1 1PP     -0.138000
     10 C23         4.4470   -1.9940   -1.4020 ca        1 1PP     -0.099000
     11 C24         3.1650   -1.4920   -1.2050 ca        1 1PP     -0.128000
     12 N16        -0.5880    0.2690    0.3220 n         1 1PP     -0.427100
     13 C11        -1.8380   -0.3580    0.2820 cc        1 1PP      0.013300
     14 C10        -2.1760   -1.7040    0.5110 cd        1 1PP     -0.269300
     15 C9         -3.6160   -1.7670    0.3340 cd        1 1PP      0.332600
     16 C12        -4.4210   -3.0220    0.4720 c3        1 1PP     -0.076300
     17 C15        -4.2130   -3.5830    1.8750 c3        1 1PP     -0.085100
     18 C14        -5.9070   -2.7730    0.2520 c3        1 1PP     -0.085100
     19 C13        -3.9270   -4.0340   -0.5580 c3        1 1PP     -0.085100
     20 N8         -4.1090   -0.5390    0.0260 nc        1 1PP     -0.490800
     21 N7         -3.0630    0.3070   -0.0570 na        1 1PP      0.121300
     22 C5         -3.2220    1.7220   -0.1200 ca        1 1PP      0.010800
     23 C6         -3.9570    2.2910   -1.1800 ca        1 1PP     -0.132000
     24 C4         -2.6530    2.5600    0.8610 ca        1 1PP     -0.132000
     25 C3         -2.7890    3.9420    0.7520 ca        1 1PP     -0.121000
     26 C2         -3.5010    4.5030   -0.3070 ca        1 1PP     -0.128000
     27 C1         -4.0880    3.6750   -1.2630 ca        1 1PP     -0.121000
     28 H18         1.6920    1.2990   -0.1910 hn        1 1PP      0.320500
     29 H22         6.5790   -1.6710   -1.1860 ha        1 1PP      0.154000
     30 H23         4.5720   -2.9830   -1.8700 ha        1 1PP      0.147000
     31 H24         2.2920   -2.0930   -1.5130 ha        1 1PP      0.178000
     32 H16        -0.6030    1.2610    0.1940 hn        1 1PP      0.314500
     33 H10        -1.4990   -2.5210    0.7380 ha        1 1PP      0.192000
     34 H151       -4.5890   -2.8630    2.6400 hc        1 1PP      0.039589
     35 H152       -4.7690   -4.5450    1.9840 hc        1 1PP      0.039589
     36 H153       -3.1280   -3.7710    2.0620 hc        1 1PP      0.039589
     37 H141       -6.0910   -2.3760   -0.7740 hc        1 1PP      0.039589
     38 H142       -6.4680   -3.7320    0.3680 hc        1 1PP      0.039589
     39 H143       -6.2960   -2.0390    0.9960 hc        1 1PP      0.039589
     40 H131       -2.8360   -4.2290   -0.4190 hc        1 1PP      0.039589
     41 H132       -4.4830   -4.9950   -0.4400 hc        1 1PP      0.039589
     42 H133       -4.0930   -3.6480   -1.5910 hc        1 1PP      0.039589
     43 H6         -4.4340    1.6460   -1.9350 ha        1 1PP      0.153000
     44 H4         -2.1260    2.1340    1.7290 ha        1 1PP      0.153000
     45 H3         -2.3410    4.5910    1.5190 ha        1 1PP      0.139500
     46 H2         -3.6070    5.5950   -0.3830 ha        1 1PP      0.139000
     47 H1         -4.6630    4.1140   -2.0930 ha        1 1PP      0.139500
@<TRIPOS>BOND
     1    1    2 2   
     2    2    3 1   
     3    2   12 1   
     4    3    4 1   
     5    3   28 1   
     6    4    5 ar  
     7    4   11 ar  
     8    5    6 1   
     9    5    7 ar  
    10    7    8 1   
    11    7    9 ar  
    12    9   10 ar  
    13    9   29 1   
    14   10   11 ar  
    15   10   30 1   
    16   11   31 1   
    17   12   13 1   
    18   12   32 1   
    19   13   14 2   
    20   13   21 1   
    21   14   15 1   
    22   14   33 1   
    23   15   16 1   
    24   15   20 2   
    25   16   17 1   
    26   16   18 1   
    27   16   19 1   
    28   17   34 1   
    29   17   35 1   
    30   17   36 1   
    31   18   37 1   
    32   18   38 1   
    33   18   39 1   
    34   19   40 1   
    35   19   41 1   
    36   19   42 1   
    37   20   21 1   
    38   21   22 1   
    39   22   23 ar  
    40   22   24 ar  
    41   23   27 ar  
    42   23   43 1   
    43   24   25 ar  
    44   24   44 1   
    45   25   26 ar  
    46   25   45 1   
    47   26   27 ar  
    48   26   46 1   
    49   27   47 1   
@<TRIPOS>SUBSTRUCTURE
     1 1PP         1 TEMP              0 ****  ****    0 ROOT
