@<TRIPOS>MOLECULE
1PP
   47    49     1     0     0
SMALL
bcc


@<TRIPOS>ATOM
      1 O27        -0.2900    0.0540    0.1090 o         1 1PP     -0.590100
      2 C17         0.9440    0.2270    0.0480 c         1 1PP      0.767100
      3 N18         1.7790    0.1070    1.1830 ns        1 1PP     -0.461100
      4 C19         1.2700    0.0680    2.4940 ca        1 1PP      0.079600
      5 C20         2.0080    0.6620    3.5540 ca        1 1PP     -0.034600
      6 Cl1         3.4580    1.4930    3.2270 cl        1 1PP     -0.080400
      7 C21         1.5480    0.5600    4.8730 ca        1 1PP      0.041400
      8 Cl2         2.4230    1.2520    6.1530 cl        1 1PP     -0.067400
      9 C22         0.3560   -0.1100    5.1590 ca        1 1PP     -0.138000
     10 C23        -0.3720   -0.6830    4.1210 ca        1 1PP     -0.099000
     11 C24         0.0710   -0.6060    2.8060 ca        1 1PP     -0.128000
     12 N16         1.5780    0.5840   -1.1730 ns        1 1PP     -0.427100
     13 C11         0.9170    0.3410   -2.3820 cc        1 1PP      0.013300
     14 C10        -0.4540    0.4180   -2.6890 cd        1 1PP     -0.269300
     15 C9         -0.5460    0.0600   -4.0930 cd        1 1PP      0.332600
     16 C12        -1.8340   -0.0030   -4.8560 c3        1 1PP     -0.076300
     17 C15        -2.5030    1.3670   -4.7960 c3        1 1PP     -0.085100
     18 C14        -1.6140   -0.3850   -6.3140 c3        1 1PP     -0.085100
     19 C13        -2.7400   -1.0410   -4.2000 c3        1 1PP     -0.085100
     20 N8          0.6870   -0.2070   -4.5970 nc        1 1PP     -0.490800
     21 N7          1.5700   -0.0930   -3.5840 na        1 1PP      0.121300
     22 C5          2.9790   -0.0620   -3.7920 ca        1 1PP      0.010800
     23 C6          3.6120   -1.1570   -4.4170 ca        1 1PP     -0.132000
     24 C4          3.7490    1.0450   -3.3820 ca        1 1PP     -0.132000
     25 C3          5.1300    1.0300   -3.5610 ca        1 1PP     -0.121000
     26 C2          5.7550   -0.0610   -4.1630 ca        1 1PP     -0.128000
     27 C1          4.9930   -1.1450   -4.5950 ca        1 1PP     -0.121000
     28 H18         2.7180    0.4410    1.1070 hn        1 1PP      0.320500
     29 H22        -0.0020   -0.1810    6.1970 ha        1 1PP      0.154000
     30 H23        -1.3140   -1.2100    4.3430 ha        1 1PP      0.147000
     31 H24        -0.5290   -1.0660    2.0020 ha        1 1PP      0.178000
     32 H16         2.5760    0.5350   -1.2140 hn        1 1PP      0.314500
     33 H10        -1.2650    0.6610   -2.0110 ha        1 1PP      0.192000
     34 H151       -2.6720    1.6700   -3.7360 hc        1 1PP      0.039589
     35 H152       -1.8620    2.1340   -5.2910 hc        1 1PP      0.039589
     36 H153       -3.4880    1.3290   -5.3210 hc        1 1PP      0.039589
     37 H141       -1.1370   -1.3910   -6.3890 hc        1 1PP      0.039589
     38 H142       -0.9570    0.3620   -6.8210 hc        1 1PP      0.039589
     39 H143       -2.5960   -0.4150   -6.8450 hc        1 1PP      0.039589
     40 H131       -2.9110   -0.7840   -3.1270 hc        1 1PP      0.039589
     41 H132       -2.2730   -2.0530   -4.2570 hc        1 1PP      0.039589
     42 H133       -3.7240   -1.0690   -4.7260 hc        1 1PP      0.039589
     43 H6          3.0180   -2.0140   -4.7720 ha        1 1PP      0.153000
     44 H4          3.2680    1.9350   -2.9460 ha        1 1PP      0.153000
     45 H3          5.7270    1.8960   -3.2350 ha        1 1PP      0.139500
     46 H2          6.8460   -0.0620   -4.3040 ha        1 1PP      0.139000
     47 H1          5.4820   -2.0020   -5.0830 ha        1 1PP      0.139500
@<TRIPOS>BOND
     1    1    2 2   
     2    2    3 1   
     3    2   12 1   
     4    3    4 1   
     5    3   28 1   
     6    4    5 ar  
     7    4   11 ar  
     8    5    6 1   
     9    5    7 ar  
    10    7    8 1   
    11    7    9 ar  
    12    9   10 ar  
    13    9   29 1   
    14   10   11 ar  
    15   10   30 1   
    16   11   31 1   
    17   12   13 1   
    18   12   32 1   
    19   13   14 2   
    20   13   21 1   
    21   14   15 1   
    22   14   33 1   
    23   15   16 1   
    24   15   20 2   
    25   16   17 1   
    26   16   18 1   
    27   16   19 1   
    28   17   34 1   
    29   17   35 1   
    30   17   36 1   
    31   18   37 1   
    32   18   38 1   
    33   18   39 1   
    34   19   40 1   
    35   19   41 1   
    36   19   42 1   
    37   20   21 1   
    38   21   22 1   
    39   22   23 ar  
    40   22   24 ar  
    41   23   27 ar  
    42   23   43 1   
    43   24   25 ar  
    44   24   44 1   
    45   25   26 ar  
    46   25   45 1   
    47   26   27 ar  
    48   26   46 1   
    49   27   47 1   
@<TRIPOS>SUBSTRUCTURE
     1 1PP         1 TEMP              0 ****  ****    0 ROOT
