@<TRIPOS>MOLECULE
1PP
   49    51     1     0     0
SMALL
bcc


@<TRIPOS>ATOM
      1 O27         3.4080   -0.6880   -0.0020 o         1 1PP     -0.298100
      2 C17         2.2130   -0.6130   -0.2290 c         1 1PP      0.480100
      3 N18         1.3110    0.2540    0.6020 n4        1 1PP     -0.492200
      4 C19         1.0130   -0.3850    1.8910 ca        1 1PP     -0.089400
      5 C20         0.0250   -1.3960    1.9770 ca        1 1PP     -0.004600
      6 CL1        -0.7970   -1.9110    0.5800 cl        1 1PP     -0.048400
      7 C21        -0.2820   -1.9540    3.2250 ca        1 1PP      0.050400
      8 CL2        -1.4540   -3.1450    3.3750 cl        1 1PP      0.057600
      9 C22         0.4030   -1.5070    4.3740 ca        1 1PP     -0.033000
     10 C23         1.3790   -0.5220    4.2740 ca        1 1PP     -0.078000
     11 C24         1.6990    0.0460    3.0390 ca        1 1PP     -0.066000
     12 N16         1.5830   -1.3690   -1.3680 n4        1 1PP     -0.451200
     13 C11         0.9670   -0.4650   -2.2990 cc        1 1PP     -0.253700
     14 C10        -0.3610    0.0620   -2.2770 cd        1 1PP     -0.229300
     15 C9         -0.4340    0.8950   -3.4360 cd        1 1PP      0.370600
     16 C12        -1.6190    1.6900   -3.9040 c3        1 1PP     -0.087300
     17 C15        -1.2470    3.1670   -3.9700 c3        1 1PP     -0.096767
     18 C14        -2.0350    1.2060   -5.2900 c3        1 1PP     -0.096767
     19 C13        -2.7790    1.5010   -2.9350 c3        1 1PP     -0.096767
     20 N8          0.7780    0.8610   -4.1110 nc        1 1PP     -0.372800
     21 N7          1.6010    0.0740   -3.4540 na        1 1PP      0.265300
     22 C5          2.9270   -0.2920   -3.8720 ca        1 1PP     -0.096200
     23 C6          3.2420   -1.6560   -4.0640 ca        1 1PP     -0.125500
     24 C4          3.8770    0.7080   -4.1420 ca        1 1PP     -0.125500
     25 C3          5.1550    0.3320   -4.5630 ca        1 1PP     -0.097000
     26 C2          5.4820   -1.0120   -4.7270 ca        1 1PP     -0.072000
     27 C1          4.5240   -2.0010   -4.4810 ca        1 1PP     -0.097000
     28 H18         0.4290    0.4680    0.0990 hn        1 1PP      0.504800
     29 H22         0.1560   -1.9480    5.3610 ha        1 1PP      0.212000
     30 H23         1.9120   -0.1770    5.1820 ha        1 1PP      0.205000
     31 H24         2.4800    0.8260    2.9930 ha        1 1PP      0.181000
     32 H16         0.8540   -2.0170   -0.9940 hn        1 1PP      0.515300
     33 H10        -1.1690   -0.1570   -1.5820 ha        1 1PP      0.194000
     34 H151       -0.4350    3.3390   -4.7160 hc        1 1PP      0.055589
     35 H152       -0.9110    3.5340   -2.9720 hc        1 1PP      0.055589
     36 H153       -2.1420    3.7590   -4.2830 hc        1 1PP      0.055589
     37 H141       -1.2230    1.3870   -6.0340 hc        1 1PP      0.055589
     38 H142       -2.2760    0.1160   -5.2710 hc        1 1PP      0.055589
     39 H143       -2.9450    1.7660   -5.6180 hc        1 1PP      0.055589
     40 H131       -2.5030    1.8490   -1.9110 hc        1 1PP      0.055589
     41 H132       -3.0880    0.4290   -2.8890 hc        1 1PP      0.055589
     42 H133       -3.6540    2.1020   -3.2860 hc        1 1PP      0.055589
     43 H6          2.4750   -2.4410   -3.9740 ha        1 1PP      0.157000
     44 H4          3.6240    1.7770   -4.0510 ha        1 1PP      0.157000
     45 H3          5.9010    1.1150   -4.7850 ha        1 1PP      0.177500
     46 H2          6.4910   -1.2990   -5.0720 ha        1 1PP      0.181000
     47 H1          4.7760   -3.0630   -4.6450 ha        1 1PP      0.177500
     48 H182        1.8160    1.1440    0.7820 hn        1 1PP      0.504800
     49 H162        2.3420   -1.9150   -1.8390 hn        1 1PP      0.515300
@<TRIPOS>BOND
     1    1    2 2   
     2    2    3 1   
     3    2   12 1   
     4    3    4 1   
     5    3   28 1   
     6    3   48 1   
     7    4    5 ar  
     8    4   11 ar  
     9    5    6 1   
    10    5    7 ar  
    11    7    8 1   
    12    7    9 ar  
    13    9   10 ar  
    14    9   29 1   
    15   10   11 ar  
    16   10   30 1   
    17   11   31 1   
    18   12   13 1   
    19   12   32 1   
    20   12   49 1   
    21   13   14 2   
    22   13   21 1   
    23   14   15 1   
    24   14   33 1   
    25   15   16 1   
    26   15   20 2   
    27   16   17 1   
    28   16   18 1   
    29   16   19 1   
    30   17   34 1   
    31   17   35 1   
    32   17   36 1   
    33   18   37 1   
    34   18   38 1   
    35   18   39 1   
    36   19   40 1   
    37   19   41 1   
    38   19   42 1   
    39   20   21 1   
    40   21   22 1   
    41   22   23 ar  
    42   22   24 ar  
    43   23   27 ar  
    44   23   43 1   
    45   24   25 ar  
    46   24   44 1   
    47   25   26 ar  
    48   25   45 1   
    49   26   27 ar  
    50   26   46 1   
    51   27   47 1   
@<TRIPOS>SUBSTRUCTURE
     1 1PP         1 TEMP              0 ****  ****    0 ROOT
