@<TRIPOS>MOLECULE
1PP
   47    49     1     0     0
SMALL
bcc


@<TRIPOS>ATOM
      1 O27        -0.2900    0.0590    0.1100 o         1 1PP     -0.590100
      2 C17         0.9460    0.2250    0.0480 c         1 1PP      0.767100
      3 N18         1.7800    0.1000    1.1830 n         1 1PP     -0.461100
      4 C19         1.2710    0.0670    2.4950 ca        1 1PP      0.079600
      5 C20         2.0130    0.6580    3.5530 ca        1 1PP     -0.034600
      6 CL1         3.4680    1.4780    3.2240 cl        1 1PP     -0.080400
      7 C21         1.5520    0.5610    4.8720 ca        1 1PP      0.041400
      8 CL2         2.4310    1.2500    6.1520 cl        1 1PP     -0.067400
      9 C22         0.3550   -0.1000    5.1600 ca        1 1PP     -0.138000
     10 C23        -0.3770   -0.6710    4.1230 ca        1 1PP     -0.099000
     11 C24         0.0670   -0.5990    2.8070 ca        1 1PP     -0.128000
     12 N16         1.5810    0.5760   -1.1730 n         1 1PP     -0.427100
     13 C11         0.9190    0.3370   -2.3820 cc        1 1PP      0.014300
     14 C10        -0.4510    0.4220   -2.6890 cd        1 1PP     -0.269300
     15 C9         -0.5460    0.0660   -4.0930 cd        1 1PP      0.333600
     16 C12        -1.8340    0.0110   -4.8560 c3        1 1PP     -0.076300
     17 C15        -2.4980    1.3830   -4.7920 c3        1 1PP     -0.085100
     18 C14        -1.6170   -0.3680   -6.3140 c3        1 1PP     -0.085100
     19 C13        -2.7450   -1.0240   -4.2020 c3        1 1PP     -0.085100
     20 N8          0.6860   -0.2070   -4.5970 nc        1 1PP     -0.490800
     21 N7          1.5690   -0.0990   -3.5850 na        1 1PP      0.121300
     22 C5          2.9790   -0.0760   -3.7930 ca        1 1PP      0.010800
     23 C6          3.6050   -1.1730   -4.4200 ca        1 1PP     -0.132000
     24 C4          3.7550    1.0270   -3.3820 ca        1 1PP     -0.132000
     25 C3          5.1350    1.0050   -3.5620 ca        1 1PP     -0.121000
     26 C2          5.7550   -0.0890   -4.1640 ca        1 1PP     -0.128000
     27 C1          4.9860   -1.1680   -4.5980 ca        1 1PP     -0.121000
     28 H18         2.7210    0.4270    1.1070 hn        1 1PP      0.320500
     29 H22        -0.0040   -0.1670    6.1980 ha        1 1PP      0.154000
     30 H23        -1.3230   -1.1910    4.3450 ha        1 1PP      0.147000
     31 H24        -0.5360   -1.0560    2.0040 ha        1 1PP      0.178000
     32 H16         2.5790    0.5210   -1.2140 hn        1 1PP      0.314500
     33 H10        -1.2620    0.6700   -2.0100 ha        1 1PP      0.192000
     34 H151       -1.8530    2.1490   -5.2860 hc        1 1PP      0.039589
     35 H152       -2.6650    1.6850   -3.7310 hc        1 1PP      0.039589
     36 H153       -3.4830    1.3510   -5.3170 hc        1 1PP      0.039589
     37 H141       -0.9570    0.3760   -6.8200 hc        1 1PP      0.039589
     38 H142       -2.5990   -0.3930   -6.8450 hc        1 1PP      0.039589
     39 H143       -1.1450   -1.3770   -6.3920 hc        1 1PP      0.039589
     40 H131       -3.7290   -1.0460   -4.7270 hc        1 1PP      0.039589
     41 H132       -2.9140   -0.7690   -3.1280 hc        1 1PP      0.039589
     42 H133       -2.2830   -2.0380   -4.2610 hc        1 1PP      0.039589
     43 H6          3.0060   -2.0260   -4.7760 ha        1 1PP      0.153000
     44 H4          3.2790    1.9190   -2.9450 ha        1 1PP      0.153000
     45 H3          5.7370    1.8670   -3.2350 ha        1 1PP      0.139500
     46 H2          6.8450   -0.0960   -4.3060 ha        1 1PP      0.139000
     47 H1          5.4700   -2.0270   -5.0870 ha        1 1PP      0.139500
@<TRIPOS>BOND
     1    1    2 2   
     2    2    3 1   
     3    2   12 1   
     4    3    4 1   
     5    3   28 1   
     6    4    5 ar  
     7    4   11 ar  
     8    5    6 1   
     9    5    7 ar  
    10    7    8 1   
    11    7    9 ar  
    12    9   10 ar  
    13    9   29 1   
    14   10   11 ar  
    15   10   30 1   
    16   11   31 1   
    17   12   13 1   
    18   12   32 1   
    19   13   14 2   
    20   13   21 1   
    21   14   15 1   
    22   14   33 1   
    23   15   16 1   
    24   15   20 2   
    25   16   17 1   
    26   16   18 1   
    27   16   19 1   
    28   17   34 1   
    29   17   35 1   
    30   17   36 1   
    31   18   37 1   
    32   18   38 1   
    33   18   39 1   
    34   19   40 1   
    35   19   41 1   
    36   19   42 1   
    37   20   21 1   
    38   21   22 1   
    39   22   23 ar  
    40   22   24 ar  
    41   23   27 ar  
    42   23   43 1   
    43   24   25 ar  
    44   24   44 1   
    45   25   26 ar  
    46   25   45 1   
    47   26   27 ar  
    48   26   46 1   
    49   27   47 1   
@<TRIPOS>SUBSTRUCTURE
     1 1PP         1 TEMP              0 ****  ****    0 ROOT
