@<TRIPOS>MOLECULE
1PP
   47    41     1     0     0
SMALL
bcc


@<TRIPOS>ATOM
      1 O27        -0.3490   -1.0690    1.5950 o         1 1PP     -0.351000
      2 C17         0.4760   -0.1970    1.7740 c1        1 1PP      0.394000
      3 N18         1.2320   -0.1700    2.9740 n2        1 1PP     -0.315000
      4 C19         1.0240   -1.1630    3.9660 c2        1 1PP      0.087000
      5 C20         1.9770   -2.1490    4.1700 c2        1 1PP     -0.113000
      6 CL1         3.3960   -2.2120    3.1580 cl        1 1PP     -0.002000
      7 C21         1.8140   -3.0710    5.1920 c1        1 1PP     -0.037000
      8 CL2         2.9960   -4.3310    5.4270 cl        1 1PP      0.011000
      9 C22         0.6970   -3.0070    6.0110 c2        1 1PP     -0.138000
     10 C23        -0.2560   -2.0220    5.8070 c1        1 1PP     -0.099000
     11 C24        -0.0930   -1.1000    4.7850 c1        1 1PP     -0.128000
     12 N16         0.6930    0.7900    0.7770 n3        1 1PP     -0.281000
     13 C11        -0.0550    0.7570   -0.4280 c2        1 1PP      0.045000
     14 C10        -1.4160    0.7390   -0.5270 c1        1 1PP     -0.204000
     15 C9         -1.7420    0.7640   -1.8530 c1        1 1PP     -0.090000
     16 C12        -3.1410    0.6950   -2.4260 c2        1 1PP      0.018000
     17 C15        -3.9150    1.9280   -2.0190 c3        1 1PP     -0.203000
     18 C14        -3.0650    0.6230   -3.9350 c3        1 1PP     -0.203000
     19 C13        -3.8410   -0.5360   -1.8990 c3        1 1PP     -0.203000
     20 N8         -0.5950    0.7980   -2.5630 n2        1 1PP     -0.058000
     21 N7          0.4530    0.7930   -1.6780 n2        1 1PP     -0.118000
     22 C5          1.8280    0.8690   -2.0150 c1        1 1PP      0.056000
     23 C6          2.4460    2.1040   -2.1330 c2        1 1PP     -0.157000
     24 C4          2.5540   -0.2920   -2.2280 c1        1 1PP     -0.107000
     25 C3          3.8980   -0.2180   -2.5590 c1        1 1PP     -0.124500
     26 C2          4.5160    1.0170   -2.6770 c1        1 1PP     -0.124500
     27 C1          3.7900    2.1780   -2.4640 c1        1 1PP     -0.121000
     28 H18         1.8650    0.4750    3.1000 hn        1 1PP      0.234000
     29 H22         0.5820   -3.6570    6.7310 ha        1 1PP      0.154000
     30 H23        -1.0430   -1.9770    6.3840 ha        1 1PP      0.147000
     31 H24        -0.7650   -0.4060    4.6420 ha        1 1PP      0.178000
     32 H16         1.3040    1.4530    0.9160 hn        1 1PP      0.228000
     33 H10        -2.0460    0.7520    0.2180 DU        1 1PP      0.192000
     34 H151       -3.9410    1.9890   -1.0410 hc        1 1PP      0.078889
     35 H152       -4.8300    1.8700   -2.3660 hc        1 1PP      0.078889
     36 H153       -3.4770    2.7240   -2.3840 hc        1 1PP      0.078889
     37 H141       -2.6330    1.4320   -4.2790 hc        1 1PP      0.078889
     38 H142       -2.5430   -0.1630   -4.1990 hc        1 1PP      0.078889
     39 H143       -3.9700    0.5540   -4.3050 hc        1 1PP      0.078889
     40 H131       -4.0150   -0.4270   -0.9410 hc        1 1PP      0.078889
     41 H132       -4.6890   -0.6580   -2.3740 hc        1 1PP      0.078889
     42 H133       -3.2720   -1.3210   -2.0400 hc        1 1PP      0.078889
     43 H6          1.9340    2.9220   -1.9830 ha        1 1PP      0.148000
     44 H4          2.1190   -1.1620   -2.1450 ha        1 1PP      0.158000
     45 H3          4.4100   -1.0360   -2.7090 ha        1 1PP      0.140000
     46 H2          5.4620    1.0690   -2.9100 ha        1 1PP      0.140000
     47 H1          4.2250    3.0480   -2.5470 ha        1 1PP      0.138000
@<TRIPOS>BOND
     1    1    2 1   
     2    2   12 1   
     3    3    4 1   
     4    3   28 1   
     5    4    5 1   
     6    4   11 1   
     7    5    6 1   
     8    5    7 1   
     9    7    9 1   
    10    9   10 1   
    11    9   29 1   
    12   10   30 1   
    13   11   31 1   
    14   12   13 1   
    15   12   32 1   
    16   13   14 1   
    17   13   21 1   
    18   14   15 1   
    19   15   20 1   
    20   16   17 1   
    21   16   18 1   
    22   16   19 1   
    23   17   34 1   
    24   17   35 1   
    25   17   36 1   
    26   18   37 1   
    27   18   38 1   
    28   18   39 1   
    29   19   40 1   
    30   19   41 1   
    31   19   42 1   
    32   20   21 1   
    33   22   23 1   
    34   22   24 1   
    35   23   27 1   
    36   23   43 1   
    37   24   44 1   
    38   25   26 1   
    39   25   45 1   
    40   26   46 1   
    41   27   47 1   
@<TRIPOS>SUBSTRUCTURE
     1 1PP         1 TEMP              0 ****  ****    0 ROOT
