@<TRIPOS>MOLECULE
1PQ
   41    42     1     0     0
SMALL
bcc


@<TRIPOS>ATOM
      1 C1         -0.0190    0.0660   -0.1360 c3        1 1PQ      0.110700
      2 O1          1.3950   -0.0670   -0.0250 os        1 1PQ     -0.326900
      3 C2          1.9100   -0.0380    1.2540 ca        1 1PQ      0.167100
      4 C3          3.3290   -0.1180    1.2930 ca        1 1PQ     -0.216000
      5 C4          4.0100   -0.1230    2.5020 ca        1 1PQ      0.120300
      6 N1          5.3990   -0.3320    2.5840 nu        1 1PQ     -0.728600
      7 C5          6.2320   -0.0970    1.4170 c3        1 1PQ      0.194500
      8 C6          6.3790    1.3690    1.0070 c3        1 1PQ     -0.133100
      9 C7          7.6460   -0.6750    1.6370 c3        1 1PQ     -0.080400
     10 C8          7.5890   -2.1670    1.9010 c3        1 1PQ     -0.108400
     11 C9          9.0050   -2.7140    2.0220 c3        1 1PQ      0.097800
     12 N2          9.0200   -4.1660    2.3770 nz        1 1PQ     -0.839600
     13 C10         3.2440   -0.0000    3.7400 ca        1 1PQ      0.336600
     14 N3          3.8980    0.0410    4.9570 nb        1 1PQ     -0.678000
     15 C11         3.1750    0.1550    6.0560 ca        1 1PQ      0.402200
     16 C12         1.7470    0.2350    6.0700 ca        1 1PQ     -0.227300
     17 C13         1.0830    0.1990    4.8720 ca        1 1PQ     -0.091000
     18 C14         1.8230    0.0820    3.6560 ca        1 1PQ     -0.080300
     19 C15         1.1600    0.0570    2.4070 ca        1 1PQ     -0.230000
     20 H1         -0.5330   -0.7900    0.3640 h1        1 1PQ      0.051700
     21 H2         -0.3580    1.0380    0.2990 h1        1 1PQ      0.051700
     22 H3         -0.1940    0.0440   -1.2420 h1        1 1PQ      0.051700
     23 H4          3.8460   -0.1710    0.3240 ha        1 1PQ      0.150000
     24 H5          5.8050    0.0620    3.4120 hn        1 1PQ      0.412800
     25 H6          5.7740   -0.6630    0.5510 h1        1 1PQ      0.067700
     26 H7          6.8800    1.9620    1.8090 hc        1 1PQ      0.054700
     27 H8          5.3730    1.8140    0.8100 hc        1 1PQ      0.054700
     28 H9          6.9870    1.4420    0.0740 hc        1 1PQ      0.054700
     29 H10         8.2450   -0.4710    0.7110 hc        1 1PQ      0.059200
     30 H11         8.1460   -0.1510    2.4920 hc        1 1PQ      0.059200
     31 H12         7.0140   -2.3600    2.8460 hc        1 1PQ      0.081200
     32 H13         7.0440   -2.6730    1.0600 hc        1 1PQ      0.081200
     33 H14         9.5580   -2.5940    1.0460 hx        1 1PQ      0.110700
     34 H15         9.5680   -2.1600    2.8290 hx        1 1PQ      0.110700
     35 H16         8.5370   -4.3120    3.2710 hn        1 1PQ      0.461467
     36 H17         9.9830   -4.5030    2.4560 hn        1 1PQ      0.461467
     37 H19         3.7350    0.1900    7.0080 h4        1 1PQ      0.024100
     38 H20         1.2190    0.3260    7.0290 ha        1 1PQ      0.153000
     39 H21        -0.0150    0.2610    4.8200 ha        1 1PQ      0.148000
     40 H22         0.0640    0.1200    2.3860 ha        1 1PQ      0.150000
     41 H23         8.5330   -4.7080    1.6550 hn        1 1PQ      0.461467
@<TRIPOS>BOND
     1    1    2 1   
     2    1   20 1   
     3    1   21 1   
     4    1   22 1   
     5    2    3 1   
     6    3    4 ar  
     7    3   19 ar  
     8    4    5 ar  
     9    4   23 1   
    10    5    6 1   
    11    5   13 ar  
    12    6    7 1   
    13    6   24 1   
    14    7    8 1   
    15    7    9 1   
    16    7   25 1   
    17    8   26 1   
    18    8   27 1   
    19    8   28 1   
    20    9   10 1   
    21    9   29 1   
    22    9   30 1   
    23   10   11 1   
    24   10   31 1   
    25   10   32 1   
    26   11   12 1   
    27   11   33 1   
    28   11   34 1   
    29   12   35 1   
    30   12   36 1   
    31   12   41 1   
    32   13   14 ar  
    33   13   18 ar  
    34   14   15 ar  
    35   15   16 ar  
    36   15   37 1   
    37   16   17 ar  
    38   16   38 1   
    39   17   18 ar  
    40   17   39 1   
    41   18   19 ar  
    42   19   40 1   
@<TRIPOS>SUBSTRUCTURE
     1 1PQ         1 TEMP              0 ****  ****    0 ROOT
