@<TRIPOS>MOLECULE
1PQ
   42    43     1     0     0
SMALL
bcc


@<TRIPOS>ATOM
      1 C1         -0.2940    1.9740    0.5310 c3        1 1PQ      0.103700
      2 O1          1.1360    1.9370    0.4850 os        1 1PQ     -0.307900
      3 C2          1.7620    1.1240    1.3930 ca        1 1PQ      0.146100
      4 C3          3.1820    1.1690    1.3080 ca        1 1PQ     -0.087000
      5 C4          3.9420    0.3910    2.1640 ca        1 1PQ     -0.093700
      6 N1          5.4060    0.4640    2.0970 n4        1 1PQ     -0.623400
      7 C5          6.0070   -0.6440    1.2570 c3        1 1PQ      0.137500
      8 C6          5.8580   -0.3420   -0.2300 c3        1 1PQ     -0.136100
      9 C7          7.4870   -0.8650    1.5940 c3        1 1PQ     -0.112400
     10 C8          7.6820   -1.7610    2.8030 c3        1 1PQ     -0.115400
     11 C9          9.1720   -2.0530    2.9680 c3        1 1PQ      0.098800
     12 N2          9.4690   -3.0110    4.0710 n4        1 1PQ     -0.837600
     13 C10         3.3290   -0.4720    3.1400 ca        1 1PQ      0.374600
     14 N3          4.1080   -1.2460    3.9830 nb        1 1PQ     -0.753000
     15 C11         3.4880   -1.9980    4.8760 ca        1 1PQ      0.456200
     16 C12         2.0650   -2.0700    5.0190 ca        1 1PQ     -0.219300
     17 C13         1.2830   -1.3160    4.1840 ca        1 1PQ     -0.053000
     18 C14         1.9020   -0.4790    3.2020 ca        1 1PQ     -0.095300
     19 C15         1.1330    0.3160    2.3260 ca        1 1PQ     -0.134000
     20 H1         -0.6420    2.3470    1.5250 h1        1 1PQ      0.070700
     21 H2         -0.7170    0.9650    0.3070 h1        1 1PQ      0.070700
     22 H3         -0.5480    2.7040   -0.2810 h1        1 1PQ      0.070700
     23 H4          3.6250    1.8430    0.5520 ha        1 1PQ      0.178000
     24 H5          5.7810    0.4050    3.0510 hn        1 1PQ      0.456300
     25 H6          5.4170   -1.5800    1.5060 hx        1 1PQ      0.126700
     26 H7          6.1490   -1.2520   -0.8120 hc        1 1PQ      0.085033
     27 H8          4.7970   -0.0960   -0.4880 hc        1 1PQ      0.085033
     28 H9          6.5160    0.5050   -0.5430 hc        1 1PQ      0.085033
     29 H10         8.0180    0.1130    1.7460 hc        1 1PQ      0.089700
     30 H11         7.9590   -1.3510    0.6940 hc        1 1PQ      0.089700
     31 H12         7.1110   -2.7180    2.6540 hc        1 1PQ      0.079700
     32 H13         7.2760   -1.2680    3.7260 hc        1 1PQ      0.079700
     33 H14         9.7310   -1.0950    3.1870 hx        1 1PQ      0.121700
     34 H15         9.5850   -2.4970    2.0130 hx        1 1PQ      0.121700
     35 H16         9.1370   -2.6420    4.9690 hn        1 1PQ      0.471467
     36 H17         9.0070   -3.9120    3.8970 hn        1 1PQ      0.471467
     37 H19         4.1310   -2.6010    5.5460 h4        1 1PQ      0.032100
     38 H20         1.6320   -2.7230    5.7930 ha        1 1PQ      0.182000
     39 H21         0.1820   -1.3340    4.2510 ha        1 1PQ      0.176000
     40 H22         0.0320    0.2840    2.4020 ha        1 1PQ      0.181000
     41 H121        5.6750    1.3710    1.6930 hn        1 1PQ      0.456300
     42 H23        10.4840   -3.1670    4.1310 hn        1 1PQ      0.471467
@<TRIPOS>BOND
     1    1    2 1   
     2    1   20 1   
     3    1   21 1   
     4    1   22 1   
     5    2    3 1   
     6    3    4 ar  
     7    3   19 ar  
     8    4    5 ar  
     9    4   23 1   
    10    5    6 1   
    11    5   13 ar  
    12    6    7 1   
    13    6   24 1   
    14    6   41 1   
    15    7    8 1   
    16    7    9 1   
    17    7   25 1   
    18    8   26 1   
    19    8   27 1   
    20    8   28 1   
    21    9   10 1   
    22    9   29 1   
    23    9   30 1   
    24   10   11 1   
    25   10   31 1   
    26   10   32 1   
    27   11   12 1   
    28   11   33 1   
    29   11   34 1   
    30   12   35 1   
    31   12   36 1   
    32   12   42 1   
    33   13   14 ar  
    34   13   18 ar  
    35   14   15 ar  
    36   15   16 ar  
    37   15   37 1   
    38   16   17 ar  
    39   16   38 1   
    40   17   18 ar  
    41   17   39 1   
    42   18   19 ar  
    43   19   40 1   
@<TRIPOS>SUBSTRUCTURE
     1 1PQ         1 TEMP              0 ****  ****    0 ROOT
