@<TRIPOS>MOLECULE
1PQ
   41    42     1     0     0
SMALL
bcc


@<TRIPOS>ATOM
      1 C1         -0.0260    0.0460   -0.1280 c3        1 1PQ      0.110700
      2 O1          1.3890   -0.0830   -0.0190 os        1 1PQ     -0.326900
      3 C2          1.9070   -0.0520    1.2590 ca        1 1PQ      0.167100
      4 C3          3.3260   -0.1270    1.2950 ca        1 1PQ     -0.216000
      5 C4          4.0090   -0.1300    2.5030 ca        1 1PQ      0.120300
      6 N1          5.3990   -0.3340    2.5830 nh        1 1PQ     -0.728600
      7 C5          6.2290   -0.0970    1.4130 c3        1 1PQ      0.194500
      8 C6          6.3710    1.3680    1.0020 c3        1 1PQ     -0.133100
      9 C7          7.6440   -0.6720    1.6310 c3        1 1PQ     -0.080400
     10 C8          7.5920   -2.1630    1.8960 c3        1 1PQ     -0.108400
     11 C9          9.0110   -2.7060    2.0160 c3        1 1PQ      0.097800
     12 N2          9.0290   -4.1580    2.3720 n4        1 1PQ     -0.839600
     13 C10         3.2450   -0.0090    3.7430 ca        1 1PQ      0.336600
     14 N3          3.9010    0.0340    4.9580 nb        1 1PQ     -0.678000
     15 C11         3.1790    0.1450    6.0580 ca        1 1PQ      0.402200
     16 C12         1.7510    0.2210    6.0750 ca        1 1PQ     -0.227300
     17 C13         1.0850    0.1820    4.8780 ca        1 1PQ     -0.091000
     18 C14         1.8230    0.0680    3.6610 ca        1 1PQ     -0.080300
     19 C15         1.1580    0.0400    2.4130 ca        1 1PQ     -0.230000
     20 H1         -0.3670    1.0160    0.3070 h1        1 1PQ      0.051700
     21 H2         -0.5360   -0.8120    0.3730 h1        1 1PQ      0.051700
     22 H3         -0.2020    0.0220   -1.2330 h1        1 1PQ      0.051700
     23 H4          3.8410   -0.1780    0.3250 ha        1 1PQ      0.150000
     24 H5          5.8050    0.0620    3.4090 hn        1 1PQ      0.412800
     25 H6          5.7700   -0.6650    0.5490 h1        1 1PQ      0.067700
     26 H7          6.9770    1.4420    0.0680 hc        1 1PQ      0.054700
     27 H8          6.8730    1.9630    1.8020 hc        1 1PQ      0.054700
     28 H9          5.3630    1.8110    0.8080 hc        1 1PQ      0.054700
     29 H10         8.2420   -0.4670    0.7040 hc        1 1PQ      0.059200
     30 H11         8.1450   -0.1450    2.4850 hc        1 1PQ      0.059200
     31 H12         7.0190   -2.3570    2.8430 hc        1 1PQ      0.081200
     32 H13         7.0480   -2.6720    1.0560 hc        1 1PQ      0.081200
     33 H14         9.5610   -2.5860    1.0390 hx        1 1PQ      0.110700
     34 H15         9.5730   -2.1500    2.8210 hx        1 1PQ      0.110700
     35 H16         8.5490   -4.3040    3.2670 hn        1 1PQ      0.461467
     36 H17         8.5430   -4.7020    1.6510 hn        1 1PQ      0.461467
     37 H19         3.7410    0.1830    7.0100 h4        1 1PQ      0.024100
     38 H20         1.2250    0.3110    7.0350 ha        1 1PQ      0.153000
     39 H21        -0.0130    0.2400    4.8280 ha        1 1PQ      0.148000
     40 H22         0.0610    0.0990    2.3940 ha        1 1PQ      0.150000
     41 H23         9.9940   -4.4920    2.4500 hn        1 1PQ      0.461467
@<TRIPOS>BOND
     1    1    2 1   
     2    1   20 1   
     3    1   21 1   
     4    1   22 1   
     5    2    3 1   
     6    3    4 ar  
     7    3   19 ar  
     8    4    5 ar  
     9    4   23 1   
    10    5    6 1   
    11    5   13 ar  
    12    6    7 1   
    13    6   24 1   
    14    7    8 1   
    15    7    9 1   
    16    7   25 1   
    17    8   26 1   
    18    8   27 1   
    19    8   28 1   
    20    9   10 1   
    21    9   29 1   
    22    9   30 1   
    23   10   11 1   
    24   10   31 1   
    25   10   32 1   
    26   11   12 1   
    27   11   33 1   
    28   11   34 1   
    29   12   35 1   
    30   12   36 1   
    31   12   41 1   
    32   13   14 ar  
    33   13   18 ar  
    34   14   15 ar  
    35   15   16 ar  
    36   15   37 1   
    37   16   17 ar  
    38   16   38 1   
    39   17   18 ar  
    40   17   39 1   
    41   18   19 ar  
    42   19   40 1   
@<TRIPOS>SUBSTRUCTURE
     1 1PQ         1 TEMP              0 ****  ****    0 ROOT
