@<TRIPOS>MOLECULE
1PQ
   40    36     1     0     0
SMALL
bcc


@<TRIPOS>ATOM
      1 C1         -4.9630    0.1790   -1.6020 c3        1 1PQ      0.113700
      2 O1         -3.6780   -0.2940   -1.5810 os        1 1PQ     -0.310400
      3 C2         -3.0440   -0.1620   -0.3280 c1        1 1PQ      0.163600
      4 C3         -1.6650   -0.0790   -0.5140 c1        1 1PQ     -0.186500
      5 C4         -0.8080   -0.0560    0.6000 c1        1 1PQ      0.205800
      6 N1          0.6210   -0.0510    0.6080 n3        1 1PQ     -0.704800
      7 C5          1.3160    0.4220   -0.5070 c3        1 1PQ      0.205500
      8 C6          1.4680    1.9140   -0.4050 c3        1 1PQ     -0.129100
      9 C7          2.7230   -0.2450   -0.5690 c3        1 1PQ     -0.086400
     10 C8          3.1140   -0.4810   -2.0330 c3        1 1PQ     -0.081400
     11 C9          4.6190   -0.6900   -2.1270 c3        1 1PQ      0.158800
     12 N2          4.9910   -0.8520   -3.4830 n3        1 1PQ     -0.915800
     13 C10        -1.3410   -0.1160    1.9070 cg        1 1PQ     -0.069000
     14 N3         -0.4860   -0.0920    3.0030 n1        1 1PQ     -0.459800
     15 C11        -0.9950   -0.1500    4.2740 c1        1 1PQ      0.306300
     16 C12        -2.3670   -0.2330    4.4730 c1        1 1PQ     -0.076500
     17 C13        -3.2200   -0.2570    3.3940 c1        1 1PQ     -0.076500
     18 C14        -2.7040   -0.1980    2.0980 cg        1 1PQ     -0.007000
     19 C15        -3.5750   -0.2230    0.9790 c1        1 1PQ     -0.202500
     20 H1         -5.3170    0.1570   -2.5560 h1        1 1PQ      0.045033
     21 H2         -4.9780    1.1140   -1.2600 h1        1 1PQ      0.045033
     22 H3         -5.5160   -0.3760   -1.0430 h1        1 1PQ      0.045033
     23 H4         -1.2890    0.0140   -1.4330 ha        1 1PQ      0.096500
     24 H5          1.0850   -0.2580    1.3930 hn        1 1PQ      0.428800
     25 H6          0.8080    0.1990   -1.3300 h1        1 1PQ      0.064700
     26 H7          0.7320    2.2790    0.1220 hc        1 1PQ      0.044367
     27 H8          2.3230    2.1280    0.0320 hc        1 1PQ      0.044367
     28 H9          1.4530    2.3170   -1.3280 hc        1 1PQ      0.044367
     29 H10         3.3930    0.3520   -0.1400 hc        1 1PQ      0.050700
     30 H11         2.6980   -1.1230   -0.0850 hc        1 1PQ      0.050700
     31 H12         2.6520   -1.2750   -2.3690 hc        1 1PQ      0.049700
     32 H13         2.8580    0.2980   -2.5700 hc        1 1PQ      0.049700
     33 H14         4.8600   -1.4630   -1.6400 h1        1 1PQ      0.025200
     34 H15         5.0980    0.1190   -1.7380 h1        1 1PQ      0.025200
     35 H16         5.4360   -0.1020   -3.7690 hn        1 1PQ      0.348800
     36 H17         5.5730   -1.6260   -3.5690 hn        1 1PQ      0.348800
     37 H19        -0.4070   -0.1330    5.0210 ha        1 1PQ      0.098500
     38 H20        -2.7460   -0.2760    5.4310 ha        1 1PQ      0.082000
     39 H21        -4.1980   -0.3160    3.5370 ha        1 1PQ      0.082000
     40 H22        -4.5220   -0.3640    1.1070 ha        1 1PQ      0.081500
@<TRIPOS>BOND
     1    1    2 1   
     2    1   20 1   
     3    1   21 1   
     4    1   22 1   
     5    2    3 1   
     6    3    4 3   
     7    4   23 1   
     8    5    6 1   
     9    5   13 3   
    10    6    7 1   
    11    6   24 1   
    12    7    8 1   
    13    7    9 1   
    14    7   25 1   
    15    8   26 1   
    16    8   27 1   
    17    8   28 1   
    18    9   10 1   
    19    9   29 1   
    20    9   30 1   
    21   10   11 1   
    22   10   31 1   
    23   10   32 1   
    24   11   12 1   
    25   11   33 1   
    26   11   34 1   
    27   12   35 1   
    28   12   36 1   
    29   13   18 1   
    30   14   15 3   
    31   15   37 1   
    32   16   17 3   
    33   16   38 1   
    34   17   39 1   
    35   18   19 3   
    36   19   40 1   
@<TRIPOS>SUBSTRUCTURE
     1 1PQ         1 TEMP              0 ****  ****    0 ROOT
