@<TRIPOS>MOLECULE
1PQ
   40    41     1     0     0
SMALL
bcc


@<TRIPOS>ATOM
      1 C1          3.9320   -3.0420   -0.9420 c3        1 1PQ      0.113700
      2 O1          2.5650   -2.8130   -0.6190 os        1 1PQ     -0.327900
      3 C2          2.2110   -1.5010   -0.3700 ca        1 1PQ      0.181100
      4 C3          0.8370   -1.3350   -0.0670 ca        1 1PQ     -0.248000
      5 C4          0.3090   -0.0730    0.1990 ca        1 1PQ      0.170300
      6 N1         -1.0540    0.1330    0.3710 nh        1 1PQ     -0.732600
      7 C5         -1.9350   -0.9540    0.7530 c3        1 1PQ      0.207500
      8 C6         -1.6310   -1.5640    2.1240 c3        1 1PQ     -0.130100
      9 C7         -3.4100   -0.5130    0.7430 c3        1 1PQ     -0.082400
     10 C8         -3.8760   -0.0900   -0.6320 c3        1 1PQ     -0.084400
     11 C9         -5.3880    0.1330   -0.6230 c3        1 1PQ      0.158800
     12 N2         -5.9020    0.6370   -1.8740 n3        1 1PQ     -0.915800
     13 C10         1.2200    1.0730    0.2080 ca        1 1PQ      0.323600
     14 N3          0.7420    2.3290    0.5250 nb        1 1PQ     -0.659000
     15 C11         1.5840    3.3460    0.5130 ca        1 1PQ      0.388200
     16 C12         2.9710    3.2310    0.1900 ca        1 1PQ     -0.231300
     17 C13         3.4650    1.9900   -0.1160 ca        1 1PQ     -0.102000
     18 C14         2.5940    0.8590   -0.1100 ca        1 1PQ     -0.071300
     19 C15         3.0850   -0.4340   -0.4020 ca        1 1PQ     -0.261000
     20 H1          4.2140   -2.4940   -1.8740 h1        1 1PQ      0.044367
     21 H2          4.5930   -2.7390   -0.0950 h1        1 1PQ      0.044367
     22 H3          3.9790   -4.1490   -1.1050 h1        1 1PQ      0.044367
     23 H4          0.2090   -2.2390   -0.0640 ha        1 1PQ      0.153000
     24 H5         -1.3220    1.0220    0.7370 hn        1 1PQ      0.432800
     25 H6         -1.8170   -1.7660   -0.0280 h1        1 1PQ      0.061700
     26 H7         -1.8170   -0.8250    2.9390 hc        1 1PQ      0.045033
     27 H8         -2.2890   -2.4500    2.2890 hc        1 1PQ      0.045033
     28 H9         -0.5660   -1.8970    2.1790 hc        1 1PQ      0.045033
     29 H10        -4.0210   -1.3840    1.0980 hc        1 1PQ      0.047200
     30 H11        -3.5660    0.3240    1.4730 hc        1 1PQ      0.047200
     31 H12        -3.3540    0.8520   -0.9440 hc        1 1PQ      0.055700
     32 H13        -3.6110   -0.8810   -1.3820 hc        1 1PQ      0.055700
     33 H14        -5.8820   -0.8370   -0.3130 h1        1 1PQ      0.022200
     34 H15        -5.6380    0.8960    0.1690 h1        1 1PQ      0.022200
     35 H16        -5.5460    0.1130   -2.6490 hn        1 1PQ      0.348800
     36 H17        -6.9010    0.5980   -1.8810 hn        1 1PQ      0.348800
     37 H19         1.1600    4.3330    0.7730 h4        1 1PQ      0.020100
     38 H20         3.6050    4.1270    0.1960 ha        1 1PQ      0.142000
     39 H21         4.5250    1.8390   -0.3690 ha        1 1PQ      0.137000
     40 H22         4.1490   -0.5560   -0.6420 ha        1 1PQ      0.139000
@<TRIPOS>BOND
     1    1    2 1   
     2    1   20 1   
     3    1   21 1   
     4    1   22 1   
     5    2    3 1   
     6    3    4 ar  
     7    3   19 ar  
     8    4    5 ar  
     9    4   23 1   
    10    5    6 1   
    11    5   13 ar  
    12    6    7 1   
    13    6   24 1   
    14    7    8 1   
    15    7    9 1   
    16    7   25 1   
    17    8   26 1   
    18    8   27 1   
    19    8   28 1   
    20    9   10 1   
    21    9   29 1   
    22    9   30 1   
    23   10   11 1   
    24   10   31 1   
    25   10   32 1   
    26   11   12 1   
    27   11   33 1   
    28   11   34 1   
    29   12   35 1   
    30   12   36 1   
    31   13   14 ar  
    32   13   18 ar  
    33   14   15 ar  
    34   15   16 ar  
    35   15   37 1   
    36   16   17 ar  
    37   16   38 1   
    38   17   18 ar  
    39   17   39 1   
    40   18   19 ar  
    41   19   40 1   
@<TRIPOS>SUBSTRUCTURE
     1 1PQ         1 TEMP              0 ****  ****    0 ROOT
