@<TRIPOS>MOLECULE
1PS
   24    20     1     0     0
SMALL
bcc


@<TRIPOS>ATOM
      1 N1          0.4190    0.7760    0.8180 n1        1 1PS     -0.532300
      2 C1          1.7810    0.8200    0.8480 c1        1 1PS     -0.006250
      3 C2          2.4500    0.7810    2.0610 c1        1 1PS     -0.006250
      4 C3         -0.2860    0.6930    1.9810 c1        1 1PS      0.359300
      5 C4          0.3810    0.6530    3.1960 c1        1 1PS     -0.006250
      6 C5          1.7440    0.6980    3.2260 c1        1 1PS     -0.006250
      7 C6         -0.2690    0.8950   -0.4220 c3        1 1PS      0.178100
      8 C7         -0.5690   -0.4850   -0.9670 c3        1 1PS     -0.029400
      9 C8         -1.3810   -0.3590   -2.2390 c3        1 1PS     -0.350100
     10 S1         -1.4310   -1.9270   -3.0660 s4        1 1PS      1.649500
     11 O1         -0.0300   -2.4090   -3.3570 os        1 1PS     -1.097000
     12 O2         -2.2590   -1.8560   -4.3270 o         1 1PS     -0.662900
     13 O3         -2.2050   -2.9460   -2.2640 o         1 1PS     -0.662900
     14 H1          2.2850    0.8790    0.0140 ha        1 1PS      0.139750
     15 H2          3.4250    0.8120    2.0820 ha        1 1PS      0.139750
     16 H3         -1.2620    0.6610    1.9590 ha        1 1PS      0.126500
     17 H4         -0.1240    0.5940    4.0290 ha        1 1PS      0.139750
     18 H5          2.2150    0.6700    4.0810 ha        1 1PS      0.139750
     19 H61         0.2910    1.3830   -1.0600 h1        1 1PS      0.100700
     20 H62        -1.1070    1.3820   -0.2850 h1        1 1PS      0.100700
     21 H71        -1.0780   -0.9930   -0.3040 hc        1 1PS      0.052200
     22 H72         0.2700   -0.9490   -1.1600 hc        1 1PS      0.052200
     23 H81        -0.9680    0.3060   -2.8250 h1        1 1PS      0.090700
     24 H82        -2.2920   -0.0780   -2.0180 h1        1 1PS      0.090700
@<TRIPOS>BOND
     1    1    4 3   
     2    1    7 1   
     3    2    3 3   
     4    2   14 1   
     5    3   15 1   
     6    4   16 1   
     7    5    6 3   
     8    5   17 1   
     9    6   18 1   
    10    7    8 1   
    11    7   19 1   
    12    7   20 1   
    13    8    9 1   
    14    8   21 1   
    15    8   22 1   
    16    9   10 1   
    17    9   23 1   
    18    9   24 1   
    19   10   12 1   
    20   10   13 1   
@<TRIPOS>SUBSTRUCTURE
     1 1PS         1 TEMP              0 ****  ****    0 ROOT
