@<TRIPOS>MOLECULE
1PS
   24    24     1     0     0
SMALL
bcc


@<TRIPOS>ATOM
      1 N1         -0.2470   -0.0500   -0.2760 na        1 1PS      0.043900
      2 C1          1.0170   -0.4290   -0.6170 ca        1 1PS      0.007200
      3 C2          1.9660   -0.7470    0.3790 ca        1 1PS     -0.157000
      4 C3         -0.6110   -0.0130    1.0490 ca        1 1PS      0.007200
      5 C4          0.2940   -0.3230    2.0580 ca        1 1PS     -0.157000
      6 C5          1.6050   -0.7050    1.7170 ca        1 1PS     -0.028000
      7 C6         -1.2650    0.2100   -1.3060 c3        1 1PS     -0.023700
      8 C7         -2.3010   -0.9130   -1.4570 c3        1 1PS     -0.029400
      9 C8         -2.0390   -1.7810   -2.6540 c3        1 1PS     -0.315600
     10 S1         -0.3940   -2.4460   -2.7880 s6        1 1PS      1.429800
     11 O1         -0.5050   -3.5830   -3.5890 o         1 1PS     -0.745867
     12 O2          0.0270   -2.6460   -1.4400 o         1 1PS     -0.745867
     13 O3          0.3510   -1.3460   -3.3170 o         1 1PS     -0.745867
     14 H1          1.2640   -0.5050   -1.7110 h4        1 1PS      0.227000
     15 H2          2.9710   -1.0630    0.0560 ha        1 1PS      0.177500
     16 H3         -1.6590    0.2680    1.2680 h4        1 1PS      0.227000
     17 H4         -0.0280   -0.2820    3.1080 ha        1 1PS      0.177500
     18 H5          2.3240   -0.9730    2.5070 ha        1 1PS      0.164000
     19 H61        -0.7290    0.3620   -2.2930 h1        1 1PS      0.100700
     20 H62        -1.7800    1.1680   -1.0150 h1        1 1PS      0.100700
     21 H71        -2.3340   -1.5520   -0.5340 hc        1 1PS      0.052200
     22 H72        -3.3050   -0.4200   -1.5570 hc        1 1PS      0.052200
     23 H81        -2.2480   -1.2010   -3.5880 h1        1 1PS      0.090700
     24 H82        -2.7670   -2.6310   -2.6430 h1        1 1PS      0.090700
@<TRIPOS>BOND
     1    1    2 1   
     2    1    4 2   
     3    1    7 1   
     4    2    3 ar  
     5    2   14 1   
     6    3    6 ar  
     7    3   15 1   
     8    4    5 ar  
     9    4   16 1   
    10    5    6 ar  
    11    5   17 1   
    12    6   18 1   
    13    7    8 1   
    14    7   19 1   
    15    7   20 1   
    16    8    9 1   
    17    8   21 1   
    18    8   22 1   
    19    9   10 1   
    20    9   23 1   
    21    9   24 1   
    22   10   11 1   
    23   10   12 1   
    24   10   13 1   
@<TRIPOS>SUBSTRUCTURE
     1 1PS         1 TEMP              0 ****  ****    0 ROOT
