@<TRIPOS>MOLECULE
1PS
   24    24     1     0     0
SMALL
bcc


@<TRIPOS>ATOM
      1 N1          1.8510   -0.1030    0.6800 na        1 1PS      0.043900
      2 C1          1.9560    1.1750    0.2190 ca        1 1PS      0.007200
      3 C2          2.9580    1.5240   -0.7130 ca        1 1PS     -0.157000
      4 C3          2.7070   -1.0690    0.2060 ca        1 1PS      0.007200
      5 C4          3.7040   -0.7650   -0.7150 ca        1 1PS     -0.157000
      6 C5          3.8270    0.5530   -1.1900 ca        1 1PS     -0.028000
      7 C6          0.7660   -0.4940    1.5930 c3        1 1PS     -0.023700
      8 C7         -0.3560   -1.2970    0.9190 c3        1 1PS     -0.029400
      9 C8         -1.5730   -0.4630    0.6390 c3        1 1PS     -0.315600
     10 S1         -1.2910    1.0530   -0.2480 s6        1 1PS      1.429800
     11 O1         -2.5060    1.3740   -0.8530 o         1 1PS     -0.745867
     12 O2         -0.1950    0.7660   -1.1150 o         1 1PS     -0.745867
     13 O3         -0.8170    1.9340    0.7730 o         1 1PS     -0.745867
     14 H1          1.2040    1.9270    0.5830 h4        1 1PS      0.227000
     15 H2          2.9950    2.5650   -1.0700 ha        1 1PS      0.177500
     16 H3          2.5560   -2.0970    0.5880 h4        1 1PS      0.227000
     17 H4          4.3730   -1.5600   -1.0730 ha        1 1PS      0.177500
     18 H5          4.5990    0.8010   -1.9350 ha        1 1PS      0.164000
     19 H61         0.3320    0.4520    2.0430 h1        1 1PS      0.100700
     20 H62         1.2380   -1.1090    2.4100 h1        1 1PS      0.100700
     21 H71        -0.6220   -2.1360    1.6170 hc        1 1PS      0.052200
     22 H72         0.0040   -1.7620   -0.0370 hc        1 1PS      0.052200
     23 H81        -2.0770   -0.2030    1.6040 h1        1 1PS      0.090700
     24 H82        -2.3040   -1.0830    0.0610 h1        1 1PS      0.090700
@<TRIPOS>BOND
     1    1    2 1   
     2    1    4 2   
     3    1    7 1   
     4    2    3 ar  
     5    2   14 1   
     6    3    6 ar  
     7    3   15 1   
     8    4    5 ar  
     9    4   16 1   
    10    5    6 ar  
    11    5   17 1   
    12    6   18 1   
    13    7    8 1   
    14    7   19 1   
    15    7   20 1   
    16    8    9 1   
    17    8   21 1   
    18    8   22 1   
    19    9   10 1   
    20    9   23 1   
    21    9   24 1   
    22   10   11 1   
    23   10   12 1   
    24   10   13 1   
@<TRIPOS>SUBSTRUCTURE
     1 1PS         1 TEMP              0 ****  ****    0 ROOT
