@<TRIPOS>MOLECULE
1PU
   39    42     1     0     0
SMALL
bcc


@<TRIPOS>ATOM
      1 C1         -0.1180   -0.2480    0.1530 ca        1 1PU     -0.136300
      2 C2          1.2440    0.2690   -0.2450 c3        1 1PU      0.089000
      3 C3         -0.2640   -1.5710   -0.3290 ca        1 1PU     -0.139600
      4 C7          1.0210   -1.9800   -0.9740 c         1 1PU      0.682100
      5 C6          2.1730    0.6270    0.9300 c3        1 1PU     -0.095400
      6 C4         -1.1660    0.3890    0.8280 ca        1 1PU      0.077600
      7 N5          1.8840   -0.8320   -1.0240 n         1 1PU     -0.392800
      8 C8         -1.4320   -2.2840   -0.1480 ca        1 1PU     -0.076000
      9 C9         -2.3660   -0.3490    1.0070 ca        1 1PU     -0.112000
     10 N10        -1.0120    1.7270    1.2350 n         1 1PU     -0.461100
     11 C11         3.2620   -0.9820   -0.5810 c3        1 1PU      0.051000
     12 C12         3.4600   -0.1650    0.7100 c3        1 1PU     -0.100400
     13 O13         1.3110   -3.0920   -1.4270 o         1 1PU     -0.574500
     14 C14        -2.4830   -1.6490    0.5300 ca        1 1PU     -0.123000
     15 C15        -1.6790    2.2840    2.3470 c         1 1PU      0.766100
     16 N16        -1.2200    3.5520    2.7890 n         1 1PU     -0.530400
     17 O17        -2.6100    1.6840    2.9260 o         1 1PU     -0.606100
     18 C18        -2.0130    4.3390    3.6680 ca        1 1PU      0.506200
     19 C19        -2.6550    3.7540    4.7940 ca        1 1PU     -0.227300
     20 N20        -2.0680    5.6880    3.4180 nb        1 1PU     -0.710000
     21 C21        -3.3530    4.5850    5.6690 ca        1 1PU     -0.080000
     22 C22        -2.7430    6.4510    4.2890 ca        1 1PU      0.418200
     23 C23        -3.4040    5.9560    5.4280 ca        1 1PU     -0.262300
     24 H2          1.1330    1.1490   -0.9400 h1        1 1PU      0.082700
     25 H61         2.3760    1.7260    0.9360 hc        1 1PU      0.054700
     26 H62         1.6990    0.3570    1.9050 hc        1 1PU      0.054700
     27 H8         -1.5330   -3.3130   -0.5230 ha        1 1PU      0.157000
     28 H9         -3.2170    0.1100    1.5380 ha        1 1PU      0.175000
     29 H10        -0.1500    2.1430    0.9500 hn        1 1PU      0.314500
     30 H111        3.5200   -2.0640   -0.4260 h1        1 1PU      0.066700
     31 H112        3.9210   -0.5790   -1.3990 h1        1 1PU      0.066700
     32 H121        3.6570   -0.8450    1.5750 hc        1 1PU      0.055700
     33 H122        4.3370    0.5180    0.6040 hc        1 1PU      0.055700
     34 H14        -3.4280   -2.1930    0.6870 ha        1 1PU      0.143000
     35 H16        -0.6700    4.0830    2.1430 hn        1 1PU      0.317500
     36 H19        -2.6150    2.6670    4.9620 ha        1 1PU      0.175000
     37 H21        -3.8580    4.1520    6.5460 ha        1 1PU      0.144000
     38 H22        -2.7560    7.5310    4.0500 h4        1 1PU      0.024100
     39 H23        -3.9430    6.6370    6.0980 ha        1 1PU      0.147000
@<TRIPOS>BOND
     1    1    2 1   
     2    1    3 ar  
     3    1    6 ar  
     4    2    5 1   
     5    2    7 1   
     6    2   24 1   
     7    3    4 1   
     8    3    8 ar  
     9    4    7 1   
    10    4   13 2   
    11    5   12 1   
    12    5   25 1   
    13    5   26 1   
    14    6    9 ar  
    15    6   10 1   
    16    7   11 1   
    17    8   14 ar  
    18    8   27 1   
    19    9   14 ar  
    20    9   28 1   
    21   10   15 1   
    22   10   29 1   
    23   11   12 1   
    24   11   30 1   
    25   11   31 1   
    26   12   32 1   
    27   12   33 1   
    28   14   34 1   
    29   15   16 1   
    30   15   17 2   
    31   16   18 1   
    32   16   35 1   
    33   18   19 ar  
    34   18   20 ar  
    35   19   21 ar  
    36   19   36 1   
    37   20   22 ar  
    38   21   23 ar  
    39   21   37 1   
    40   22   23 ar  
    41   22   38 1   
    42   23   39 1   
@<TRIPOS>SUBSTRUCTURE
     1 1PU         1 TEMP              0 ****  ****    0 ROOT
