@<TRIPOS>MOLECULE
1PU
   39    37     1     0     0
SMALL
bcc


@<TRIPOS>ATOM
      1 C1          0.2570   -1.9730    0.1710 c1        1 1PU     -0.127000
      2 C2          1.7720   -1.9990    0.1660 c2        1 1PU      0.005000
      3 C3         -0.2060   -3.2560   -0.2580 c2        1 1PU     -0.120000
      4 C7          1.0740   -4.1680   -0.5720 c2        1 1PU      0.319000
      5 C6          2.2530   -1.8080    1.4080 c3        1 1PU     -0.176000
      6 C4         -0.6550   -0.9840    0.5090 c1        1 1PU      0.082000
      7 N5          2.2320   -3.4130   -0.2720 n         1 1PU     -0.250000
      8 C8         -1.5670   -3.5100   -0.3350 c1        1 1PU     -0.074000
      9 C9         -2.0280   -1.2430    0.4310 c1        1 1PU     -0.119250
     10 N10        -0.1220    0.3300    0.4710 n         1 1PU     -0.315000
     11 C11         3.4420   -3.5760    0.2260 c3        1 1PU     -0.065000
     12 C12         3.4870   -2.6710    1.4870 c3        1 1PU     -0.179000
     13 O13         1.0530   -5.2960   -1.0240 o         1 1PU     -0.299000
     14 C14        -2.4860   -2.5110    0.0070 c1        1 1PU     -0.119250
     15 C15        -0.9160    1.4040   -0.0080 c2        1 1PU      0.393000
     16 N16        -0.3910    2.7220   -0.0240 n         1 1PU     -0.297000
     17 O17        -2.0510    1.1980   -0.3860 o         1 1PU     -0.366000
     18 C18        -1.1930    3.7990   -0.4810 c2        1 1PU      0.099000
     19 C19        -0.6220    5.0430   -0.6990 c2        1 1PU     -0.162000
     20 N20        -2.5290    3.6180   -0.6750 n1        1 1PU     -0.185000
     21 C21        -1.3990    6.0880   -1.1090 c1        1 1PU     -0.080000
     22 C22        -3.3060    4.6600   -1.0850 c1        1 1PU     -0.119250
     23 C23        -2.7380    5.9050   -1.3040 c1        1 1PU     -0.119250
     24 H2          2.1250   -1.3210   -0.4440 h4        1 1PU      0.124000
     25 H61         2.4870   -0.8660    1.5420 hc        1 1PU      0.093500
     26 H62         1.5940   -2.0940    2.0750 hc        1 1PU      0.093500
     27 H8         -1.8840   -4.3850   -0.6280 ha        1 1PU      0.157000
     28 H9         -2.6700   -0.5470    0.6690 ha        1 1PU      0.156750
     29 H10         0.7370    0.4810    0.7370 hn        1 1PU      0.227000
     30 H111        4.1180   -3.2890   -0.4220 h1        1 1PU      0.106000
     31 H112        3.5840   -4.5130    0.4750 h1        1 1PU      0.106000
     32 H121        3.4650   -3.2190    2.2970 hc        1 1PU      0.094500
     33 H122        4.2910   -2.1140    1.4750 hc        1 1PU      0.094500
     34 H14        -3.4440   -2.6900   -0.0470 ha        1 1PU      0.156750
     35 H16         0.4580    2.8780    0.2720 hn        1 1PU      0.230000
     36 H19         0.3350    5.1720   -0.5600 ha        1 1PU      0.176000
     37 H21        -0.9980    6.9640   -1.2630 ha        1 1PU      0.144000
     38 H22        -4.2640    4.5300   -1.2240 ha        1 1PU      0.156750
     39 H23        -3.2950    6.6520   -1.5970 ha        1 1PU      0.156750
@<TRIPOS>BOND
     1    1    3 1   
     2    1    6 1   
     3    2    5 1   
     4    2    7 1   
     5    2   24 1   
     6    3    4 1   
     7    3    8 1   
     8    4    7 1   
     9    4   13 1   
    10    5   12 1   
    11    5   25 1   
    12    5   26 1   
    13    6   10 1   
    14    7   11 1   
    15    8   27 1   
    16    9   14 1   
    17    9   28 1   
    18   10   15 1   
    19   10   29 1   
    20   11   12 1   
    21   11   30 1   
    22   11   31 1   
    23   12   32 1   
    24   12   33 1   
    25   14   34 1   
    26   15   16 1   
    27   15   17 1   
    28   16   18 1   
    29   16   35 1   
    30   18   19 1   
    31   18   20 1   
    32   19   21 1   
    33   19   36 1   
    34   21   37 1   
    35   22   23 1   
    36   22   38 1   
    37   23   39 1   
@<TRIPOS>SUBSTRUCTURE
     1 1PU         1 TEMP              0 ****  ****    0 ROOT
