@<TRIPOS>MOLECULE
1PU
   39    42     1     0     0
SMALL
bcc


@<TRIPOS>ATOM
      1 C1         -0.4010    0.0310   -2.0300 ca        1 1PU     -0.136300
      2 C2          0.7860    0.8150   -2.5390 c3        1 1PU      0.089000
      3 C3         -1.0740   -0.5490   -3.1310 ca        1 1PU     -0.139600
      4 C7         -0.3010   -0.2340   -4.3720 c         1 1PU      0.682100
      5 C6          2.1560    0.3150   -2.0460 c3        1 1PU     -0.095400
      6 C4         -0.8920   -0.1230   -0.7270 ca        1 1PU      0.077600
      7 N5          0.7500    0.6820   -4.0250 n         1 1PU     -0.392800
      8 C8         -2.2260   -1.2920   -2.9680 ca        1 1PU     -0.076000
      9 C9         -2.0800   -0.8850   -0.5680 ca        1 1PU     -0.112000
     10 N10        -0.2360    0.5220    0.3380 n         1 1PU     -0.462100
     11 C11         2.0960    0.4050   -4.5050 c3        1 1PU      0.051000
     12 C12         2.9910    0.0610   -3.2980 c3        1 1PU     -0.100400
     13 O13        -0.5220   -0.6450   -5.5150 o         1 1PU     -0.574500
     14 C14        -2.7190   -1.4500   -1.6640 ca        1 1PU     -0.123000
     15 C15        -0.2440    0.0400    1.6640 c         1 1PU      0.766100
     16 N16         0.6740    0.6430    2.5610 n         1 1PU     -0.530400
     17 O17        -1.0050   -0.8840    2.0250 o         1 1PU     -0.606100
     18 C18         0.5270    0.4740    3.9650 ca        1 1PU      0.506200
     19 C19         0.2360   -0.8020    4.5210 ca        1 1PU     -0.227300
     20 N20         0.7490    1.5770    4.7520 nb        1 1PU     -0.710000
     21 C21         0.1830   -0.9280    5.9080 ca        1 1PU     -0.080000
     22 C22         0.6970    1.4100    6.0800 ca        1 1PU      0.418200
     23 C23         0.4170    0.1850    6.7130 ca        1 1PU     -0.262300
     24 H2          0.6570    1.9080   -2.2980 h1        1 1PU      0.082700
     25 H61         2.0420   -0.6200   -1.4450 hc        1 1PU      0.054700
     26 H62         2.6340    1.0880   -1.3960 hc        1 1PU      0.054700
     27 H8         -2.7390   -1.7410   -3.8310 ha        1 1PU      0.157000
     28 H9         -2.5010   -1.0380    0.4410 ha        1 1PU      0.175000
     29 H10         0.5260    1.1030    0.0560 hn        1 1PU      0.314500
     30 H111        2.0910   -0.4250   -5.2620 h1        1 1PU      0.066700
     31 H112        2.4690    1.3370   -5.0110 h1        1 1PU      0.066700
     32 H121        3.3170   -1.0060   -3.3470 hc        1 1PU      0.055700
     33 H122        3.9080    0.7000   -3.3050 hc        1 1PU      0.055700
     34 H14        -3.6380   -2.0350   -1.5040 ha        1 1PU      0.143000
     35 H16         1.0550    1.5280    2.2910 hn        1 1PU      0.317500
     36 H19         0.0410   -1.6670    3.8690 ha        1 1PU      0.175000
     37 H21        -0.0430   -1.9070    6.3580 ha        1 1PU      0.144000
     38 H22         0.8860    2.3240    6.6740 h4        1 1PU      0.024100
     39 H23         0.3850    0.1180    7.8070 ha        1 1PU      0.147000
@<TRIPOS>BOND
     1    1    2 1   
     2    1    3 ar  
     3    1    6 ar  
     4    2    5 1   
     5    2    7 1   
     6    2   24 1   
     7    3    4 1   
     8    3    8 ar  
     9    4    7 1   
    10    4   13 2   
    11    5   12 1   
    12    5   25 1   
    13    5   26 1   
    14    6    9 ar  
    15    6   10 1   
    16    7   11 1   
    17    8   14 ar  
    18    8   27 1   
    19    9   14 ar  
    20    9   28 1   
    21   10   15 1   
    22   10   29 1   
    23   11   12 1   
    24   11   30 1   
    25   11   31 1   
    26   12   32 1   
    27   12   33 1   
    28   14   34 1   
    29   15   16 1   
    30   15   17 2   
    31   16   18 1   
    32   16   35 1   
    33   18   19 ar  
    34   18   20 ar  
    35   19   21 ar  
    36   19   36 1   
    37   20   22 ar  
    38   21   23 ar  
    39   21   37 1   
    40   22   23 ar  
    41   22   38 1   
    42   23   39 1   
@<TRIPOS>SUBSTRUCTURE
     1 1PU         1 TEMP              0 ****  ****    0 ROOT
