@<TRIPOS>MOLECULE
1PU
   41    44     1     0     0
SMALL
bcc


@<TRIPOS>ATOM
      1 C1         -0.2040    0.0590    0.2280 ca        1 1PU     -0.032300
      2 C2          1.2800    0.2800    0.0280 c3        1 1PU      0.061000
      3 C3         -0.5950   -1.0970   -0.4900 ca        1 1PU     -0.136600
      4 C7          0.6350   -1.7010   -1.1170 c         1 1PU      0.673100
      5 C6          2.1320    0.2080    1.3100 c3        1 1PU     -0.100400
      6 C4         -1.1810    0.8000    0.8930 ca        1 1PU     -0.090400
      7 N5          1.7290   -0.8000   -0.8920 n         1 1PU     -0.365800
      8 C8         -1.9090   -1.5280   -0.5310 ca        1 1PU      0.029000
      9 C9         -2.5330    0.3660    0.8720 ca        1 1PU     -0.082000
     10 N10        -0.8260    2.0480    1.5710 n4        1 1PU     -0.474200
     11 C11         2.9910   -1.3430   -0.3980 c3        1 1PU      0.043000
     12 C12         3.2060   -0.8470    1.0430 c3        1 1PU     -0.100400
     13 O13         0.6800   -2.7510   -1.7500 o         1 1PU     -0.483500
     14 C14        -2.8780   -0.7740    0.1630 ca        1 1PU     -0.098000
     15 C15        -0.6340    1.8670    3.0450 c         1 1PU      0.485100
     16 N16        -0.4280    3.1000    3.8910 n4        1 1PU     -0.632500
     17 O17        -0.6300    0.7850    3.6040 o         1 1PU     -0.284100
     18 C18        -1.6010    4.0130    3.9220 ca        1 1PU      0.408200
     19 C19        -1.9500    4.6370    5.1330 ca        1 1PU     -0.151300
     20 N20        -2.2550    4.2100    2.7360 nb        1 1PU     -0.750000
     21 C21        -3.0310    5.5390    5.0990 ca        1 1PU     -0.050000
     22 C22        -3.2760    5.0720    2.7390 ca        1 1PU      0.468200
     23 C23        -3.6990    5.7680    3.9030 ca        1 1PU     -0.150300
     24 H2          1.4500    1.2570   -0.5100 h1        1 1PU      0.095700
     25 H61         1.5060   -0.0760    2.1910 hc        1 1PU      0.038700
     26 H62         2.6020    1.2020    1.5120 hc        1 1PU      0.038700
     27 H8         -2.1910   -2.4380   -1.0930 ha        1 1PU      0.210000
     28 H9         -3.3170    0.9290    1.4050 ha        1 1PU      0.159000
     29 H10        -1.5910    2.7480    1.4110 hn        1 1PU      0.507800
     30 H111        2.9970   -2.4660   -0.4570 h1        1 1PU      0.099200
     31 H112        3.8030   -0.9540   -1.0760 h1        1 1PU      0.099200
     32 H121        4.2310   -0.4130    1.1510 hc        1 1PU      0.082200
     33 H122        3.1160   -1.6940    1.7670 hc        1 1PU      0.082200
     34 H14        -3.9340   -1.1010    0.1390 ha        1 1PU      0.194000
     35 H16         0.3930    3.6320    3.5600 hn        1 1PU      0.500300
     36 H19        -1.4170    4.4550    6.0810 ha        1 1PU      0.191000
     37 H21        -3.3340    6.0560    6.0300 ha        1 1PU      0.212000
     38 H22        -3.7900    5.2220    1.7650 h4        1 1PU      0.082100
     39 H23        -4.5490    6.4730    3.8410 ha        1 1PU      0.215000
     40 H102        0.0560    2.4010    1.1620 hn        1 1PU      0.507800
     41 H162       -0.2460    2.7790    4.8630 hn        1 1PU      0.500300
@<TRIPOS>BOND
     1    1    2 1   
     2    1    3 ar  
     3    1    6 ar  
     4    2    5 1   
     5    2    7 1   
     6    2   24 1   
     7    3    4 1   
     8    3    8 ar  
     9    4    7 1   
    10    4   13 2   
    11    5   12 1   
    12    5   25 1   
    13    5   26 1   
    14    6    9 ar  
    15    6   10 1   
    16    7   11 1   
    17    8   14 ar  
    18    8   27 1   
    19    9   14 ar  
    20    9   28 1   
    21   10   15 1   
    22   10   29 1   
    23   10   40 1   
    24   11   12 1   
    25   11   30 1   
    26   11   31 1   
    27   12   32 1   
    28   12   33 1   
    29   14   34 1   
    30   15   16 1   
    31   15   17 2   
    32   16   18 1   
    33   16   35 1   
    34   16   41 1   
    35   18   19 ar  
    36   18   20 ar  
    37   19   21 ar  
    38   19   36 1   
    39   20   22 ar  
    40   21   23 ar  
    41   21   37 1   
    42   22   23 ar  
    43   22   38 1   
    44   23   39 1   
@<TRIPOS>SUBSTRUCTURE
     1 1PU         1 TEMP              0 ****  ****    0 ROOT
