@<TRIPOS>MOLECULE
1PU
   39    42     1     0     0
SMALL
bcc


@<TRIPOS>ATOM
      1 C1         -0.1200   -0.2570    0.1610 ca        1 1PU     -0.136300
      2 C2          1.2360    0.2670   -0.2510 c3        1 1PU      0.089000
      3 C3         -0.2620   -1.5830   -0.3110 ca        1 1PU     -0.139600
      4 C7          1.0210   -1.9890   -0.9640 c         1 1PU      0.682100
      5 C6          2.1710    0.6380    0.9140 c3        1 1PU     -0.095400
      6 C4         -1.1670    0.3790    0.8390 ca        1 1PU      0.077600
      7 N5          1.8760   -0.8360   -1.0280 n         1 1PU     -0.392800
      8 C8         -1.4240   -2.3020   -0.1170 ca        1 1PU     -0.076000
      9 C9         -2.3610   -0.3650    1.0320 ca        1 1PU     -0.112000
     10 N10        -1.0180    1.7200    1.2370 ns        1 1PU     -0.461100
     11 C11         3.2590   -0.9740   -0.5940 c3        1 1PU      0.051000
     12 C12         3.4610   -0.1470    0.6900 c3        1 1PU     -0.100400
     13 O13         1.3140   -3.1020   -1.4110 o         1 1PU     -0.574500
     14 C14        -2.4740   -1.6680    0.5650 ca        1 1PU     -0.123000
     15 C15        -1.6800    2.2810    2.3500 c         1 1PU      0.766100
     16 N16        -1.2250    3.5540    2.7810 ns        1 1PU     -0.530400
     17 O17        -2.6040    1.6810    2.9380 o         1 1PU     -0.606100
     18 C18        -2.0160    4.3420    3.6600 ca        1 1PU      0.506200
     19 C19        -2.6470    3.7620    4.7930 ca        1 1PU     -0.227300
     20 N20        -2.0790    5.6900    3.4030 nb        1 1PU     -0.710000
     21 C21        -3.3440    4.5950    5.6680 ca        1 1PU     -0.080000
     22 C22        -2.7510    6.4550    4.2730 ca        1 1PU      0.418200
     23 C23        -3.4030    5.9640    5.4180 ca        1 1PU     -0.262300
     24 H2          1.1150    1.1410   -0.9510 h1        1 1PU      0.082700
     25 H61         1.7060    0.3710    1.8950 hc        1 1PU      0.054700
     26 H62         2.3670    1.7380    0.9120 hc        1 1PU      0.054700
     27 H8         -1.5220   -3.3340   -0.4850 ha        1 1PU      0.157000
     28 H9         -3.2110    0.0920    1.5670 ha        1 1PU      0.175000
     29 H10        -0.1610    2.1400    0.9430 hn        1 1PU      0.314500
     30 H111        3.9090   -0.5740   -1.4200 h1        1 1PU      0.066700
     31 H112        3.5240   -2.0540   -0.4340 h1        1 1PU      0.066700
     32 H121        4.3340    0.5390    0.5730 hc        1 1PU      0.055700
     33 H122        3.6700   -0.8210    1.5580 hc        1 1PU      0.055700
     34 H14        -3.4140   -2.2170    0.7320 ha        1 1PU      0.143000
     35 H16        -0.6810    4.0840    2.1280 hn        1 1PU      0.317500
     36 H19        -2.6020    2.6760    4.9670 ha        1 1PU      0.175000
     37 H21        -3.8420    4.1640    6.5500 ha        1 1PU      0.144000
     38 H22        -2.7710    7.5330    4.0280 h4        1 1PU      0.024100
     39 H23        -3.9410    6.6460    6.0880 ha        1 1PU      0.147000
@<TRIPOS>BOND
     1    1    2 1   
     2    1    3 ar  
     3    1    6 ar  
     4    2    5 1   
     5    2    7 1   
     6    2   24 1   
     7    3    4 1   
     8    3    8 ar  
     9    4    7 1   
    10    4   13 2   
    11    5   12 1   
    12    5   25 1   
    13    5   26 1   
    14    6    9 ar  
    15    6   10 1   
    16    7   11 1   
    17    8   14 ar  
    18    8   27 1   
    19    9   14 ar  
    20    9   28 1   
    21   10   15 1   
    22   10   29 1   
    23   11   12 1   
    24   11   30 1   
    25   11   31 1   
    26   12   32 1   
    27   12   33 1   
    28   14   34 1   
    29   15   16 1   
    30   15   17 2   
    31   16   18 1   
    32   16   35 1   
    33   18   19 ar  
    34   18   20 ar  
    35   19   21 ar  
    36   19   36 1   
    37   20   22 ar  
    38   21   23 ar  
    39   21   37 1   
    40   22   23 ar  
    41   22   38 1   
    42   23   39 1   
@<TRIPOS>SUBSTRUCTURE
     1 1PU         1 TEMP              0 ****  ****    0 ROOT
