@<TRIPOS>MOLECULE
1PW
   67    66     1     0     0
SMALL
bcc


@<TRIPOS>ATOM
      1 CAA         0.2560   -1.9400    0.6650 c3        1 1PW     -0.092100
      2 CAJ         1.7460   -1.7310    0.5780 c3        1 1PW     -0.080400
      3 CAL         2.2930   -1.0960    1.8380 c3        1 1PW     -0.079400
      4 CAN         3.7890   -0.8880    1.7460 c3        1 1PW     -0.079400
      5 CAP         4.3350   -0.2550    3.0080 c3        1 1PW     -0.078400
      6 CAR         5.8320   -0.0480    2.9160 c3        1 1PW     -0.079400
      7 CAT         6.3790    0.5850    4.1780 c3        1 1PW     -0.078400
      8 CAU         7.8750    0.7900    4.0860 c3        1 1PW     -0.079400
      9 CAS         8.4230    1.4220    5.3480 c3        1 1PW     -0.078400
     10 CAQ         9.9200    1.6260    5.2570 c3        1 1PW     -0.079400
     11 CAO        10.4670    2.2560    6.5190 c3        1 1PW     -0.075400
     12 CAM        11.9640    2.4640    6.4240 c3        1 1PW     -0.081400
     13 CAK        12.5360    3.0650    7.6950 c3        1 1PW     -0.041200
     14 CAH        12.5160    2.1160    8.8340 c2        1 1PW     -0.192200
     15 CAI        13.4750    1.2610    9.1960 c2        1 1PW     -0.153200
     16 CAZ        14.7980    0.9940    8.5540 c3        1 1PW      0.167300
     17 OAE        14.7190    0.9380    7.1380 oh        1 1PW     -0.602800
     18 CBA        15.8580    2.0310    9.0020 c3        1 1PW      0.037700
     19 NAW        15.9520    2.2110   10.4370 n         1 1PW     -0.522900
     20 CAY        16.0560    1.1470   11.3300 c         1 1PW      0.654100
     21 CAB        16.7650    1.4320   12.6350 c3        1 1PW     -0.185100
     22 OAC        15.5300    0.0330   11.1240 o         1 1PW     -0.641100
     23 CAV        17.2230    1.6870    8.3380 c3        1 1PW      0.155400
     24 OAX        18.0310    2.8190    8.3340 os        1 1PW     -0.580200
     25 PBB        19.4470    2.7560    9.1890 p5        1 1PW      1.422800
     26 OAF        18.7630    3.1700   10.6290 oh        1 1PW     -0.800400
     27 OAG        20.2390    3.9500    8.8440 o         1 1PW     -0.825000
     28 OAD        19.8790    1.3490    9.2400 o         1 1PW     -0.825000
     29 H1         -0.2710   -0.9670    0.8130 hc        1 1PW      0.031033
     30 H2         -0.1260   -2.4090   -0.2740 hc        1 1PW      0.031033
     31 H3          0.0010   -2.6090    1.5220 hc        1 1PW      0.031033
     32 H4          2.2550   -2.7160    0.4050 hc        1 1PW      0.038200
     33 H5          1.9840   -1.0780   -0.3030 hc        1 1PW      0.038200
     34 H6          1.7860   -0.1100    2.0120 hc        1 1PW      0.038700
     35 H7          2.0570   -1.7480    2.7200 hc        1 1PW      0.038700
     36 H8          4.0250   -0.2350    0.8650 hc        1 1PW      0.039200
     37 H9          4.2960   -1.8740    1.5720 hc        1 1PW      0.039200
     38 H10         4.0990   -0.9070    3.8890 hc        1 1PW      0.038700
     39 H11         3.8300    0.7320    3.1830 hc        1 1PW      0.038700
     40 H12         6.3380   -1.0340    2.7410 hc        1 1PW      0.039200
     41 H13         6.0690    0.6050    2.0350 hc        1 1PW      0.039200
     42 H14         5.8740    1.5710    4.3530 hc        1 1PW      0.038200
     43 H15         6.1420   -0.0680    5.0590 hc        1 1PW      0.038200
     44 H16         8.3810   -0.1970    3.9110 hc        1 1PW      0.039200
     45 H17         8.1120    1.4430    3.2050 hc        1 1PW      0.039200
     46 H18         7.9180    2.4090    5.5240 hc        1 1PW      0.037200
     47 H19         8.1860    0.7690    6.2290 hc        1 1PW      0.037200
     48 H20        10.1570    2.2800    4.3760 hc        1 1PW      0.040200
     49 H21        10.4240    0.6400    5.0810 hc        1 1PW      0.040200
     50 H22         9.9600    3.2410    6.6990 hc        1 1PW      0.038200
     51 H23        10.2390    1.6000    7.4000 hc        1 1PW      0.038200
     52 H24        12.1900    3.1460    5.5630 hc        1 1PW      0.046700
     53 H25        12.4700    1.4820    6.2200 hc        1 1PW      0.046700
     54 H26        11.9420    3.9790    7.9710 hc        1 1PW      0.038700
     55 H27        13.5860    3.4120    7.4970 hc        1 1PW      0.038700
     56 H28        11.5890    2.1580    9.4330 ha        1 1PW      0.104000
     57 H29        13.3370    0.6500   10.1100 ha        1 1PW      0.139000
     58 H30        15.1450   -0.0440    8.8410 h1        1 1PW      0.109700
     59 H31        14.6580    1.8410    6.8060 ho        1 1PW      0.395000
     60 H32        15.5420    3.0410    8.5940 h1        1 1PW      0.055700
     61 H33        18.9290    4.0800   10.8420 ho        1 1PW      0.426000
     62 H34        17.8000    1.8070   12.4240 hc        1 1PW      0.066367
     63 H35        16.2090    2.2030   13.2200 hc        1 1PW      0.066367
     64 H36        16.8240    0.4910   13.2310 hc        1 1PW      0.066367
     65 H37        17.7280    0.8330    8.8680 h1        1 1PW      0.053200
     66 H38        17.0170    1.3940    7.2690 h1        1 1PW      0.053200
     67 HAW2       16.5520    2.9850   10.6650 hn        1 1PW      0.320500
@<TRIPOS>BOND
     1    1    2 1   
     2    1   29 1   
     3    1   30 1   
     4    1   31 1   
     5    2    3 1   
     6    2   32 1   
     7    2   33 1   
     8    3    4 1   
     9    3   34 1   
    10    3   35 1   
    11    4    5 1   
    12    4   36 1   
    13    4   37 1   
    14    5    6 1   
    15    5   38 1   
    16    5   39 1   
    17    6    7 1   
    18    6   40 1   
    19    6   41 1   
    20    7    8 1   
    21    7   42 1   
    22    7   43 1   
    23    8    9 1   
    24    8   44 1   
    25    8   45 1   
    26    9   10 1   
    27    9   46 1   
    28    9   47 1   
    29   10   11 1   
    30   10   48 1   
    31   10   49 1   
    32   11   12 1   
    33   11   50 1   
    34   11   51 1   
    35   12   13 1   
    36   12   52 1   
    37   12   53 1   
    38   13   14 1   
    39   13   54 1   
    40   13   55 1   
    41   14   15 2   
    42   14   56 1   
    43   15   16 1   
    44   15   57 1   
    45   16   17 1   
    46   16   18 1   
    47   16   58 1   
    48   17   59 1   
    49   18   19 1   
    50   18   23 1   
    51   18   60 1   
    52   19   20 1   
    53   19   67 1   
    54   20   21 1   
    55   20   22 2   
    56   21   62 1   
    57   21   63 1   
    58   21   64 1   
    59   23   24 1   
    60   23   65 1   
    61   23   66 1   
    62   24   25 1   
    63   25   26 1   
    64   25   27 1   
    65   25   28 1   
    66   26   61 1   
@<TRIPOS>SUBSTRUCTURE
     1 1PW         1 TEMP              0 ****  ****    0 ROOT
