@<TRIPOS>MOLECULE
1PW
   67    66     1     0     0
SMALL
bcc


@<TRIPOS>ATOM
      1 CAA         0.1360   -1.8230    0.8210 c3        1 1PW     -0.092100
      2 CAJ         1.6420   -1.7970    0.7690 c3        1 1PW     -0.080400
      3 CAL         2.2240   -1.0000    1.9170 c3        1 1PW     -0.079400
      4 CAN         3.7360   -0.9770    1.8610 c3        1 1PW     -0.079400
      5 CAP         4.3170   -0.1790    3.0090 c3        1 1PW     -0.078400
      6 CAR         5.8300   -0.1570    2.9530 c3        1 1PW     -0.079400
      7 CAT         6.4110    0.6410    4.1010 c3        1 1PW     -0.078400
      8 CAU         7.9230    0.6640    4.0450 c3        1 1PW     -0.079400
      9 CAS         8.5050    1.4620    5.1930 c3        1 1PW     -0.078400
     10 CAQ        10.0170    1.4840    5.1370 c3        1 1PW     -0.079400
     11 CAO        10.5980    2.2800    6.2850 c3        1 1PW     -0.075400
     12 CAM        12.1100    2.3070    6.2240 c3        1 1PW     -0.081400
     13 CAK        12.7120    3.0740    7.3880 c3        1 1PW     -0.041200
     14 CAH        12.5570    2.3640    8.6800 c2        1 1PW     -0.192200
     15 CAI        13.4050    1.4980    9.2390 c2        1 1PW     -0.153200
     16 CAZ        14.7070    0.9790    8.7190 c3        1 1PW      0.167300
     17 OAE        14.6600    0.6640    7.3360 oh        1 1PW     -0.602800
     18 CBA        15.8630    1.9660    9.0180 c3        1 1PW      0.037700
     19 NAW        15.9380    2.4020   10.3980 n         1 1PW     -0.522900
     20 CAY        15.9000    1.5220   11.4750 c         1 1PW      0.654100
     21 CAB        16.6000    1.9720   12.7380 c3        1 1PW     -0.185100
     22 OAC        15.2580    0.4490   11.4540 o         1 1PW     -0.641100
     23 CAV        17.1980    1.3620    8.4930 c3        1 1PW      0.155400
     24 OAX        18.1270    2.3830    8.3180 os        1 1PW     -0.580200
     25 PBB        19.5040    2.3360    9.2360 p5        1 1PW      1.422800
     26 OAF        18.8310    3.0830   10.5400 oh        1 1PW     -0.800400
     27 OAG        20.4330    3.3550    8.7130 o         1 1PW     -0.825000
     28 OAD        19.7760    0.9270    9.5670 o         1 1PW     -0.825000
     29 H1         -0.2180   -2.2870    1.7730 hc        1 1PW      0.031033
     30 H2         -0.2780   -0.7880    0.7610 hc        1 1PW      0.031033
     31 H3         -0.2720   -2.4160   -0.0340 hc        1 1PW      0.031033
     32 H4          2.0380   -2.8470    0.8050 hc        1 1PW      0.038200
     33 H5          1.9780   -1.3510   -0.2040 hc        1 1PW      0.038200
     34 H6          1.8300    0.0500    1.8820 hc        1 1PW      0.038700
     35 H7          1.8900   -1.4460    2.8910 hc        1 1PW      0.038700
     36 H8          4.0700   -0.5320    0.8870 hc        1 1PW      0.039200
     37 H9          4.1300   -2.0270    1.8960 hc        1 1PW      0.039200
     38 H10         3.9840   -0.6250    3.9830 hc        1 1PW      0.038700
     39 H11         3.9240    0.8710    2.9740 hc        1 1PW      0.038700
     40 H12         6.2230   -1.2070    2.9880 hc        1 1PW      0.039200
     41 H13         6.1640    0.2890    1.9790 hc        1 1PW      0.039200
     42 H14         6.0170    1.6910    4.0660 hc        1 1PW      0.038200
     43 H15         6.0770    0.1960    5.0750 hc        1 1PW      0.038200
     44 H16         8.3170   -0.3860    4.0810 hc        1 1PW      0.039200
     45 H17         8.2570    1.1090    3.0710 hc        1 1PW      0.039200
     46 H18         8.1720    1.0160    6.1670 hc        1 1PW      0.037200
     47 H19         8.1110    2.5110    5.1580 hc        1 1PW      0.037200
     48 H20        10.4110    0.4340    5.1720 hc        1 1PW      0.040200
     49 H21        10.3510    1.9290    4.1620 hc        1 1PW      0.040200
     50 H22        10.2740    1.8300    7.2600 hc        1 1PW      0.038200
     51 H23        10.2000    3.3290    6.2550 hc        1 1PW      0.038200
     52 H24        12.4350    2.7870    5.2630 hc        1 1PW      0.046700
     53 H25        12.5080    1.2570    6.2290 hc        1 1PW      0.046700
     54 H26        13.8000    3.2660    7.1780 hc        1 1PW      0.038700
     55 H27        12.2180    4.0810    7.4620 hc        1 1PW      0.038700
     56 H28        11.6250    2.6150    9.2160 ha        1 1PW      0.104000
     57 H29        13.1750    1.0880   10.2410 ha        1 1PW      0.139000
     58 H30        14.9280   -0.0180    9.2100 h1        1 1PW      0.109700
     59 H31        14.7080    1.4900    6.8400 ho        1 1PW      0.395000
     60 H32        15.6710    2.9070    8.4160 h1        1 1PW      0.055700
     61 H33        16.6140    3.1390   10.5070 hn        1 1PW      0.320500
     62 H34        17.6760    2.1920   12.5090 hc        1 1PW      0.066367
     63 H35        16.5390    1.1600   13.4990 hc        1 1PW      0.066367
     64 H36        16.1170    2.8930   13.1420 hc        1 1PW      0.066367
     65 H37        17.5910    0.5760    9.1960 h1        1 1PW      0.053200
     66 H38        16.9890    0.8950    7.4890 h1        1 1PW      0.053200
     67 HAW2       19.0910    3.9950   10.5890 ho        1 1PW      0.426000
@<TRIPOS>BOND
     1    1    2 1   
     2    1   29 1   
     3    1   30 1   
     4    1   31 1   
     5    2    3 1   
     6    2   32 1   
     7    2   33 1   
     8    3    4 1   
     9    3   34 1   
    10    3   35 1   
    11    4    5 1   
    12    4   36 1   
    13    4   37 1   
    14    5    6 1   
    15    5   38 1   
    16    5   39 1   
    17    6    7 1   
    18    6   40 1   
    19    6   41 1   
    20    7    8 1   
    21    7   42 1   
    22    7   43 1   
    23    8    9 1   
    24    8   44 1   
    25    8   45 1   
    26    9   10 1   
    27    9   46 1   
    28    9   47 1   
    29   10   11 1   
    30   10   48 1   
    31   10   49 1   
    32   11   12 1   
    33   11   50 1   
    34   11   51 1   
    35   12   13 1   
    36   12   52 1   
    37   12   53 1   
    38   13   14 1   
    39   13   54 1   
    40   13   55 1   
    41   14   15 2   
    42   14   56 1   
    43   15   16 1   
    44   15   57 1   
    45   16   17 1   
    46   16   18 1   
    47   16   58 1   
    48   17   59 1   
    49   18   19 1   
    50   18   23 1   
    51   18   60 1   
    52   19   20 1   
    53   19   61 1   
    54   20   21 1   
    55   20   22 2   
    56   21   62 1   
    57   21   63 1   
    58   21   64 1   
    59   23   24 1   
    60   23   65 1   
    61   23   66 1   
    62   24   25 1   
    63   25   26 1   
    64   25   27 1   
    65   25   28 1   
    66   26   67 1   
@<TRIPOS>SUBSTRUCTURE
     1 1PW         1 TEMP              0 ****  ****    0 ROOT
