@<TRIPOS>MOLECULE
1PW
   66    63     1     0     0
SMALL
bcc


@<TRIPOS>ATOM
      1 CAA        -4.1620   -8.4820   -7.0170 c3        1 1PW     -0.210000
      2 CAJ        -3.0630   -7.7100   -6.2350 c3        1 1PW     -0.159000
      3 CAL        -3.5150   -6.2910   -6.0040 c3        1 1PW     -0.158000
      4 CAN        -2.4590   -5.5430   -5.1910 c3        1 1PW     -0.157000
      5 CAP        -2.9570   -4.0990   -4.9030 c3        1 1PW     -0.158000
      6 CAR        -2.1050   -3.4760   -3.7830 c3        1 1PW     -0.157000
      7 CAT        -2.4260   -1.9780   -3.6660 c3        1 1PW     -0.158000
      8 CAU        -2.2330   -1.5170   -2.1770 c3        1 1PW     -0.157000
      9 CAS        -1.7850   -0.0290   -2.1430 c3        1 1PW     -0.158000
     10 CAQ        -1.9670    0.5400   -0.6870 c3        1 1PW     -0.156000
     11 CAO        -0.7950    1.4850   -0.3560 c3        1 1PW     -0.159000
     12 CAM        -1.1070    2.2650    0.9450 c3        1 1PW     -0.152000
     13 CAK         0.2070    2.8190    1.5370 c3        1 1PW     -0.122000
     14 CAH        -0.1220    3.9040    2.6250 c2        1 1PW     -0.206000
     15 CAI         0.8770    4.3280    3.5190 c1        1 1PW     -0.136000
     16 CAZ         2.2780    3.7340    3.4330 c2        1 1PW      0.039000
     17 OAE         2.9550    4.2990    2.3660 oh        1 1PW     -0.358000
     18 CBA         3.0290    4.0220    4.7220 c3        1 1PW     -0.049000
     19 NAW         3.7840    2.8670    5.1030 n         1 1PW     -0.346000
     20 CAY         3.7290    2.3840    6.4720 c2        1 1PW      0.285000
     21 CAB         4.5450    1.1500    6.8820 c3        1 1PW     -0.236000
     22 OAC         3.1280    3.0230    7.3170 o         1 1PW     -0.501000
     23 CAV         3.9630    5.1880    4.5130 c3        1 1PW      0.063000
     24 OAX         4.4500    5.6030    5.7270 os        1 1PW     -0.724000
     25 PBB         5.3660    6.8970    5.7720 p3        1 1PW      2.517000
     26 OAF         5.6430    7.2690    7.2160 os        1 1PW     -1.220000
     27 OAG         6.6720    6.6150    5.0640 o         1 1PW     -1.236500
     28 OAD         4.6610    8.0360    5.0880 o         1 1PW     -1.236500
     29 H1         -5.0180   -8.4340   -6.5180 hc        1 1PW      0.069333
     30 H2         -4.2790   -8.0750   -7.9110 hc        1 1PW      0.069333
     31 H3         -3.8900   -9.4350   -7.1200 hc        1 1PW      0.069333
     32 H4         -2.2310   -7.7070   -6.7560 hc        1 1PW      0.076500
     33 H5         -2.9060   -8.1500   -5.3680 hc        1 1PW      0.076500
     34 H6         -3.6410   -5.8450   -6.8650 hc        1 1PW      0.079000
     35 H7         -4.3710   -6.2950   -5.5070 hc        1 1PW      0.079000
     36 H8         -2.3050   -6.0140   -4.3370 hc        1 1PW      0.077000
     37 H9         -1.6230   -5.5050   -5.6990 hc        1 1PW      0.077000
     38 H10        -3.9010   -4.1270   -4.6190 hc        1 1PW      0.079000
     39 H11        -2.8760   -3.5580   -5.7140 hc        1 1PW      0.079000
     40 H12        -1.1670   -3.5900   -3.9910 hc        1 1PW      0.076500
     41 H13        -2.3080   -3.9210   -2.9320 hc        1 1PW      0.076500
     42 H14        -1.8210   -1.4660   -4.2500 hc        1 1PW      0.079000
     43 H15        -3.3620   -1.8200   -3.9420 hc        1 1PW      0.079000
     44 H16        -1.5360   -2.0830   -1.7430 hc        1 1PW      0.075500
     45 H17        -3.0740   -1.6130   -1.6960 hc        1 1PW      0.075500
     46 H18        -2.3260    0.4850   -2.7610 hc        1 1PW      0.079500
     47 H19        -0.8520    0.0340   -2.4010 hc        1 1PW      0.079500
     48 H20        -2.8020    1.0280   -0.6320 hc        1 1PW      0.072500
     49 H21        -1.9790   -0.1960   -0.0510 hc        1 1PW      0.072500
     50 H22        -0.6690    2.1110   -1.0860 hc        1 1PW      0.081500
     51 H23         0.0210    0.9590   -0.2330 hc        1 1PW      0.081500
     52 H24        -1.5280    1.6660    1.5910 hc        1 1PW      0.066500
     53 H25        -1.7060    2.9980    0.7470 hc        1 1PW      0.066500
     54 H26         0.7410    3.2250    0.8220 hc        1 1PW      0.099500
     55 H27         0.7100    2.0920    1.9450 hc        1 1PW      0.099500
     56 H28        -1.0570    4.2990    2.6830 ha        1 1PW      0.089000
     57 H29         0.6700    5.0120    4.2060 ha        1 1PW      0.124000
     58 H30         2.2140    2.7690    3.3030 h4        1 1PW      0.111000
     59 H31         3.2570    3.6680    1.8480 ho        1 1PW      0.228000
     60 H32         2.3750    4.2440    5.4450 h1        1 1PW      0.075000
     61 H33         4.3090    2.4360    4.4840 hn        1 1PW      0.333000
     62 H34         5.4550    1.2190    6.5070 hc        1 1PW      0.088667
     63 H35         4.5970    1.1030    7.8610 hc        1 1PW      0.088667
     64 H36         4.1060    0.3350    6.5360 hc        1 1PW      0.088667
     65 H37         4.7150    4.9100    3.9340 h1        1 1PW      0.044500
     66 H38         3.4690    5.9370    4.0810 h1        1 1PW      0.044500
@<TRIPOS>BOND
     1    1    2 1   
     2    1   29 1   
     3    1   30 1   
     4    1   31 1   
     5    2    3 1   
     6    2   32 1   
     7    2   33 1   
     8    3    4 1   
     9    3   34 1   
    10    3   35 1   
    11    4    5 1   
    12    4   36 1   
    13    4   37 1   
    14    5    6 1   
    15    5   38 1   
    16    5   39 1   
    17    6    7 1   
    18    6   40 1   
    19    6   41 1   
    20    7    8 1   
    21    7   42 1   
    22    7   43 1   
    23    8    9 1   
    24    8   44 1   
    25    8   45 1   
    26    9   10 1   
    27    9   46 1   
    28    9   47 1   
    29   10   11 1   
    30   10   48 1   
    31   10   49 1   
    32   11   12 1   
    33   11   50 1   
    34   11   51 1   
    35   12   13 1   
    36   12   52 1   
    37   12   53 1   
    38   13   14 1   
    39   13   54 1   
    40   13   55 1   
    41   14   15 1   
    42   14   56 1   
    43   15   57 1   
    44   16   17 1   
    45   16   18 1   
    46   16   58 1   
    47   17   59 1   
    48   18   19 1   
    49   18   23 1   
    50   18   60 1   
    51   19   20 1   
    52   19   61 1   
    53   20   21 1   
    54   20   22 1   
    55   21   62 1   
    56   21   63 1   
    57   21   64 1   
    58   23   24 1   
    59   23   65 1   
    60   23   66 1   
    61   24   25 1   
    62   25   27 1   
    63   25   28 1   
@<TRIPOS>SUBSTRUCTURE
     1 1PW         1 TEMP              0 ****  ****    0 ROOT
