@<TRIPOS>MOLECULE
1PW
   66    65     1     0     0
SMALL
bcc


@<TRIPOS>ATOM
      1 CAA        14.4350    1.2880   -0.9520 c3        1 1PW     -0.091100
      2 CAJ        13.0840    1.7650   -0.4870 c3        1 1PW     -0.080400
      3 CAL        12.0300    0.6890   -0.6410 c3        1 1PW     -0.079400
      4 CAN        10.6750    1.1720   -0.1730 c3        1 1PW     -0.079400
      5 CAP         9.6230    0.0950   -0.3270 c3        1 1PW     -0.078400
      6 CAR         8.2670    0.5790    0.1410 c3        1 1PW     -0.079400
      7 CAT         7.2140   -0.4980   -0.0130 c3        1 1PW     -0.078400
      8 CAU         5.8590   -0.0130    0.4550 c3        1 1PW     -0.079400
      9 CAS         4.8060   -1.0900    0.3010 c3        1 1PW     -0.078400
     10 CAQ         3.4500   -0.6050    0.7700 c3        1 1PW     -0.079400
     11 CAO         2.3960   -1.6800    0.6150 c3        1 1PW     -0.078400
     12 CAM         1.0400   -1.1940    1.0820 c3        1 1PW     -0.078400
     13 CAK        -0.0160   -2.2700    0.9250 c3        1 1PW     -0.025200
     14 CAH        -1.3410   -1.8020    1.3980 c2        1 1PW     -0.248200
     15 CAI        -2.4590   -1.8900    0.6730 c2        1 1PW     -0.120200
     16 CAZ        -3.8140   -1.4470    1.1320 c3        1 1PW      0.159300
     17 OAE        -3.7850   -1.0890    2.5100 oh        1 1PW     -0.621800
     18 CBA        -4.3340   -0.2840    0.2580 c3        1 1PW      0.010700
     19 NAW        -4.4490   -0.5430   -1.1640 n         1 1PW     -0.529900
     20 CAY        -4.8180   -1.7590   -1.7070 c         1 1PW      0.652100
     21 CAB        -5.5050   -1.6980   -3.0560 c3        1 1PW     -0.192100
     22 OAC        -4.5340   -2.8800   -1.2060 o         1 1PW     -0.725100
     23 CAV        -5.6840    0.2920    0.8280 c3        1 1PW      0.202400
     24 OAX        -5.8880    1.5480    0.3240 os        1 1PW     -0.570200
     25 PBB        -7.2110    1.7040   -0.7930 p5        1 1PW      1.327900
     26 OAF        -6.5900    1.0290   -2.0040 o         1 1PW     -0.920833
     27 OAG        -8.2800    0.8930   -0.1220 o         1 1PW     -0.920833
     28 OAD        -7.3940    3.1860   -0.8850 o         1 1PW     -0.920833
     29 H1         14.7650    0.4010   -0.3600 hc        1 1PW      0.030033
     30 H2         14.4010    0.9960   -2.0300 hc        1 1PW      0.030033
     31 H3         15.1960    2.0960   -0.8310 hc        1 1PW      0.030033
     32 H4         13.1440    2.0780    0.5890 hc        1 1PW      0.038200
     33 H5         12.7800    2.6710   -1.0770 hc        1 1PW      0.038200
     34 H6         11.9670    0.3760   -1.7170 hc        1 1PW      0.038200
     35 H7         12.3310   -0.2170   -0.0510 hc        1 1PW      0.038200
     36 H8         10.7380    1.4850    0.9030 hc        1 1PW      0.039700
     37 H9         10.3740    2.0780   -0.7630 hc        1 1PW      0.039700
     38 H10         9.5590   -0.2170   -1.4030 hc        1 1PW      0.037700
     39 H11         9.9230   -0.8110    0.2630 hc        1 1PW      0.037700
     40 H12         8.3300    0.8920    1.2170 hc        1 1PW      0.039200
     41 H13         7.9660    1.4850   -0.4490 hc        1 1PW      0.039200
     42 H14         7.1510   -0.8100   -1.0890 hc        1 1PW      0.037200
     43 H15         7.5140   -1.4040    0.5770 hc        1 1PW      0.037200
     44 H16         5.9220    0.2990    1.5310 hc        1 1PW      0.039200
     45 H17         5.5580    0.8920   -0.1340 hc        1 1PW      0.039200
     46 H18         4.7410   -1.4010   -0.7740 hc        1 1PW      0.035700
     47 H19         5.1050   -1.9960    0.8900 hc        1 1PW      0.035700
     48 H20         3.5130   -0.2930    1.8450 hc        1 1PW      0.040200
     49 H21         3.1500    0.3010    0.1800 hc        1 1PW      0.040200
     50 H22         2.3320   -1.9910   -0.4610 hc        1 1PW      0.032700
     51 H23         2.6940   -2.5870    1.2040 hc        1 1PW      0.032700
     52 H24         1.1020   -0.8810    2.1580 hc        1 1PW      0.042700
     53 H25         0.7390   -0.2890    0.4920 hc        1 1PW      0.042700
     54 H26        -0.0690   -2.5840   -0.1520 hc        1 1PW      0.028200
     55 H27         0.2890   -3.1760    1.5180 hc        1 1PW      0.028200
     56 H28        -1.3570   -1.3760    2.4140 ha        1 1PW      0.114000
     57 H29        -2.4670   -2.3210   -0.3440 ha        1 1PW      0.149000
     58 H30        -4.5240   -2.3240    1.0760 h1        1 1PW      0.102700
     59 H31        -3.6030   -0.1430    2.5590 ho        1 1PW      0.400000
     60 H32        -3.5730    0.5530    0.3400 h1        1 1PW      0.040700
     61 H33        -4.9840    0.2510   -1.5870 hn        1 1PW      0.393500
     62 H34        -5.9400   -2.6960   -3.2930 hc        1 1PW      0.065700
     63 H35        -6.3130   -0.9100   -3.0250 hc        1 1PW      0.065700
     64 H36        -4.7670   -1.4220   -3.8450 hc        1 1PW      0.065700
     65 H37        -6.5370   -0.3980    0.5770 h1        1 1PW      0.010700
     66 H38        -5.5740    0.3440    1.9500 h1        1 1PW      0.010700
@<TRIPOS>BOND
     1    1    2 1   
     2    1   29 1   
     3    1   30 1   
     4    1   31 1   
     5    2    3 1   
     6    2   32 1   
     7    2   33 1   
     8    3    4 1   
     9    3   34 1   
    10    3   35 1   
    11    4    5 1   
    12    4   36 1   
    13    4   37 1   
    14    5    6 1   
    15    5   38 1   
    16    5   39 1   
    17    6    7 1   
    18    6   40 1   
    19    6   41 1   
    20    7    8 1   
    21    7   42 1   
    22    7   43 1   
    23    8    9 1   
    24    8   44 1   
    25    8   45 1   
    26    9   10 1   
    27    9   46 1   
    28    9   47 1   
    29   10   11 1   
    30   10   48 1   
    31   10   49 1   
    32   11   12 1   
    33   11   50 1   
    34   11   51 1   
    35   12   13 1   
    36   12   52 1   
    37   12   53 1   
    38   13   14 1   
    39   13   54 1   
    40   13   55 1   
    41   14   15 2   
    42   14   56 1   
    43   15   16 1   
    44   15   57 1   
    45   16   17 1   
    46   16   18 1   
    47   16   58 1   
    48   17   59 1   
    49   18   19 1   
    50   18   23 1   
    51   18   60 1   
    52   19   20 1   
    53   19   61 1   
    54   20   21 1   
    55   20   22 2   
    56   21   62 1   
    57   21   63 1   
    58   21   64 1   
    59   23   24 1   
    60   23   65 1   
    61   23   66 1   
    62   24   25 1   
    63   25   26 1   
    64   25   27 1   
    65   25   28 1   
@<TRIPOS>SUBSTRUCTURE
     1 1PW         1 TEMP              0 ****  ****    0 ROOT
