@<TRIPOS>MOLECULE
1PW
   67    66     1     0     0
SMALL
bcc


@<TRIPOS>ATOM
      1 CAA        -0.3780   -0.4630    1.0440 c3        1 1PW     -0.092100
      2 CAJ         1.0620   -0.9050    0.9980 c3        1 1PW     -0.080400
      3 CAL         1.9030   -0.1680    2.0180 c3        1 1PW     -0.079400
      4 CAN         3.3480   -0.6150    1.9680 c3        1 1PW     -0.079400
      5 CAP         4.1870    0.1230    2.9890 c3        1 1PW     -0.079400
      6 CAR         5.6330   -0.3230    2.9380 c3        1 1PW     -0.078400
      7 CAT         6.4720    0.4140    3.9590 c3        1 1PW     -0.079400
      8 CAU         7.9180   -0.0310    3.9080 c3        1 1PW     -0.078400
      9 CAS         8.7570    0.7070    4.9290 c3        1 1PW     -0.079400
     10 CAQ        10.2040    0.2630    4.8770 c3        1 1PW     -0.079400
     11 CAO        11.0430    1.0010    5.8990 c3        1 1PW     -0.080400
     12 CAM        12.4900    0.5610    5.8420 c3        1 1PW     -0.072400
     13 CAK        13.3570    1.2860    6.8530 c3        1 1PW     -0.060200
     14 CAH        13.1850    0.7680    8.2300 c2        1 1PW     -0.174200
     15 CAI        14.1520    0.5070    9.1130 c2        1 1PW     -0.183200
     16 CAZ        15.6310    0.6260    8.9300 c3        1 1PW      0.167300
     17 OAE        16.0610    0.1890    7.6400 oh        1 1PW     -0.602800
     18 CBA        16.1160    2.0900    9.0680 c3        1 1PW      0.072700
     19 NAW        15.6390    2.7600   10.2630 ns        1 1PW     -0.524900
     20 CAY        15.6690    2.1870   11.5300 c         1 1PW      0.656100
     21 CAB        15.7380    3.1420   12.7000 c3        1 1PW     -0.186100
     22 OAC        15.5610    0.9560   11.7260 o         1 1PW     -0.649100
     23 CAV        17.6630    2.1240    8.9190 c3        1 1PW      0.159400
     24 OAX        18.0840    3.4350    8.7140 os        1 1PW     -0.580200
     25 PBB        19.0970    4.1080    9.8350 p5        1 1PW      1.421800
     26 OAF        17.8820    4.6640   10.7980 oh        1 1PW     -0.799400
     27 OAG        19.6560    5.3460    9.2620 o         1 1PW     -0.826500
     28 OAD        19.8110    3.0170   10.5200 o         1 1PW     -0.826500
     29 H1         -0.4630    0.6300    0.8310 hc        1 1PW      0.031033
     30 H2         -0.8180   -0.6570    2.0530 hc        1 1PW      0.031033
     31 H3         -0.9800   -1.0180    0.2850 hc        1 1PW      0.031033
     32 H4          1.4780   -0.7250   -0.0290 hc        1 1PW      0.037700
     33 H5          1.1240   -2.0090    1.1900 hc        1 1PW      0.037700
     34 H6          1.8430    0.9360    1.8270 hc        1 1PW      0.039200
     35 H7          1.4890   -0.3470    3.0460 hc        1 1PW      0.039200
     36 H8          3.7610   -0.4350    0.9410 hc        1 1PW      0.038700
     37 H9          3.4070   -1.7180    2.1590 hc        1 1PW      0.038700
     38 H10         3.7740   -0.0570    4.0160 hc        1 1PW      0.039700
     39 H11         4.1280    1.2270    2.7980 hc        1 1PW      0.039700
     40 H12         6.0460   -0.1430    1.9110 hc        1 1PW      0.038700
     41 H13         5.6920   -1.4270    3.1300 hc        1 1PW      0.038700
     42 H14         6.4120    1.5180    3.7690 hc        1 1PW      0.039200
     43 H15         6.0590    0.2340    4.9870 hc        1 1PW      0.039200
     44 H16         7.9780   -1.1350    4.0990 hc        1 1PW      0.038200
     45 H17         8.3310    0.1500    2.8810 hc        1 1PW      0.038200
     46 H18         8.3450    0.5250    5.9570 hc        1 1PW      0.039200
     47 H19         8.6960    1.8110    4.7390 hc        1 1PW      0.039200
     48 H20        10.2650   -0.8410    5.0670 hc        1 1PW      0.036700
     49 H21        10.6160    0.4440    3.8500 hc        1 1PW      0.036700
     50 H22        10.9780    2.1050    5.7100 hc        1 1PW      0.039700
     51 H23        10.6310    0.8170    6.9260 hc        1 1PW      0.039700
     52 H24        12.5530   -0.5450    6.0170 hc        1 1PW      0.035200
     53 H25        12.8920    0.7570    4.8130 hc        1 1PW      0.035200
     54 H26        14.4340    1.2100    6.5370 hc        1 1PW      0.062700
     55 H27        13.0950    2.3810    6.8530 hc        1 1PW      0.062700
     56 H28        12.1320    0.6230    8.5320 ha        1 1PW      0.103000
     57 H29        13.8840    0.1950   10.1400 ha        1 1PW      0.140000
     58 H30        16.1490   -0.0070    9.7100 h1        1 1PW      0.072700
     59 H31        15.6910   -0.6930    7.5210 ho        1 1PW      0.392000
     60 H32        15.6850    2.6720    8.1960 h1        1 1PW      0.068700
     61 H33        17.7400    5.5950   10.6710 ho        1 1PW      0.426000
     62 H34        15.7790    2.5560   13.6480 hc        1 1PW      0.066033
     63 H35        14.8410    3.8050   12.7160 hc        1 1PW      0.066033
     64 H36        16.6610    3.7740   12.6100 hc        1 1PW      0.066033
     65 H37        17.9230    1.5200    8.0040 h1        1 1PW      0.053700
     66 H38        18.1640    1.6790    9.8230 h1        1 1PW      0.053700
     67 HAW2       15.9000    3.7300   10.2560 hn        1 1PW      0.320500
@<TRIPOS>BOND
     1    1    2 1   
     2    1   29 1   
     3    1   30 1   
     4    1   31 1   
     5    2    3 1   
     6    2   32 1   
     7    2   33 1   
     8    3    4 1   
     9    3   34 1   
    10    3   35 1   
    11    4    5 1   
    12    4   36 1   
    13    4   37 1   
    14    5    6 1   
    15    5   38 1   
    16    5   39 1   
    17    6    7 1   
    18    6   40 1   
    19    6   41 1   
    20    7    8 1   
    21    7   42 1   
    22    7   43 1   
    23    8    9 1   
    24    8   44 1   
    25    8   45 1   
    26    9   10 1   
    27    9   46 1   
    28    9   47 1   
    29   10   11 1   
    30   10   48 1   
    31   10   49 1   
    32   11   12 1   
    33   11   50 1   
    34   11   51 1   
    35   12   13 1   
    36   12   52 1   
    37   12   53 1   
    38   13   14 1   
    39   13   54 1   
    40   13   55 1   
    41   14   15 2   
    42   14   56 1   
    43   15   16 1   
    44   15   57 1   
    45   16   17 1   
    46   16   18 1   
    47   16   58 1   
    48   17   59 1   
    49   18   19 1   
    50   18   23 1   
    51   18   60 1   
    52   19   20 1   
    53   19   67 1   
    54   20   21 1   
    55   20   22 2   
    56   21   62 1   
    57   21   63 1   
    58   21   64 1   
    59   23   24 1   
    60   23   65 1   
    61   23   66 1   
    62   24   25 1   
    63   25   26 1   
    64   25   27 1   
    65   25   28 1   
    66   26   61 1   
@<TRIPOS>SUBSTRUCTURE
     1 1PW         1 TEMP              0 ****  ****    0 ROOT
