@<TRIPOS>MOLECULE
1PX
  108   107     1     0     0
SMALL
bcc


@<TRIPOS>ATOM
      1 CAB        19.4420    1.0560    0.3480 c3        1 1PX     -0.091100
      2 CAK        18.1500    0.7280   -0.3550 c3        1 1PX     -0.081400
      3 CAN        16.9480    1.1490    0.4640 c3        1 1PX     -0.078400
      4 CAQ        15.6530    0.8170   -0.2460 c3        1 1PX     -0.079400
      5 CAT        14.4520    1.2380    0.5730 c3        1 1PX     -0.078400
      6 CAW        13.1570    0.9060   -0.1380 c3        1 1PX     -0.079400
      7 CAZ        11.9550    1.3260    0.6800 c3        1 1PX     -0.077400
      8 CBB        10.6610    0.9940   -0.0310 c3        1 1PX     -0.080400
      9 CBC         9.4580    1.4130    0.7860 c3        1 1PX     -0.076400
     10 CBD         8.1650    1.0780    0.0740 c3        1 1PX     -0.082400
     11 CBE         6.9600    1.4950    0.8890 c3        1 1PX     -0.073400
     12 CBF         5.6700    1.1450    0.1770 c3        1 1PX     -0.087400
     13 CBG         4.4590    1.5530    0.9890 c3        1 1PX     -0.060400
     14 CBH         3.1840    1.1310    0.2890 c3        1 1PX     -0.123400
     15 CBI         1.9720    1.4550    1.1320 c3        1 1PX     -0.131400
     16 CBM         0.6610    1.1230    0.4260 c         1 1PX      0.641100
     17 OAC        -0.2490    2.0000    0.3870 o         1 1PX     -0.740100
     18 NBK         0.5260   -0.1300   -0.0680 n         1 1PX     -0.544900
     19 CBO        -0.5600   -0.5640   -0.9150 c3        1 1PX      0.035700
     20 CBJ        -0.0020   -1.4810   -2.0570 c3        1 1PX      0.199400
     21 OBL         0.4360   -2.6820   -1.5600 os        1 1PX     -0.579200
     22 PBP         2.1590   -2.9120   -1.6300 p5        1 1PX      1.333900
     23 OAF         2.3080   -4.3600   -1.2920 o         1 1PX     -0.915833
     24 OAG         2.4670   -2.4580   -3.0250 o         1 1PX     -0.915833
     25 OAD         2.5990   -1.9250   -0.5580 o         1 1PX     -0.915833
     26 CBN        -1.6400   -1.3260   -0.0860 c3        1 1PX      0.173300
     27 OAE        -2.3460   -2.2770   -0.8710 oh        1 1PX     -0.647800
     28 CAI        -2.6110   -0.3530    0.5020 c2        1 1PX     -0.123200
     29 CAH        -3.9230   -0.5690    0.6230 c2        1 1PX     -0.232200
     30 CAL        -4.8590    0.4000    1.2420 c3        1 1PX     -0.030200
     31 CAO        -6.0640    0.6490    0.3560 c3        1 1PX     -0.076400
     32 CAR        -7.0260    1.6280    0.9970 c3        1 1PX     -0.079400
     33 CAU        -8.2300    1.8760    0.1140 c3        1 1PX     -0.079400
     34 CAX        -9.1910    2.8560    0.7530 c3        1 1PX     -0.078400
     35 CBA       -10.3940    3.1040   -0.1310 c3        1 1PX     -0.079400
     36 CAY       -11.3550    4.0840    0.5080 c3        1 1PX     -0.078400
     37 CAV       -12.5580    4.3310   -0.3760 c3        1 1PX     -0.079400
     38 CAS       -13.5190    5.3110    0.2630 c3        1 1PX     -0.078400
     39 CAP       -14.7220    5.5580   -0.6220 c3        1 1PX     -0.079400
     40 CAM       -15.6830    6.5380    0.0170 c3        1 1PX     -0.079400
     41 CAJ       -16.8870    6.7860   -0.8670 c3        1 1PX     -0.080400
     42 CAA       -17.8470    7.7610   -0.2350 c3        1 1PX     -0.091100
     43 H1         19.4990    0.5320    1.3330 hc        1 1PX      0.029033
     44 H2         20.3140    0.7380   -0.2720 hc        1 1PX      0.029033
     45 H3         19.5220    2.1550    0.5320 hc        1 1PX      0.029033
     46 H4         18.1220    1.2430   -1.3510 hc        1 1PX      0.038700
     47 H5         18.0990   -0.3760   -0.5530 hc        1 1PX      0.038700
     48 H6         16.9730    0.6330    1.4600 hc        1 1PX      0.037200
     49 H7         16.9960    2.2520    0.6610 hc        1 1PX      0.037200
     50 H8         15.6280    1.3320   -1.2430 hc        1 1PX      0.039700
     51 H9         15.6050   -0.2870   -0.4440 hc        1 1PX      0.039700
     52 H10        14.4760    0.7220    1.5690 hc        1 1PX      0.036700
     53 H11        14.5000    2.3410    0.7710 hc        1 1PX      0.036700
     54 H12        13.1320    1.4210   -1.1350 hc        1 1PX      0.040700
     55 H13        13.1090   -0.1980   -0.3360 hc        1 1PX      0.040700
     56 H14        11.9800    0.8110    1.6760 hc        1 1PX      0.034700
     57 H15        12.0030    2.4300    0.8780 hc        1 1PX      0.034700
     58 H16        10.6360    1.5080   -1.0280 hc        1 1PX      0.041700
     59 H17        10.6130   -0.1100   -0.2290 hc        1 1PX      0.041700
     60 H18         9.4820    0.8980    1.7820 hc        1 1PX      0.031200
     61 H19         9.5050    2.5170    0.9840 hc        1 1PX      0.031200
     62 H20         8.1400    1.5920   -0.9230 hc        1 1PX      0.046200
     63 H21         8.1170   -0.0260   -0.1240 hc        1 1PX      0.046200
     64 H22         6.9870    0.9840    1.8870 hc        1 1PX      0.024700
     65 H23         7.0000    2.5990    1.0820 hc        1 1PX      0.024700
     66 H24         5.6410    1.6540   -0.8220 hc        1 1PX      0.060700
     67 H25         5.6260    0.0390   -0.0170 hc        1 1PX      0.060700
     68 H26         4.5080    1.0710    2.0010 hc        1 1PX      0.012200
     69 H27         4.4670    2.6630    1.1510 hc        1 1PX      0.012200
     70 H28         3.1070    1.6570   -0.6980 hc        1 1PX      0.103200
     71 H29         3.2280    0.0170    0.0630 hc        1 1PX      0.103200
     72 H30         2.0130    0.8770    2.0930 hc        1 1PX      0.035200
     73 H31         1.9530    2.5460    1.3880 hc        1 1PX      0.035200
     74 H32         1.3380   -0.7870   -0.0820 hn        1 1PX      0.416500
     75 H33        -1.0520    0.3320   -1.3930 h1        1 1PX      0.035700
     76 H34        -0.8610   -1.6470   -2.7710 h1        1 1PX      0.014700
     77 H35         0.8230   -0.9430   -2.6050 h1        1 1PX      0.014700
     78 H38        -1.1340   -1.8820    0.7600 h1        1 1PX      0.056700
     79 H39        -1.6780   -2.9120   -1.1810 ho        1 1PX      0.454000
     80 H40        -2.1350    0.5870    0.8420 ha        1 1PX      0.148000
     81 H41        -4.3770   -1.5030    0.2540 ha        1 1PX      0.126000
     82 H42        -5.2060   -0.0040    2.2320 hc        1 1PX      0.029200
     83 H43        -4.3400    1.3750    1.4480 hc        1 1PX      0.029200
     84 H44        -5.7210    1.0490   -0.6330 hc        1 1PX      0.041700
     85 H45        -6.5910   -0.3210    0.1570 hc        1 1PX      0.041700
     86 H46        -7.3640    1.2290    1.9900 hc        1 1PX      0.033700
     87 H47        -6.4970    2.5980    1.1940 hc        1 1PX      0.033700
     88 H48        -7.8900    2.2750   -0.8780 hc        1 1PX      0.038700
     89 H49        -8.7570    0.9060   -0.0830 hc        1 1PX      0.038700
     90 H50        -9.5290    2.4580    1.7460 hc        1 1PX      0.036200
     91 H51        -8.6620    3.8260    0.9500 hc        1 1PX      0.036200
     92 H52       -10.0550    3.5030   -1.1230 hc        1 1PX      0.039200
     93 H53       -10.9220    2.1340   -0.3280 hc        1 1PX      0.039200
     94 H54       -11.6930    3.6850    1.5010 hc        1 1PX      0.037700
     95 H55       -10.8260    5.0540    0.7050 hc        1 1PX      0.037700
     96 H56       -12.2190    4.7300   -1.3690 hc        1 1PX      0.038700
     97 H57       -13.0860    3.3610   -0.5730 hc        1 1PX      0.038700
     98 H58       -13.8570    4.9120    1.2560 hc        1 1PX      0.038200
     99 H59       -12.9910    6.2810    0.4600 hc        1 1PX      0.038200
    100 H60       -14.3830    5.9570   -1.6140 hc        1 1PX      0.039200
    101 H61       -15.2490    4.5880   -0.8190 hc        1 1PX      0.039200
    102 H62       -16.0220    6.1390    1.0100 hc        1 1PX      0.038200
    103 H63       -15.1550    7.5080    0.2140 hc        1 1PX      0.038200
    104 H64       -16.5450    7.1830   -1.8590 hc        1 1PX      0.038200
    105 H65       -17.4120    5.8140   -1.0640 hc        1 1PX      0.038200
    106 H66       -18.2170    7.3710    0.7440 hc        1 1PX      0.030033
    107 H67       -17.3480    8.7430   -0.0530 hc        1 1PX      0.030033
    108 H68       -18.7260    7.9290   -0.9020 hc        1 1PX      0.030033
@<TRIPOS>BOND
     1    1    2 1   
     2    1   43 1   
     3    1   44 1   
     4    1   45 1   
     5    2    3 1   
     6    2   46 1   
     7    2   47 1   
     8    3    4 1   
     9    3   48 1   
    10    3   49 1   
    11    4    5 1   
    12    4   50 1   
    13    4   51 1   
    14    5    6 1   
    15    5   52 1   
    16    5   53 1   
    17    6    7 1   
    18    6   54 1   
    19    6   55 1   
    20    7    8 1   
    21    7   56 1   
    22    7   57 1   
    23    8    9 1   
    24    8   58 1   
    25    8   59 1   
    26    9   10 1   
    27    9   60 1   
    28    9   61 1   
    29   10   11 1   
    30   10   62 1   
    31   10   63 1   
    32   11   12 1   
    33   11   64 1   
    34   11   65 1   
    35   12   13 1   
    36   12   66 1   
    37   12   67 1   
    38   13   14 1   
    39   13   68 1   
    40   13   69 1   
    41   14   15 1   
    42   14   70 1   
    43   14   71 1   
    44   15   16 1   
    45   15   72 1   
    46   15   73 1   
    47   16   17 2   
    48   16   18 1   
    49   18   19 1   
    50   18   74 1   
    51   19   20 1   
    52   19   26 1   
    53   19   75 1   
    54   20   21 1   
    55   20   76 1   
    56   20   77 1   
    57   21   22 1   
    58   22   23 1   
    59   22   24 1   
    60   22   25 1   
    61   26   27 1   
    62   26   28 1   
    63   26   78 1   
    64   27   79 1   
    65   28   29 2   
    66   28   80 1   
    67   29   30 1   
    68   29   81 1   
    69   30   31 1   
    70   30   82 1   
    71   30   83 1   
    72   31   32 1   
    73   31   84 1   
    74   31   85 1   
    75   32   33 1   
    76   32   86 1   
    77   32   87 1   
    78   33   34 1   
    79   33   88 1   
    80   33   89 1   
    81   34   35 1   
    82   34   90 1   
    83   34   91 1   
    84   35   36 1   
    85   35   92 1   
    86   35   93 1   
    87   36   37 1   
    88   36   94 1   
    89   36   95 1   
    90   37   38 1   
    91   37   96 1   
    92   37   97 1   
    93   38   39 1   
    94   38   98 1   
    95   38   99 1   
    96   39   40 1   
    97   39  100 1   
    98   39  101 1   
    99   40   41 1   
   100   40  102 1   
   101   40  103 1   
   102   41   42 1   
   103   41  104 1   
   104   41  105 1   
   105   42  106 1   
   106   42  107 1   
   107   42  108 1   
@<TRIPOS>SUBSTRUCTURE
     1 1PX         1 TEMP              0 ****  ****    0 ROOT
