@<TRIPOS>MOLECULE
1PX
  108   107     1     0     0
SMALL
bcc


@<TRIPOS>ATOM
      1 CAB        -0.3480    6.5190    1.9530 c3        1 1PX     -0.091100
      2 CAK         1.0910    6.4060    2.3840 c3        1 1PX     -0.081400
      3 CAN         1.4810    4.9680    2.6530 c3        1 1PX     -0.078400
      4 CAQ         2.9270    4.8600    3.0860 c3        1 1PX     -0.079400
      5 CAT         3.3160    3.4220    3.3550 c3        1 1PX     -0.078400
      6 CAW         4.7620    3.3140    3.7870 c3        1 1PX     -0.080400
      7 CAZ         5.1520    1.8770    4.0570 c3        1 1PX     -0.077400
      8 CBB         6.5990    1.7700    4.4890 c3        1 1PX     -0.080400
      9 CBC         6.9900    0.3340    4.7610 c3        1 1PX     -0.076400
     10 CBD         8.4370    0.2300    5.1950 c3        1 1PX     -0.082400
     11 CBE         8.8320   -1.2050    5.4680 c3        1 1PX     -0.072400
     12 CBF        10.2750   -1.2980    5.9160 c3        1 1PX     -0.089400
     13 CBG        10.6820   -2.7300    6.1890 c3        1 1PX     -0.060400
     14 CBH        12.1030   -2.7860    6.7090 c3        1 1PX     -0.120400
     15 CBI        12.5120   -4.2070    7.0240 c3        1 1PX     -0.139400
     16 CBM        13.9950   -4.3180    7.3760 c         1 1PX      0.648100
     17 OAC        14.6790   -5.2230    6.8280 o         1 1PX     -0.712100
     18 NBK        14.4550   -3.4960    8.3650 n         1 1PX     -0.520900
     19 CBO        15.8620   -3.1800    8.5450 c3        1 1PX      0.026700
     20 CBJ        16.2720   -1.8940    7.7320 c3        1 1PX      0.220400
     21 OBL        15.2580   -1.0100    7.4710 os        1 1PX     -0.582200
     22 PBP        14.6660   -0.0070    8.7470 p5        1 1PX      1.338900
     23 OAF        13.4690   -0.8700    9.0940 o         1 1PX     -0.925167
     24 OAG        15.7920   -0.1090    9.7490 o         1 1PX     -0.925167
     25 OAD        14.4080    1.3240    8.1190 o         1 1PX     -0.925167
     26 CBN        16.1200   -2.9230   10.0680 c3        1 1PX      0.148300
     27 OAE        17.4230   -2.4030   10.2710 oh        1 1PX     -0.662800
     28 CAI        15.9180   -4.1720   10.8550 c2        1 1PX     -0.106200
     29 CAH        16.7990   -4.8620   11.5850 c2        1 1PX     -0.233200
     30 CAL        18.2280   -4.5130   11.7580 c3        1 1PX     -0.031200
     31 CAO        19.0130   -5.5680   12.5140 c3        1 1PX     -0.070400
     32 CAR        19.2090   -6.8240   11.6910 c3        1 1PX     -0.082400
     33 CAU        19.9600   -7.8850   12.4670 c3        1 1PX     -0.076400
     34 CAX        20.1580   -9.1360   11.6370 c3        1 1PX     -0.080400
     35 CBA        20.9050  -10.2000   12.4120 c3        1 1PX     -0.077400
     36 CAY        21.1020  -11.4500   11.5810 c3        1 1PX     -0.080400
     37 CAV        21.8490  -12.5150   12.3540 c3        1 1PX     -0.078400
     38 CAS        22.0460  -13.7640   11.5220 c3        1 1PX     -0.079400
     39 CAP        22.7920  -14.8300   12.2950 c3        1 1PX     -0.078400
     40 CAM        22.9880  -16.0780   11.4630 c3        1 1PX     -0.079400
     41 CAJ        23.7350  -17.1450   12.2350 c3        1 1PX     -0.080400
     42 CAA        23.9320  -18.3900   11.4090 c3        1 1PX     -0.091100
     43 H1         -1.0290    6.1240    2.7450 hc        1 1PX      0.029033
     44 H2         -0.5260    5.9370    1.0170 hc        1 1PX      0.029033
     45 H3         -0.6140    7.5870    1.7600 hc        1 1PX      0.029033
     46 H4          1.2560    7.0170    3.3110 hc        1 1PX      0.038200
     47 H5          1.7580    6.8300    1.5870 hc        1 1PX      0.038200
     48 H6          1.3180    4.3560    1.7270 hc        1 1PX      0.037200
     49 H7          0.8170    4.5430    3.4510 hc        1 1PX      0.037200
     50 H8          3.5910    5.2860    2.2880 hc        1 1PX      0.040200
     51 H9          3.0900    5.4720    4.0110 hc        1 1PX      0.040200
     52 H10         3.1540    2.8090    2.4290 hc        1 1PX      0.036200
     53 H11         2.6520    2.9960    4.1530 hc        1 1PX      0.036200
     54 H12         4.9250    3.9270    4.7130 hc        1 1PX      0.040700
     55 H13         5.4260    3.7400    2.9890 hc        1 1PX      0.040700
     56 H14         4.9900    1.2630    3.1320 hc        1 1PX      0.033700
     57 H15         4.4890    1.4510    4.8560 hc        1 1PX      0.033700
     58 H16         7.2630    2.1960    3.6920 hc        1 1PX      0.042700
     59 H17         6.7620    2.3840    5.4150 hc        1 1PX      0.042700
     60 H18         6.3270   -0.0920    5.5590 hc        1 1PX      0.029700
     61 H19         6.8300   -0.2810    3.8360 hc        1 1PX      0.029700
     62 H20         8.5990    0.8440    6.1210 hc        1 1PX      0.048200
     63 H21         9.1010    0.6570    4.3980 hc        1 1PX      0.048200
     64 H22         8.6820   -1.8190    4.5410 hc        1 1PX      0.021700
     65 H23         8.1640   -1.6350    6.2590 hc        1 1PX      0.021700
     66 H24        10.9460   -0.8640    5.1280 hc        1 1PX      0.065200
     67 H25        10.4300   -0.6850    6.8450 hc        1 1PX      0.065200
     68 H26        10.5870   -3.3370    5.2500 hc        1 1PX      0.009200
     69 H27         9.9860   -3.1820    6.9440 hc        1 1PX      0.009200
     70 H28        12.8050   -2.3520    5.9490 hc        1 1PX      0.105700
     71 H29        12.1960   -2.1270    7.6270 hc        1 1PX      0.105700
     72 H30        12.3220   -4.8730    6.1430 hc        1 1PX      0.031700
     73 H31        11.9100   -4.5990    7.8850 hc        1 1PX      0.031700
     74 H32        13.8860   -2.6620    8.5930 hn        1 1PX      0.388500
     75 H33        16.4970   -4.0380    8.1970 h1        1 1PX      0.041700
     76 H34        16.6640   -2.2680    6.7390 h1        1 1PX     -0.006300
     77 H35        17.1110   -1.3790    8.2730 h1        1 1PX     -0.006300
     78 H38        15.3650   -2.1220   10.3880 h1        1 1PX      0.139700
     79 H39        17.3120   -1.4310   10.2470 ho        1 1PX      0.470000
     80 H40        14.8740   -4.5340   10.8030 ha        1 1PX      0.115000
     81 H41        16.4680   -5.7670   12.1220 ha        1 1PX      0.079000
     82 H42        18.3000   -3.5340   12.3070 hc        1 1PX      0.062700
     83 H43        18.6950   -4.3400   10.7500 hc        1 1PX      0.062700
     84 H44        18.4840   -5.8250   13.4690 hc        1 1PX      0.017700
     85 H45        20.0160   -5.1490   12.7930 hc        1 1PX      0.017700
     86 H46        19.7720   -6.5720   10.7540 hc        1 1PX      0.049200
     87 H47        18.2070   -7.2190   11.3760 hc        1 1PX      0.049200
     88 H48        20.9570   -7.4840   12.7870 hc        1 1PX      0.028700
     89 H49        19.3930   -8.1400   13.4010 hc        1 1PX      0.028700
     90 H50        20.7270   -8.8800   10.7040 hc        1 1PX      0.042200
     91 H51        19.1600   -9.5340   11.3160 hc        1 1PX      0.042200
     92 H52        20.3360  -10.4550   13.3450 hc        1 1PX      0.033700
     93 H53        21.9030   -9.8010   12.7330 hc        1 1PX      0.033700
     94 H54        20.1040  -11.8480   11.2590 hc        1 1PX      0.040700
     95 H55        21.6710  -11.1940   10.6480 hc        1 1PX      0.040700
     96 H56        21.2800  -12.7710   13.2870 hc        1 1PX      0.036200
     97 H57        22.8470  -12.1160   12.6760 hc        1 1PX      0.036200
     98 H58        21.0470  -14.1620   11.2010 hc        1 1PX      0.040200
     99 H59        22.6140  -13.5080   10.5890 hc        1 1PX      0.040200
    100 H60        22.2230  -15.0850   13.2280 hc        1 1PX      0.037200
    101 H61        23.7900  -14.4310   12.6170 hc        1 1PX      0.037200
    102 H62        21.9900  -16.4770   11.1420 hc        1 1PX      0.039700
    103 H63        23.5570  -15.8230   10.5300 hc        1 1PX      0.039700
    104 H64        23.1650  -17.3980   13.1680 hc        1 1PX      0.036700
    105 H65        24.7320  -16.7440   12.5560 hc        1 1PX      0.036700
    106 H66        24.5190  -18.1630   10.4870 hc        1 1PX      0.029700
    107 H67        24.4840  -19.1640   11.9960 hc        1 1PX      0.029700
    108 H68        22.9480  -18.8180   11.1000 hc        1 1PX      0.029700
@<TRIPOS>BOND
     1    1    2 1   
     2    1   43 1   
     3    1   44 1   
     4    1   45 1   
     5    2    3 1   
     6    2   46 1   
     7    2   47 1   
     8    3    4 1   
     9    3   48 1   
    10    3   49 1   
    11    4    5 1   
    12    4   50 1   
    13    4   51 1   
    14    5    6 1   
    15    5   52 1   
    16    5   53 1   
    17    6    7 1   
    18    6   54 1   
    19    6   55 1   
    20    7    8 1   
    21    7   56 1   
    22    7   57 1   
    23    8    9 1   
    24    8   58 1   
    25    8   59 1   
    26    9   10 1   
    27    9   60 1   
    28    9   61 1   
    29   10   11 1   
    30   10   62 1   
    31   10   63 1   
    32   11   12 1   
    33   11   64 1   
    34   11   65 1   
    35   12   13 1   
    36   12   66 1   
    37   12   67 1   
    38   13   14 1   
    39   13   68 1   
    40   13   69 1   
    41   14   15 1   
    42   14   70 1   
    43   14   71 1   
    44   15   16 1   
    45   15   72 1   
    46   15   73 1   
    47   16   17 2   
    48   16   18 1   
    49   18   19 1   
    50   18   74 1   
    51   19   20 1   
    52   19   26 1   
    53   19   75 1   
    54   20   21 1   
    55   20   76 1   
    56   20   77 1   
    57   21   22 1   
    58   22   23 1   
    59   22   24 1   
    60   22   25 1   
    61   26   27 1   
    62   26   28 1   
    63   26   78 1   
    64   27   79 1   
    65   28   29 2   
    66   28   80 1   
    67   29   30 1   
    68   29   81 1   
    69   30   31 1   
    70   30   82 1   
    71   30   83 1   
    72   31   32 1   
    73   31   84 1   
    74   31   85 1   
    75   32   33 1   
    76   32   86 1   
    77   32   87 1   
    78   33   34 1   
    79   33   88 1   
    80   33   89 1   
    81   34   35 1   
    82   34   90 1   
    83   34   91 1   
    84   35   36 1   
    85   35   92 1   
    86   35   93 1   
    87   36   37 1   
    88   36   94 1   
    89   36   95 1   
    90   37   38 1   
    91   37   96 1   
    92   37   97 1   
    93   38   39 1   
    94   38   98 1   
    95   38   99 1   
    96   39   40 1   
    97   39  100 1   
    98   39  101 1   
    99   40   41 1   
   100   40  102 1   
   101   40  103 1   
   102   41   42 1   
   103   41  104 1   
   104   41  105 1   
   105   42  106 1   
   106   42  107 1   
   107   42  108 1   
@<TRIPOS>SUBSTRUCTURE
     1 1PX         1 TEMP              0 ****  ****    0 ROOT
