@<TRIPOS>MOLECULE
1PX
  108   106     1     0     0
SMALL
bcc


@<TRIPOS>ATOM
      1 CAB        -7.0890   -9.9950   12.7120 c3        1 1PX     -0.209000
      2 CAK        -6.6560  -10.6210   11.3530 c3        1 1PX     -0.159000
      3 CAN        -6.0420   -9.5260   10.4530 c3        1 1PX     -0.158000
      4 CAQ        -5.7160  -10.1270    9.0520 c3        1 1PX     -0.157000
      5 CAT        -4.9540   -9.1010    8.2250 c3        1 1PX     -0.158000
      6 CAW        -4.8660   -9.5780    6.7750 c3        1 1PX     -0.157000
      7 CAZ        -3.8310   -8.7160    6.0090 c3        1 1PX     -0.158000
      8 CBB        -3.9300   -9.0140    4.4820 c3        1 1PX     -0.157000
      9 CBC        -3.5220   -7.7470    3.6800 c3        1 1PX     -0.158000
     10 CBD        -3.0020   -8.1650    2.2790 c3        1 1PX     -0.155000
     11 CBE        -3.1080   -6.9630    1.3070 c3        1 1PX     -0.152000
     12 CBF        -1.7770   -6.7820    0.5720 c3        1 1PX     -0.167000
     13 CBG        -1.9060   -5.6420   -0.4480 c3        1 1PX     -0.137000
     14 CBH        -0.5170   -5.0280   -0.7130 c3        1 1PX     -0.205000
     15 CBI        -0.6700   -3.7650   -1.5350 c3        1 1PX     -0.159000
     16 CBM         0.7210   -3.0620   -1.6760 c2        1 1PX      0.287000
     17 OAC         1.7430   -3.6750   -1.4160 o         1 1PX     -0.490000
     18 NBK         0.7980   -1.7000   -2.1750 n         1 1PX     -0.342000
     19 CBO         2.0790   -1.1210   -2.5040 c3        1 1PX     -0.050000
     20 CBJ         2.3630   -1.3260   -3.9750 c3        1 1PX      0.061000
     21 OBL         3.4850   -2.1860   -4.1270 os        1 1PX     -0.724000
     22 PBP         4.0500   -2.4520   -5.6020 p5        1 1PX      1.563500
     23 OAF         5.3780   -3.1730   -5.5130 o         1 1PX     -0.914833
     24 OAG         4.2410   -1.1270   -6.3170 o         1 1PX     -0.914833
     25 OAD         3.0640   -3.3040   -6.3750 o         1 1PX     -0.914833
     26 CBN         2.0540    0.3600   -2.1970 c3        1 1PX      0.040000
     27 OAE         1.9060    1.0870   -3.3980 oh        1 1PX     -0.357000
     28 CAI         3.3460    0.7590   -1.5220 c2        1 1PX     -0.139000
     29 CAH         3.5620    2.0750   -1.1760 c1        1 1PX     -0.204000
     30 CAL         2.4900    3.1350   -1.4780 c2        1 1PX     -0.122000
     31 CAO         2.9080    4.4850   -0.8520 c3        1 1PX     -0.153000
     32 CAR         2.0990    5.6450   -1.5250 c3        1 1PX     -0.159000
     33 CAU         2.8650    7.0060   -1.3210 c3        1 1PX     -0.156000
     34 CAX         2.1220    8.1460   -2.0990 c3        1 1PX     -0.158000
     35 CBA         3.1070    9.3150   -2.3700 c3        1 1PX     -0.157000
     36 CAY         2.4400   10.3470   -3.3220 c3        1 1PX     -0.158000
     37 CAV         3.5200   11.2130   -3.9720 c3        1 1PX     -0.157000
     38 CAS         2.9050   12.0260   -5.1150 c3        1 1PX     -0.158000
     39 CAP         4.0170   12.6450   -5.9510 c3        1 1PX     -0.157000
     40 CAM         3.4060   13.4280   -7.1230 c3        1 1PX     -0.158000
     41 CAJ         4.5180   13.7800   -8.1420 c3        1 1PX     -0.159000
     42 CAA         3.9180   14.5140   -9.3090 c3        1 1PX     -0.210000
     43 H1         -7.8520   -9.3870   12.5650 hc        1 1PX      0.068000
     44 H2         -6.3370   -9.4900   13.0950 hc        1 1PX      0.068000
     45 H3         -7.3550  -10.7120   13.3340 hc        1 1PX      0.068000
     46 H4         -7.4380  -11.0080   10.9080 hc        1 1PX      0.076500
     47 H5         -5.9910  -11.3220   11.5130 hc        1 1PX      0.076500
     48 H6         -5.2160   -9.1890   10.8650 hc        1 1PX      0.078500
     49 H7         -6.6800   -8.7910   10.3520 hc        1 1PX      0.078500
     50 H8         -6.5470  -10.3590    8.5960 hc        1 1PX      0.077500
     51 H9         -5.1650  -10.9340    9.1610 hc        1 1PX      0.077500
     52 H10        -4.0520   -8.9940    8.5900 hc        1 1PX      0.078500
     53 H11        -5.4180   -8.2530    8.2580 hc        1 1PX      0.078500
     54 H12        -4.5850  -10.5200    6.7570 hc        1 1PX      0.076500
     55 H13        -5.7380   -9.4910    6.3510 hc        1 1PX      0.076500
     56 H14        -4.0150   -7.7660    6.1690 hc        1 1PX      0.079000
     57 H15        -2.9240   -8.9320    6.3280 hc        1 1PX      0.079000
     58 H16        -3.3300   -9.7490    4.2550 hc        1 1PX      0.076000
     59 H17        -4.8520   -9.2620    4.2560 hc        1 1PX      0.076000
     60 H18        -2.8150   -7.2690    4.1610 hc        1 1PX      0.081500
     61 H19        -4.3070   -7.1570    3.5770 hc        1 1PX      0.081500
     62 H20        -3.5380   -8.9030    1.9410 hc        1 1PX      0.074500
     63 H21        -2.0720   -8.4450    2.3480 hc        1 1PX      0.074500
     64 H22        -3.3150   -6.1470    1.8160 hc        1 1PX      0.063000
     65 H23        -3.8210   -7.1310    0.6550 hc        1 1PX      0.063000
     66 H24        -1.0740   -6.5640    1.2190 hc        1 1PX      0.101000
     67 H25        -1.5480   -7.6080    0.1090 hc        1 1PX      0.101000
     68 H26        -2.2730   -5.9930   -1.2850 hc        1 1PX      0.050500
     69 H27        -2.5050   -4.9530   -0.0930 hc        1 1PX      0.050500
     70 H28        -0.0890   -4.8120    0.1380 hc        1 1PX      0.144000
     71 H29         0.0380   -5.6720   -1.2030 hc        1 1PX      0.144000
     72 H30        -1.2930   -3.1660   -1.0950 hc        1 1PX      0.074500
     73 H31        -1.0100   -3.9940   -2.4210 hc        1 1PX      0.074500
     74 H32         0.0390   -1.2100   -2.2740 hn        1 1PX      0.327000
     75 H33         2.7820   -1.5540   -1.9710 h1        1 1PX      0.078000
     76 H34         2.5560   -0.4630   -4.3940 h1        1 1PX      0.046000
     77 H35         1.5900   -1.7260   -4.4010 h1        1 1PX      0.046000
     78 H38         1.3020    0.5560   -1.6040 h1        1 1PX      0.113000
     79 H39         1.0570    1.3250   -3.4960 ho        1 1PX      0.226000
     80 H40         4.0200    0.0920   -1.3320 ha        1 1PX      0.125000
     81 H41         4.3900    2.3320   -0.7430 ha        1 1PX      0.090000
     82 H42         2.3980    3.2390   -2.4460 ha        1 1PX      0.099500
     83 H43         1.6410    2.8530   -1.1000 ha        1 1PX      0.099500
     84 H44         3.8720    4.6300   -0.9970 hc        1 1PX      0.067000
     85 H45         2.7210    4.4710    0.1060 hc        1 1PX      0.067000
     86 H46         1.2130    5.7050   -1.1150 hc        1 1PX      0.081000
     87 H47         2.0040    5.4640   -2.4810 hc        1 1PX      0.081000
     88 H48         3.7800    6.9200   -1.6630 hc        1 1PX      0.073000
     89 H49         2.8920    7.2270   -0.3630 hc        1 1PX      0.073000
     90 H50         1.7910    7.7980   -2.9440 hc        1 1PX      0.079500
     91 H51         1.3690    8.4710   -1.5620 hc        1 1PX      0.079500
     92 H52         3.3360    9.7530   -1.5210 hc        1 1PX      0.075500
     93 H53         3.9180    8.9660   -2.7860 hc        1 1PX      0.075500
     94 H54         1.9410    9.8750   -4.0140 hc        1 1PX      0.079000
     95 H55         1.8270   10.9180   -2.8080 hc        1 1PX      0.079000
     96 H56         4.2300   10.6390   -4.3250 hc        1 1PX      0.076500
     97 H57         3.8950   11.8230   -3.3030 hc        1 1PX      0.076500
     98 H58         2.3620   11.4380   -5.6780 hc        1 1PX      0.079000
     99 H59         2.3430   12.7340   -4.7470 hc        1 1PX      0.079000
    100 H60         4.5950   11.9360   -6.2990 hc        1 1PX      0.077000
    101 H61         4.5420   13.2490   -5.3970 hc        1 1PX      0.077000
    102 H62         2.7140   12.8740   -7.5670 hc        1 1PX      0.079000
    103 H63         2.9950   14.2560   -6.7860 hc        1 1PX      0.079000
    104 H64         4.9420   12.9590   -8.4570 hc        1 1PX      0.076500
    105 H65         5.1810   14.3420   -7.7140 hc        1 1PX      0.076500
    106 H66         3.6940   15.4220   -9.0410 hc        1 1PX      0.069333
    107 H67         4.5640   14.5400  -10.0430 hc        1 1PX      0.069333
    108 H68         3.1040   14.0480   -9.6060 hc        1 1PX      0.069333
@<TRIPOS>BOND
     1    1    2 1   
     2    1   43 1   
     3    1   44 1   
     4    1   45 1   
     5    2    3 1   
     6    2   46 1   
     7    2   47 1   
     8    3    4 1   
     9    3   48 1   
    10    3   49 1   
    11    4    5 1   
    12    4   50 1   
    13    4   51 1   
    14    5    6 1   
    15    5   52 1   
    16    5   53 1   
    17    6    7 1   
    18    6   54 1   
    19    6   55 1   
    20    7    8 1   
    21    7   56 1   
    22    7   57 1   
    23    8    9 1   
    24    8   58 1   
    25    8   59 1   
    26    9   10 1   
    27    9   60 1   
    28    9   61 1   
    29   10   11 1   
    30   10   62 1   
    31   10   63 1   
    32   11   12 1   
    33   11   64 1   
    34   11   65 1   
    35   12   13 1   
    36   12   66 1   
    37   12   67 1   
    38   13   14 1   
    39   13   68 1   
    40   13   69 1   
    41   14   15 1   
    42   14   70 1   
    43   14   71 1   
    44   15   16 1   
    45   15   72 1   
    46   15   73 1   
    47   16   17 1   
    48   16   18 1   
    49   18   19 1   
    50   18   74 1   
    51   19   20 1   
    52   19   26 1   
    53   19   75 1   
    54   20   21 1   
    55   20   76 1   
    56   20   77 1   
    57   21   22 1   
    58   22   23 1   
    59   22   24 1   
    60   22   25 1   
    61   26   27 1   
    62   26   28 1   
    63   26   78 1   
    64   27   79 1   
    65   28   29 1   
    66   28   80 1   
    67   29   81 1   
    68   30   31 1   
    69   30   82 1   
    70   30   83 1   
    71   31   32 1   
    72   31   84 1   
    73   31   85 1   
    74   32   33 1   
    75   32   86 1   
    76   32   87 1   
    77   33   34 1   
    78   33   88 1   
    79   33   89 1   
    80   34   35 1   
    81   34   90 1   
    82   34   91 1   
    83   35   36 1   
    84   35   92 1   
    85   35   93 1   
    86   36   37 1   
    87   36   94 1   
    88   36   95 1   
    89   37   38 1   
    90   37   96 1   
    91   37   97 1   
    92   38   39 1   
    93   38   98 1   
    94   38   99 1   
    95   39   40 1   
    96   39  100 1   
    97   39  101 1   
    98   40   41 1   
    99   40  102 1   
   100   40  103 1   
   101   41   42 1   
   102   41  104 1   
   103   41  105 1   
   104   42  106 1   
   105   42  107 1   
   106   42  108 1   
@<TRIPOS>SUBSTRUCTURE
     1 1PX         1 TEMP              0 ****  ****    0 ROOT
