@<TRIPOS>MOLECULE
1PY
   19    19     1     0     0
SMALL
bcc


@<TRIPOS>ATOM
      1 O1         -0.0070    0.9400    0.1530 o         1 1PY     -0.811300
      2 O2          1.3480   -0.7600    0.7170 o         1 1PY     -0.811300
      3 O           2.8350    1.3350   -1.2240 o         1 1PY     -0.585100
      4 CA          1.9010    0.5280   -1.2220 c         1 1PY      0.471100
      5 CB          1.4810   -0.2580   -2.4430 c3        1 1PY     -0.168100
      6 CG          2.3350   -0.1630   -3.6520 ca        1 1PY     -0.041300
      7 CD1         2.6240   -1.3150   -4.3950 ca        1 1PY     -0.125000
      8 CE1         3.3890   -1.2370   -5.5580 ca        1 1PY     -0.141000
      9 CZ          3.8770   -0.0060   -5.9930 ca        1 1PY     -0.154000
     10 CE2         3.6020    1.1450   -5.2550 ca        1 1PY     -0.141000
     11 CD2         2.8360    1.0700   -4.0930 ca        1 1PY     -0.125000
     12 C           1.0120    0.2180   -0.0020 c         1 1PY      0.855600
     13 HB1         1.3920   -1.3300   -2.1140 hc        1 1PY      0.077700
     14 HB2         0.4440    0.0990   -2.7010 hc        1 1PY      0.077700
     15 HD1         2.2480   -2.2910   -4.0530 ha        1 1PY      0.141500
     16 HE1         3.6080   -2.1480   -6.1310 ha        1 1PY      0.114000
     17 HZ          4.4790    0.0560   -6.9090 ha        1 1PY      0.111000
     18 HE2         3.9940    2.1170   -5.5870 ha        1 1PY      0.114000
     19 HD2         2.6420    1.9720   -3.4910 ha        1 1PY      0.141500
@<TRIPOS>BOND
     1    1   12 1   
     2    2   12 1   
     3    3    4 2   
     4    4    5 1   
     5    4   12 1   
     6    5    6 1   
     7    5   13 1   
     8    5   14 1   
     9    6    7 ar  
    10    6   11 ar  
    11    7    8 ar  
    12    7   15 1   
    13    8    9 ar  
    14    8   16 1   
    15    9   10 ar  
    16    9   17 1   
    17   10   11 ar  
    18   10   18 1   
    19   11   19 1   
@<TRIPOS>SUBSTRUCTURE
     1 1PY         1 TEMP              0 ****  ****    0 ROOT
