@<TRIPOS>MOLECULE
1PY
   19    16     1     0     0
SMALL
bcc


@<TRIPOS>ATOM
      1 O1         -1.4290    0.2240    4.2270 o         1 1PY     -0.547000
      2 O2         -1.9950   -1.6540    3.2730 o         1 1PY     -0.547000
      3 O           0.7150   -0.6260    2.0890 o         1 1PY     -0.337000
      4 CA         -0.4420   -0.2540    2.0870 c1        1 1PY      0.181000
      5 CB         -0.9750    0.5550    0.9250 c2        1 1PY     -0.206000
      6 CG         -0.1230    0.3000   -0.2990 c2        1 1PY     -0.023000
      7 CD1         0.8850    1.1890   -0.6400 c2        1 1PY     -0.127000
      8 CE1         1.6460    0.9710   -1.7780 c1        1 1PY     -0.137000
      9 CZ          1.3990   -0.1360   -2.5750 c1        1 1PY     -0.146000
     10 CE2         0.3920   -1.0250   -2.2340 c1        1 1PY     -0.146000
     11 CD2        -0.3690   -0.8070   -1.0960 c1        1 1PY     -0.127000
     12 C          -1.3420   -0.5780    3.2590 c2        1 1PY      0.325000
     13 HB1        -1.8980    0.2910    0.7400 ha        1 1PY      0.114000
     14 HB2        -0.9460    1.5060    1.1490 ha        1 1PY      0.114000
     15 HD1         1.0620    1.9650   -0.0750 ha        1 1PY      0.134000
     16 HE1         2.3550    1.5970   -2.0170 ha        1 1PY      0.114000
     17 HZ          1.9350   -0.2890   -3.3760 ha        1 1PY      0.112500
     18 HE2         0.2090   -1.7960   -2.8030 ha        1 1PY      0.112500
     19 HD2        -1.0790   -1.4330   -0.8570 ha        1 1PY      0.134000
@<TRIPOS>BOND
     1    1   12 1   
     2    2   12 1   
     3    3    4 1   
     4    4   12 1   
     5    5    6 1   
     6    5   13 1   
     7    5   14 1   
     8    6    7 1   
     9    6   11 1   
    10    7    8 1   
    11    7   15 1   
    12    8   16 1   
    13    9   10 1   
    14    9   17 1   
    15   10   18 1   
    16   11   19 1   
@<TRIPOS>SUBSTRUCTURE
     1 1PY         1 TEMP              0 ****  ****    0 ROOT
