@<TRIPOS>MOLECULE
1PY
   19    19     1     0     0
SMALL
bcc


@<TRIPOS>ATOM
      1 O1         -1.1370    0.9250    3.3860 o         1 1PY     -0.811300
      2 O2          0.3380   -0.7680    3.4100 o         1 1PY     -0.811300
      3 O           1.0020    1.3360    1.0660 o         1 1PY     -0.585100
      4 CA          0.1380    0.5240    1.4070 c         1 1PY      0.471100
      5 CB         -0.6960   -0.2640    0.4220 c3        1 1PY     -0.168100
      6 CG         -0.3440   -0.1630   -1.0160 ca        1 1PY     -0.041300
      7 CD1        -0.3410   -1.3140   -1.8150 ca        1 1PY     -0.125000
      8 CE1        -0.0550   -1.2310   -3.1770 ca        1 1PY     -0.141000
      9 CZ          0.2340    0.0030   -3.7570 ca        1 1PY     -0.154000
     10 CE2         0.2430    1.1520   -2.9670 ca        1 1PY     -0.141000
     11 CD2        -0.0440    1.0720   -1.6060 ca        1 1PY     -0.125000
     12 C          -0.2410    0.2080    2.8660 c         1 1PY      0.855600
     13 HB1        -0.6530   -1.3370    0.7580 hc        1 1PY      0.077700
     14 HB2        -1.7570    0.0880    0.5620 hc        1 1PY      0.077700
     15 HD1        -0.5610   -2.2920   -1.3610 ha        1 1PY      0.141500
     16 HE1        -0.0560   -2.1410   -3.7930 ha        1 1PY      0.114000
     17 HZ          0.4600    0.0690   -4.8300 ha        1 1PY      0.111000
     18 HE2         0.4820    2.1260   -3.4180 ha        1 1PY      0.114000
     19 HD2        -0.0090    1.9730   -0.9730 ha        1 1PY      0.141500
@<TRIPOS>BOND
     1    1   12 1   
     2    2   12 1   
     3    3    4 2   
     4    4    5 1   
     5    4   12 1   
     6    5    6 1   
     7    5   13 1   
     8    5   14 1   
     9    6    7 ar  
    10    6   11 ar  
    11    7    8 ar  
    12    7   15 1   
    13    8    9 ar  
    14    8   16 1   
    15    9   10 ar  
    16    9   17 1   
    17   10   11 ar  
    18   10   18 1   
    19   11   19 1   
@<TRIPOS>SUBSTRUCTURE
     1 1PY         1 TEMP              0 ****  ****    0 ROOT
