@<TRIPOS>MOLECULE
1PZ
   96    95     1     0     0
SMALL
bcc


@<TRIPOS>ATOM
      1 CAS         0.5430   -3.9610   -0.3400 c3        1 1PZ     -0.091100
      2 CAF         1.6130   -4.3500    0.6480 c3        1 1PZ     -0.080400
      3 CAG         2.5510   -3.1970    0.9340 c3        1 1PZ     -0.079400
      4 CAH         3.6240   -3.5910    1.9250 c3        1 1PZ     -0.078400
      5 CAI         4.5610   -2.4370    2.2100 c3        1 1PZ     -0.079400
      6 CAJ         5.6350   -2.8320    3.2020 c3        1 1PZ     -0.078400
      7 CAK         6.5720   -1.6770    3.4870 c3        1 1PZ     -0.080400
      8 CAL         7.6460   -2.0700    4.4780 c3        1 1PZ     -0.077400
      9 CAM         8.5820   -0.9150    4.7630 c3        1 1PZ     -0.080400
     10 CAN         9.6580   -1.3060    5.7540 c3        1 1PZ     -0.076400
     11 CAO        10.5900   -0.1480    6.0390 c3        1 1PZ     -0.082400
     12 CAP        11.6720   -0.5350    7.0250 c3        1 1PZ     -0.070400
     13 CAQ        12.5880    0.6300    7.3460 c3        1 1PZ     -0.031200
     14 CAE        11.9350    1.6750    8.1680 c2        1 1PZ     -0.233200
     15 CAD        12.4730    2.8570    8.4870 c2        1 1PZ     -0.106200
     16 CAC        13.8100    3.4090    8.1300 c3        1 1PZ      0.148300
     17 OAR        14.5960    2.4380    7.4580 oh        1 1PZ     -0.662800
     18 CAB        13.6610    4.6970    7.2530 c3        1 1PZ      0.026700
     19 CAA        15.0850    5.1360    6.7390 c3        1 1PZ      0.220400
     20 OBB        15.7310    6.0680    7.5070 os        1 1PZ     -0.582200
     21 PAX        16.4290    5.5840    9.0110 p5        1 1PZ      1.338900
     22 OAZ        16.4880    4.0840    8.8390 o         1 1PZ     -0.925167
     23 OBA        17.7220    6.3270    9.1060 o         1 1PZ     -0.925167
     24 OAY        15.2790    6.0470    9.8840 o         1 1PZ     -0.925167
     25 NAW        13.0470    5.7360    8.0630 n         1 1PZ     -0.520900
     26 CAU        12.2460    6.7130    7.5440 c         1 1PZ      0.648100
     27 OAV        11.5880    6.6010    6.4760 o         1 1PZ     -0.712100
     28 CAT        12.0430    7.9620    8.4000 c3        1 1PZ     -0.139400
     29 CBC        13.3540    8.5810    8.8310 c3        1 1PZ     -0.120400
     30 CBD        13.1290    9.9100    9.5200 c3        1 1PZ     -0.060400
     31 CBE        14.4460   10.4990    9.9780 c3        1 1PZ     -0.089400
     32 CBF        14.2430   11.7920   10.7380 c3        1 1PZ     -0.072400
     33 CBG        15.5660   12.3750   11.1880 c3        1 1PZ     -0.082400
     34 CBH        15.3710   13.6610   11.9610 c3        1 1PZ     -0.076400
     35 CBI        16.6950   14.2410   12.4090 c3        1 1PZ     -0.081400
     36 CBJ        16.5030   15.5260   13.1850 c3        1 1PZ     -0.077400
     37 CBK        17.8280   16.1050   13.6320 c3        1 1PZ     -0.082400
     38 CBL        17.6430   17.3850   14.4050 c3        1 1PZ     -0.090100
     39 H1         -0.0680   -3.1130    0.0540 hc        1 1PZ      0.029700
     40 H2          0.9980   -3.6430   -1.3090 hc        1 1PZ      0.029700
     41 H3         -0.1380   -4.8240   -0.5360 hc        1 1PZ      0.029700
     42 H4          2.1990   -5.2180    0.2460 hc        1 1PZ      0.036700
     43 H5          1.1360   -4.6890    1.6050 hc        1 1PZ      0.036700
     44 H6          3.0300   -2.8560   -0.0220 hc        1 1PZ      0.039700
     45 H7          1.9670   -2.3280    1.3370 hc        1 1PZ      0.039700
     46 H8          4.2090   -4.4600    1.5220 hc        1 1PZ      0.037200
     47 H9          3.1460   -3.9310    2.8820 hc        1 1PZ      0.037200
     48 H10         5.0400   -2.0970    1.2550 hc        1 1PZ      0.040200
     49 H11         3.9770   -1.5690    2.6150 hc        1 1PZ      0.040200
     50 H12         5.1570   -3.1720    4.1580 hc        1 1PZ      0.036200
     51 H13         6.2200   -3.7000    2.7980 hc        1 1PZ      0.036200
     52 H14         5.9880   -0.8090    3.8910 hc        1 1PZ      0.040700
     53 H15         7.0500   -1.3360    2.5310 hc        1 1PZ      0.040700
     54 H16         7.1680   -2.4110    5.4350 hc        1 1PZ      0.033700
     55 H17         8.2310   -2.9380    4.0740 hc        1 1PZ      0.033700
     56 H18         9.0600   -0.5740    3.8070 hc        1 1PZ      0.042200
     57 H19         7.9980   -0.0470    5.1670 hc        1 1PZ      0.042200
     58 H20         9.1810   -1.6490    6.7090 hc        1 1PZ      0.028700
     59 H21        10.2450   -2.1720    5.3490 hc        1 1PZ      0.028700
     60 H22        10.0070    0.7180    6.4510 hc        1 1PZ      0.049200
     61 H23        11.0630    0.2000    5.0830 hc        1 1PZ      0.049200
     62 H24        11.2000   -0.9190    7.9670 hc        1 1PZ      0.017700
     63 H25        12.2810   -1.3730    6.5940 hc        1 1PZ      0.017700
     64 H26        12.9700    1.0890    6.3930 hc        1 1PZ      0.062700
     65 H27        13.4930    0.2490    7.8930 hc        1 1PZ      0.062700
     66 H28        10.9270    1.4220    8.5370 ha        1 1PZ      0.079000
     67 H30        11.8850    3.5560    9.1100 ha        1 1PZ      0.115000
     68 H32        14.3750    3.7310    9.0740 h1        1 1PZ      0.139700
     69 H33        15.5120    2.6060    7.7580 ho        1 1PZ      0.470000
     70 H34        13.0150    4.4720    6.3620 h1        1 1PZ      0.041700
     71 H35        14.9180    5.5900    5.7170 h1        1 1PZ     -0.006300
     72 H36        15.7210    4.2180    6.6200 h1        1 1PZ     -0.006300
     73 H39        13.6960    6.0060    8.8220 hn        1 1PZ      0.388500
     74 H40        11.4360    7.6840    9.3010 hc        1 1PZ      0.031700
     75 H41        11.4450    8.6940    7.7970 hc        1 1PZ      0.031700
     76 H42        14.0140    8.7230    7.9350 hc        1 1PZ      0.105700
     77 H43        13.9200    7.8870    9.5250 hc        1 1PZ      0.105700
     78 H44        12.4530    9.7670   10.4050 hc        1 1PZ      0.009200
     79 H45        12.6140   10.6270    8.8260 hc        1 1PZ      0.009200
     80 H46        15.1020   10.6820    9.0860 hc        1 1PZ      0.065200
     81 H47        14.9810    9.7520   10.6240 hc        1 1PZ      0.065200
     82 H48        13.5920   11.6050   11.6320 hc        1 1PZ      0.021700
     83 H49        13.7070   12.5340   10.0890 hc        1 1PZ      0.021700
     84 H50        16.2140   12.5680   10.2930 hc        1 1PZ      0.048200
     85 H51        16.1050   11.6260   11.8270 hc        1 1PZ      0.048200
     86 H52        14.7240   13.4660   12.8570 hc        1 1PZ      0.029700
     87 H53        14.8310   14.4080   11.3220 hc        1 1PZ      0.029700
     88 H54        17.2350   13.4920   13.0470 hc        1 1PZ      0.042200
     89 H55        17.3420   14.4350   11.5120 hc        1 1PZ      0.042200
     90 H56        15.9630   16.2740   12.5460 hc        1 1PZ      0.033700
     91 H57        15.8570   15.3310   14.0810 hc        1 1PZ      0.033700
     92 H58        18.3670   15.3550   14.2690 hc        1 1PZ      0.039700
     93 H59        18.4730   16.2970   12.7340 hc        1 1PZ      0.039700
     94 H60        18.6320   17.7940   14.7250 hc        1 1PZ      0.025700
     95 H61        17.0230   17.2080   15.3170 hc        1 1PZ      0.025700
     96 H62        17.1290   18.1540   13.7780 hc        1 1PZ      0.025700
@<TRIPOS>BOND
     1    1    2 1   
     2    1   39 1   
     3    1   40 1   
     4    1   41 1   
     5    2    3 1   
     6    2   42 1   
     7    2   43 1   
     8    3    4 1   
     9    3   44 1   
    10    3   45 1   
    11    4    5 1   
    12    4   46 1   
    13    4   47 1   
    14    5    6 1   
    15    5   48 1   
    16    5   49 1   
    17    6    7 1   
    18    6   50 1   
    19    6   51 1   
    20    7    8 1   
    21    7   52 1   
    22    7   53 1   
    23    8    9 1   
    24    8   54 1   
    25    8   55 1   
    26    9   10 1   
    27    9   56 1   
    28    9   57 1   
    29   10   11 1   
    30   10   58 1   
    31   10   59 1   
    32   11   12 1   
    33   11   60 1   
    34   11   61 1   
    35   12   13 1   
    36   12   62 1   
    37   12   63 1   
    38   13   14 1   
    39   13   64 1   
    40   13   65 1   
    41   14   15 2   
    42   14   66 1   
    43   15   16 1   
    44   15   67 1   
    45   16   17 1   
    46   16   18 1   
    47   16   68 1   
    48   17   69 1   
    49   18   19 1   
    50   18   25 1   
    51   18   70 1   
    52   19   20 1   
    53   19   71 1   
    54   19   72 1   
    55   20   21 1   
    56   21   22 1   
    57   21   23 1   
    58   21   24 1   
    59   25   26 1   
    60   25   73 1   
    61   26   27 2   
    62   26   28 1   
    63   28   29 1   
    64   28   74 1   
    65   28   75 1   
    66   29   30 1   
    67   29   76 1   
    68   29   77 1   
    69   30   31 1   
    70   30   78 1   
    71   30   79 1   
    72   31   32 1   
    73   31   80 1   
    74   31   81 1   
    75   32   33 1   
    76   32   82 1   
    77   32   83 1   
    78   33   34 1   
    79   33   84 1   
    80   33   85 1   
    81   34   35 1   
    82   34   86 1   
    83   34   87 1   
    84   35   36 1   
    85   35   88 1   
    86   35   89 1   
    87   36   37 1   
    88   36   90 1   
    89   36   91 1   
    90   37   38 1   
    91   37   92 1   
    92   37   93 1   
    93   38   94 1   
    94   38   95 1   
    95   38   96 1   
@<TRIPOS>SUBSTRUCTURE
     1 1PZ         1 TEMP              0 ****  ****    0 ROOT
