@<TRIPOS>MOLECULE
1PZ
   96    95     1     0     0
SMALL
bcc


@<TRIPOS>ATOM
      1 CAS       -17.9820    0.4120    0.2910 c3        1 1PZ     -0.091100
      2 CAF       -16.6850    0.8680    0.9080 c3        1 1PZ     -0.080400
      3 CAG       -15.5020    0.5390    0.0230 c3        1 1PZ     -0.079400
      4 CAH       -14.2010    0.9990    0.6460 c3        1 1PZ     -0.079400
      5 CAI       -13.0190    0.6690   -0.2400 c3        1 1PZ     -0.078400
      6 CAJ       -11.7190    1.1290    0.3840 c3        1 1PZ     -0.079400
      7 CAK       -10.5360    0.7990   -0.5020 c3        1 1PZ     -0.078400
      8 CAL        -9.2360    1.2600    0.1210 c3        1 1PZ     -0.079400
      9 CAM        -8.0530    0.9290   -0.7630 c3        1 1PZ     -0.078400
     10 CAN        -6.7530    1.3900   -0.1400 c3        1 1PZ     -0.079400
     11 CAO        -5.5690    1.0600   -1.0240 c3        1 1PZ     -0.079400
     12 CAP        -4.2690    1.5200   -0.3990 c3        1 1PZ     -0.076400
     13 CAQ        -3.0840    1.1890   -1.2850 c3        1 1PZ     -0.030200
     14 CAE        -1.8110    1.6520   -0.6810 c2        1 1PZ     -0.232200
     15 CAD        -0.7320    0.8760   -0.5510 c2        1 1PZ     -0.123200
     16 CAC         0.5740    1.3250    0.0210 c3        1 1PZ      0.173300
     17 OAR         0.3700    2.5060    0.7850 oh        1 1PZ     -0.647800
     18 CAB         1.2060    0.1780    0.8690 c3        1 1PZ      0.035700
     19 CAA         2.1200    0.7720    1.9940 c3        1 1PZ      0.200400
     20 OBB         3.0440    1.6420    1.4760 os        1 1PZ     -0.579200
     21 PAX         4.6900    1.0810    1.5470 p5        1 1PZ      1.333900
     22 OAZ         4.7710    0.5640    2.9530 o         1 1PZ     -0.915833
     23 OBA         4.6390   -0.0180    0.4970 o         1 1PZ     -0.915833
     24 OAY         5.4660    2.3050    1.1820 o         1 1PZ     -0.915833
     25 NAW         1.9800   -0.7110    0.0340 n         1 1PZ     -0.544900
     26 CAU         1.5400   -1.9010   -0.4360 c         1 1PZ      0.641100
     27 OAV         0.3340   -2.2800   -0.3840 o         1 1PZ     -0.740100
     28 CAT         2.5620   -2.7960   -1.1320 c3        1 1PZ     -0.131400
     29 CBC         3.7960   -3.0300   -0.2910 c3        1 1PZ     -0.123400
     30 CBD         4.7440   -3.9900   -0.9780 c3        1 1PZ     -0.060400
     31 CBE         6.0140   -4.1530   -0.1700 c3        1 1PZ     -0.087400
     32 CBF         7.0060   -5.0570   -0.8700 c3        1 1PZ     -0.073400
     33 CBG         8.2740   -5.2110   -0.0580 c3        1 1PZ     -0.082400
     34 CBH         9.2760   -6.1040   -0.7590 c3        1 1PZ     -0.076400
     35 CBI        10.5430   -6.2550    0.0550 c3        1 1PZ     -0.080400
     36 CBJ        11.5460   -7.1470   -0.6440 c3        1 1PZ     -0.077400
     37 CBK        12.8140   -7.2970    0.1690 c3        1 1PZ     -0.081400
     38 CBL        13.8170   -8.1830   -0.5220 c3        1 1PZ     -0.090100
     39 H1        -18.8400    0.6640    0.9600 hc        1 1PZ      0.030033
     40 H2        -18.1450    0.9080   -0.6960 hc        1 1PZ      0.030033
     41 H3        -17.9740   -0.6930    0.1300 hc        1 1PZ      0.030033
     42 H4        -16.7210    1.9760    1.0860 hc        1 1PZ      0.038200
     43 H5        -16.5500    0.3780    1.9090 hc        1 1PZ      0.038200
     44 H6        -15.4620   -0.5690   -0.1540 hc        1 1PZ      0.038200
     45 H7        -15.6330    1.0290   -0.9780 hc        1 1PZ      0.038200
     46 H8        -14.2400    2.1060    0.8230 hc        1 1PZ      0.039200
     47 H9        -14.0700    0.5090    1.6470 hc        1 1PZ      0.039200
     48 H10       -12.9790   -0.4390   -0.4170 hc        1 1PZ      0.038200
     49 H11       -13.1500    1.1580   -1.2400 hc        1 1PZ      0.038200
     50 H12       -11.7580    2.2360    0.5610 hc        1 1PZ      0.038700
     51 H13       -11.5870    0.6390    1.3840 hc        1 1PZ      0.038700
     52 H14       -10.4960   -0.3080   -0.6780 hc        1 1PZ      0.037700
     53 H15       -10.6680    1.2880   -1.5030 hc        1 1PZ      0.037700
     54 H16        -9.2750    2.3670    0.2990 hc        1 1PZ      0.039200
     55 H17        -9.1040    0.7700    1.1220 hc        1 1PZ      0.039200
     56 H18        -8.0130   -0.1780   -0.9400 hc        1 1PZ      0.036200
     57 H19        -8.1840    1.4180   -1.7640 hc        1 1PZ      0.036200
     58 H20        -6.7920    2.4970    0.0370 hc        1 1PZ      0.038700
     59 H21        -6.6210    0.9000    0.8610 hc        1 1PZ      0.038700
     60 H22        -5.5290   -0.0470   -1.2000 hc        1 1PZ      0.033700
     61 H23        -5.7000    1.5490   -2.0250 hc        1 1PZ      0.033700
     62 H24        -4.3070    2.6260   -0.2190 hc        1 1PZ      0.041700
     63 H25        -4.1350    1.0270    0.6000 hc        1 1PZ      0.041700
     64 H26        -3.0550    0.0820   -1.4700 hc        1 1PZ      0.029200
     65 H27        -3.2210    1.6870   -2.2840 hc        1 1PZ      0.029200
     66 H28        -1.7990    2.6960   -0.3320 ha        1 1PZ      0.126000
     67 H30        -0.7270   -0.1840   -0.8720 ha        1 1PZ      0.148000
     68 H32         1.2700    1.5810   -0.8340 h1        1 1PZ      0.056700
     69 H33         1.2530    2.7830    1.0840 ho        1 1PZ      0.454000
     70 H34         0.3690   -0.3960    1.3610 h1        1 1PZ      0.035700
     71 H35         1.4290    1.3160    2.7020 h1        1 1PZ      0.014700
     72 H36         2.6220   -0.0670    2.5550 h1        1 1PZ      0.014700
     73 H39         3.0010   -0.4840    0.0380 hn        1 1PZ      0.416500
     74 H40         2.0570   -3.7690   -1.3670 hc        1 1PZ      0.035200
     75 H41         2.8500   -2.3140   -2.1030 hc        1 1PZ      0.035200
     76 H42         4.3330   -2.0490   -0.0870 hc        1 1PZ      0.103200
     77 H43         3.4980   -3.4480    0.7060 hc        1 1PZ      0.103200
     78 H44         4.2540   -4.9900   -1.1200 hc        1 1PZ      0.012200
     79 H45         4.9980   -3.5990   -1.9990 hc        1 1PZ      0.012200
     80 H46         6.4710   -3.1410    0.0030 hc        1 1PZ      0.060200
     81 H47         5.7650   -4.5760    0.8380 hc        1 1PZ      0.060200
     82 H48         6.5450   -6.0660   -1.0430 hc        1 1PZ      0.024700
     83 H49         7.2550   -4.6310   -1.8770 hc        1 1PZ      0.024700
     84 H50         8.7280   -4.2000    0.1180 hc        1 1PZ      0.046200
     85 H51         8.0260   -5.6400    0.9480 hc        1 1PZ      0.046200
     86 H52         8.8200   -7.1140   -0.9360 hc        1 1PZ      0.031200
     87 H53         9.5240   -5.6730   -1.7640 hc        1 1PZ      0.031200
     88 H54        10.9960   -5.2440    0.2320 hc        1 1PZ      0.041700
     89 H55        10.2940   -6.6850    1.0610 hc        1 1PZ      0.041700
     90 H56        11.0930   -8.1570   -0.8220 hc        1 1PZ      0.034700
     91 H57        11.7950   -6.7150   -1.6500 hc        1 1PZ      0.034700
     92 H58        13.2650   -6.2840    0.3470 hc        1 1PZ      0.038700
     93 H59        12.5630   -7.7250    1.1750 hc        1 1PZ      0.038700
     94 H60        14.7430   -8.2800    0.0940 hc        1 1PZ      0.026033
     95 H61        13.3940   -9.2040   -0.6860 hc        1 1PZ      0.026033
     96 H62        14.0980   -7.7580   -1.5170 hc        1 1PZ      0.026033
@<TRIPOS>BOND
     1    1    2 1   
     2    1   39 1   
     3    1   40 1   
     4    1   41 1   
     5    2    3 1   
     6    2   42 1   
     7    2   43 1   
     8    3    4 1   
     9    3   44 1   
    10    3   45 1   
    11    4    5 1   
    12    4   46 1   
    13    4   47 1   
    14    5    6 1   
    15    5   48 1   
    16    5   49 1   
    17    6    7 1   
    18    6   50 1   
    19    6   51 1   
    20    7    8 1   
    21    7   52 1   
    22    7   53 1   
    23    8    9 1   
    24    8   54 1   
    25    8   55 1   
    26    9   10 1   
    27    9   56 1   
    28    9   57 1   
    29   10   11 1   
    30   10   58 1   
    31   10   59 1   
    32   11   12 1   
    33   11   60 1   
    34   11   61 1   
    35   12   13 1   
    36   12   62 1   
    37   12   63 1   
    38   13   14 1   
    39   13   64 1   
    40   13   65 1   
    41   14   15 2   
    42   14   66 1   
    43   15   16 1   
    44   15   67 1   
    45   16   17 1   
    46   16   18 1   
    47   16   68 1   
    48   17   69 1   
    49   18   19 1   
    50   18   25 1   
    51   18   70 1   
    52   19   20 1   
    53   19   71 1   
    54   19   72 1   
    55   20   21 1   
    56   21   22 1   
    57   21   23 1   
    58   21   24 1   
    59   25   26 1   
    60   25   73 1   
    61   26   27 2   
    62   26   28 1   
    63   28   29 1   
    64   28   74 1   
    65   28   75 1   
    66   29   30 1   
    67   29   76 1   
    68   29   77 1   
    69   30   31 1   
    70   30   78 1   
    71   30   79 1   
    72   31   32 1   
    73   31   80 1   
    74   31   81 1   
    75   32   33 1   
    76   32   82 1   
    77   32   83 1   
    78   33   34 1   
    79   33   84 1   
    80   33   85 1   
    81   34   35 1   
    82   34   86 1   
    83   34   87 1   
    84   35   36 1   
    85   35   88 1   
    86   35   89 1   
    87   36   37 1   
    88   36   90 1   
    89   36   91 1   
    90   37   38 1   
    91   37   92 1   
    92   37   93 1   
    93   38   94 1   
    94   38   95 1   
    95   38   96 1   
@<TRIPOS>SUBSTRUCTURE
     1 1PZ         1 TEMP              0 ****  ****    0 ROOT
