@<TRIPOS>MOLECULE
1PZ
   96    93     1     0     0
SMALL
bcc


@<TRIPOS>ATOM
      1 CAS         7.1420   -7.6020    3.4570 c3        1 1PZ     -0.210000
      2 CAF         7.2220   -8.5600    2.2890 c3        1 1PZ     -0.158000
      3 CAG         5.8550   -9.1530    2.0280 c3        1 1PZ     -0.159000
      4 CAH         5.7930   -9.6700    0.6070 c3        1 1PZ     -0.157000
      5 CAI         4.3460   -9.8470    0.1980 c3        1 1PZ     -0.159000
      6 CAJ         4.2180   -9.6520   -1.2970 c3        1 1PZ     -0.156000
      7 CAK         2.8430   -9.1100   -1.6180 c3        1 1PZ     -0.159000
      8 CAL         2.8990   -8.3250   -2.9110 c3        1 1PZ     -0.154000
      9 CAM         1.7520   -7.3400   -2.9530 c3        1 1PZ     -0.158000
     10 CAN         2.1650   -6.1190   -3.7470 c3        1 1PZ     -0.158000
     11 CAO         1.2100   -4.9820   -3.4550 c3        1 1PZ     -0.159000
     12 CAP         1.9550   -3.6670   -3.5310 c3        1 1PZ     -0.153000
     13 CAQ         1.0140   -2.5340   -3.1850 c3        1 1PZ     -0.122000
     14 CAE         1.7870   -1.2340   -3.1330 c2        1 1PZ     -0.223000
     15 CAD         1.1720   -0.1000   -2.7420 c1        1 1PZ     -0.140000
     16 CAC        -0.2900   -0.1260   -2.3560 c2        1 1PZ      0.047000
     17 OAR        -0.4300   -0.7230   -1.0890 oh        1 1PZ     -0.380000
     18 CAB        -0.8240    1.2870   -2.3100 c3        1 1PZ     -0.036000
     19 CAA        -0.4030    2.0260   -3.5610 c3        1 1PZ      0.059000
     20 OBB        -1.4730    2.8200   -4.0200 os        1 1PZ     -0.735000
     21 PAX        -1.4540    3.3160   -5.5210 p5        1 1PZ      1.570500
     22 OAZ        -2.7010    4.1190   -5.8010 o         1 1PZ     -0.914833
     23 OBA        -0.2370    4.1790   -5.7500 o         1 1PZ     -0.914833
     24 OAY        -1.4060    2.1220   -6.4440 o         1 1PZ     -0.914833
     25 NAW        -0.3030    1.9530   -1.1690 n3        1 1PZ     -0.350000
     26 CAU        -1.0950    2.9110   -0.4840 c1        1 1PZ      0.291000
     27 OAV        -2.1770    3.2350   -0.9300 o         1 1PZ     -0.507000
     28 CAT        -0.6000    3.5140    0.8130 c2        1 1PZ     -0.159000
     29 CBC        -1.1380    4.9210    0.9530 c3        1 1PZ     -0.192000
     30 CBD        -1.5550    5.1610    2.3870 c3        1 1PZ     -0.142000
     31 CBE        -1.9050    6.6210    2.5730 c3        1 1PZ     -0.140000
     32 CBF        -3.0130    6.7470    3.5960 c3        1 1PZ     -0.200000
     33 CBG        -3.4560    8.1910    3.6830 c3        1 1PZ     -0.129000
     34 CBH        -4.9270    8.2470    4.0290 c3        1 1PZ     -0.189000
     35 CBI        -5.3800    9.6900    4.0760 c3        1 1PZ     -0.125000
     36 CBJ        -6.8740    9.7570    3.8460 c3        1 1PZ     -0.199000
     37 CBK        -7.3510   11.1800    4.0410 c3        1 1PZ     -0.144000
     38 CBL        -8.7870   11.2980    3.5810 c3        1 1PZ     -0.205000
     39 H1          7.1970   -8.1050    4.2970 hc        1 1PZ      0.069333
     40 H2          6.2920   -7.1160    3.4230 hc        1 1PZ      0.069333
     41 H3          7.8850   -6.9650    3.4090 hc        1 1PZ      0.069333
     42 H4          7.5260   -8.0790    1.4930 hc        1 1PZ      0.075500
     43 H5          7.8540   -9.2770    2.4980 hc        1 1PZ      0.075500
     44 H6          5.1710   -8.4650    2.1550 hc        1 1PZ      0.080000
     45 H7          5.6950   -9.8900    2.6510 hc        1 1PZ      0.080000
     46 H8          6.2540  -10.5310    0.5530 hc        1 1PZ      0.075500
     47 H9          6.2250   -9.0300    0.0080 hc        1 1PZ      0.075500
     48 H10         4.0480  -10.7480    0.4360 hc        1 1PZ      0.081000
     49 H11         3.7930   -9.1870    0.6620 hc        1 1PZ      0.081000
     50 H12         4.8980   -9.0180   -1.6030 hc        1 1PZ      0.074000
     51 H13         4.3440  -10.5090   -1.7500 hc        1 1PZ      0.074000
     52 H14         2.2140   -9.8520   -1.7150 hc        1 1PZ      0.083500
     53 H15         2.5460   -8.5230   -0.8940 hc        1 1PZ      0.083500
     54 H16         2.8290   -8.9400   -3.6680 hc        1 1PZ      0.071000
     55 H17         3.7470   -7.8410   -2.9610 hc        1 1PZ      0.071000
     56 H18         0.9780   -7.7590   -3.3790 hc        1 1PZ      0.077500
     57 H19         1.5180   -7.0730   -2.0420 hc        1 1PZ      0.077500
     58 H20         3.0720   -5.8570   -3.4930 hc        1 1PZ      0.074500
     59 H21         2.1410   -6.3280   -4.7020 hc        1 1PZ      0.074500
     60 H22         0.4880   -4.9860   -4.1140 hc        1 1PZ      0.078000
     61 H23         0.8350   -5.0930   -2.5590 hc        1 1PZ      0.078000
     62 H24         2.7000   -3.6770   -2.8970 hc        1 1PZ      0.070000
     63 H25         2.3000   -3.5390   -4.4370 hc        1 1PZ      0.070000
     64 H26         0.6040   -2.7050   -2.3140 hc        1 1PZ      0.090500
     65 H27         0.3150   -2.4700   -3.8680 hc        1 1PZ      0.090500
     66 H28         2.7300   -1.2170   -3.3820 ha        1 1PZ      0.101000
     67 H30         1.6710    0.7380   -2.7080 ha        1 1PZ      0.194000
     68 H32        -0.7920   -0.6430   -3.0170 h4        1 1PZ      0.104000
     69 H33        -1.1760   -1.2060   -1.0700 ho        1 1PZ      0.229000
     70 H34        -1.8000    1.2650   -2.2580 h1        1 1PZ      0.068000
     71 H35         0.3650    2.5990   -3.3590 h1        1 1PZ      0.053500
     72 H36        -0.1560    1.3800   -4.2540 h1        1 1PZ      0.053500
     73 H39         0.5340    1.7530   -0.8670 hn        1 1PZ      0.327000
     74 H40         0.3780    3.5380    0.8080 ha        1 1PZ      0.081000
     75 H41        -0.9090    2.9700    1.5640 ha        1 1PZ      0.081000
     76 H42        -1.9120    5.0340    0.3650 hc        1 1PZ      0.127000
     77 H43        -0.4430    5.5620    0.7030 hc        1 1PZ      0.127000
     78 H44        -2.3350    4.6090    2.5970 hc        1 1PZ      0.052500
     79 H45        -0.8170    4.9240    2.9850 hc        1 1PZ      0.052500
     80 H46        -1.1160    7.1080    2.8850 hc        1 1PZ      0.048500
     81 H47        -2.2040    6.9960    1.7210 hc        1 1PZ      0.048500
     82 H48        -2.6850    6.4540    4.4690 hc        1 1PZ      0.123500
     83 H49        -3.7700    6.1900    3.3270 hc        1 1PZ      0.123500
     84 H50        -3.3070    8.6310    2.8220 hc        1 1PZ      0.041500
     85 H51        -2.9400    8.6490    4.3760 hc        1 1PZ      0.041500
     86 H52        -5.4410    7.7660    3.3500 hc        1 1PZ      0.129000
     87 H53        -5.0730    7.8310    4.9030 hc        1 1PZ      0.129000
     88 H54        -5.1680   10.0700    4.9520 hc        1 1PZ      0.038500
     89 H55        -4.9200   10.1990    3.3790 hc        1 1PZ      0.038500
     90 H56        -7.3290    9.1710    4.4820 hc        1 1PZ      0.132500
     91 H57        -7.0770    9.4680    2.9330 hc        1 1PZ      0.132500
     92 H58        -6.7900   11.7870    3.5180 hc        1 1PZ      0.050000
     93 H59        -7.2910   11.4160    4.9890 hc        1 1PZ      0.050000
     94 H60        -9.1250   12.1930    3.7930 hc        1 1PZ      0.061000
     95 H61        -9.3330   10.6250    4.0390 hc        1 1PZ      0.061000
     96 H62        -8.8330   11.1520    2.6130 hc        1 1PZ      0.061000
@<TRIPOS>BOND
     1    1    2 1   
     2    1   39 1   
     3    1   40 1   
     4    1   41 1   
     5    2    3 1   
     6    2   42 1   
     7    2   43 1   
     8    3    4 1   
     9    3   44 1   
    10    3   45 1   
    11    4    5 1   
    12    4   46 1   
    13    4   47 1   
    14    5    6 1   
    15    5   48 1   
    16    5   49 1   
    17    6    7 1   
    18    6   50 1   
    19    6   51 1   
    20    7    8 1   
    21    7   52 1   
    22    7   53 1   
    23    8    9 1   
    24    8   54 1   
    25    8   55 1   
    26    9   10 1   
    27    9   56 1   
    28    9   57 1   
    29   10   11 1   
    30   10   58 1   
    31   10   59 1   
    32   11   12 1   
    33   11   60 1   
    34   11   61 1   
    35   12   13 1   
    36   12   62 1   
    37   12   63 1   
    38   13   14 1   
    39   13   64 1   
    40   13   65 1   
    41   14   15 1   
    42   14   66 1   
    43   15   67 1   
    44   16   17 1   
    45   16   18 1   
    46   16   68 1   
    47   17   69 1   
    48   18   19 1   
    49   18   25 1   
    50   18   70 1   
    51   19   20 1   
    52   19   71 1   
    53   19   72 1   
    54   20   21 1   
    55   21   22 1   
    56   21   23 1   
    57   21   24 1   
    58   25   26 1   
    59   25   73 1   
    60   26   27 1   
    61   28   29 1   
    62   28   74 1   
    63   28   75 1   
    64   29   30 1   
    65   29   76 1   
    66   29   77 1   
    67   30   31 1   
    68   30   78 1   
    69   30   79 1   
    70   31   32 1   
    71   31   80 1   
    72   31   81 1   
    73   32   33 1   
    74   32   82 1   
    75   32   83 1   
    76   33   34 1   
    77   33   84 1   
    78   33   85 1   
    79   34   35 1   
    80   34   86 1   
    81   34   87 1   
    82   35   36 1   
    83   35   88 1   
    84   35   89 1   
    85   36   37 1   
    86   36   90 1   
    87   36   91 1   
    88   37   38 1   
    89   37   92 1   
    90   37   93 1   
    91   38   94 1   
    92   38   95 1   
    93   38   96 1   
@<TRIPOS>SUBSTRUCTURE
     1 1PZ         1 TEMP              0 ****  ****    0 ROOT
