@<TRIPOS>MOLECULE
1Q0
  112   111     1     0     0
SMALL
bcc


@<TRIPOS>ATOM
      1 CAB        -2.6490  -12.3250    0.9840 c3        1 1Q0     -0.091100
      2 CAM        -1.7410  -11.5200    0.0910 c3        1 1Q0     -0.080400
      3 CAR        -0.9970  -10.4550    0.8690 c3        1 1Q0     -0.079400
      4 CAW        -0.0870   -9.6480   -0.0310 c3        1 1Q0     -0.079400
      5 CBB         0.6560   -8.5840    0.7480 c3        1 1Q0     -0.079400
      6 CBE         1.5670   -7.7770   -0.1520 c3        1 1Q0     -0.078400
      7 CBG         2.3090   -6.7120    0.6270 c3        1 1Q0     -0.079400
      8 CBH         3.2200   -5.9050   -0.2730 c3        1 1Q0     -0.078400
      9 CBF         3.9600   -4.8380    0.5060 c3        1 1Q0     -0.079400
     10 CBC         4.8700   -4.0300   -0.3930 c3        1 1Q0     -0.074400
     11 CAZ         5.5930   -2.9530    0.3870 c3        1 1Q0     -0.092400
     12 CAU         6.4900   -2.1290   -0.5120 c3        1 1Q0     -0.064400
     13 CAP         7.1790   -1.0340    0.2820 c3        1 1Q0     -0.052200
     14 CAJ         7.7990   -0.0260   -0.6100 c2        1 1Q0     -0.222200
     15 CAK         7.4610    1.2660   -0.6680 c2        1 1Q0     -0.138200
     16 CBP         6.4030    1.9210    0.1710 c3        1 1Q0      0.174300
     17 OAE         6.6470    3.3120    0.2380 oh        1 1Q0     -0.647800
     18 CBQ         4.9950    1.5400   -0.3690 c3        1 1Q0      0.029700
     19 CBL         4.7160    2.2210   -1.7530 c3        1 1Q0      0.202400
     20 OBN         4.4700    3.5640   -1.6430 os        1 1Q0     -0.576200
     21 PBR         2.8310    4.0540   -1.9760 p5        1 1Q0      1.331900
     22 OAF         2.9680    5.5200   -2.2300 o         1 1Q0     -0.914500
     23 OAG         2.4650    3.1590   -3.1220 o         1 1Q0     -0.914500
     24 OAD         2.2030    3.6550   -0.6520 o         1 1Q0     -0.914500
     25 NBM         3.9510    1.8390    0.5770 n         1 1Q0     -0.527900
     26 CBO         3.5370    0.9500    1.5160 c         1 1Q0      0.644100
     27 OAC         4.1540   -0.1210    1.7850 o         1 1Q0     -0.744100
     28 CBK         2.2970    1.3120    2.3250 c3        1 1Q0     -0.129400
     29 CBJ         1.0870    1.5200    1.4420 c3        1 1Q0     -0.126400
     30 CBI        -0.1380    1.8480    2.2690 c3        1 1Q0     -0.059400
     31 CBD        -1.3130    2.1700    1.3690 c3        1 1Q0     -0.087400
     32 CAY        -2.5240    2.5990    2.1700 c3        1 1Q0     -0.074400
     33 CAT        -3.6930    2.9190    1.2620 c3        1 1Q0     -0.079400
     34 CAO        -4.8910    3.4000    2.0590 c3        1 1Q0     -0.054200
     35 CAI        -6.0390    3.7260    1.1810 c2        1 1Q0     -0.139200
     36 CAH        -7.3080    3.4320    1.4790 c2        1 1Q0     -0.207200
     37 CAN        -8.4590    3.7940    0.6170 c3        1 1Q0     -0.040200
     38 CAS        -9.4030    2.6220    0.4290 c3        1 1Q0     -0.076400
     39 CAX       -10.5820    3.0040   -0.4390 c3        1 1Q0     -0.079400
     40 CBA       -11.5280    1.8370   -0.6260 c3        1 1Q0     -0.079400
     41 CAV       -12.7070    2.2170   -1.4950 c3        1 1Q0     -0.079400
     42 CAQ       -13.6520    1.0500   -1.6820 c3        1 1Q0     -0.079400
     43 CAL       -14.8320    1.4290   -2.5510 c3        1 1Q0     -0.080400
     44 CAA       -15.7760    0.2700   -2.7400 c3        1 1Q0     -0.091100
     45 H1         -3.1880  -13.1040    0.3910 hc        1 1Q0      0.029033
     46 H2         -2.0630  -12.8360    1.7850 hc        1 1Q0      0.029033
     47 H3         -3.4080  -11.6660    1.4720 hc        1 1Q0      0.029033
     48 H4         -1.0030  -12.2010   -0.4090 hc        1 1Q0      0.037200
     49 H5         -2.3450  -11.0340   -0.7210 hc        1 1Q0      0.037200
     50 H6         -1.7340   -9.7710    1.3680 hc        1 1Q0      0.038200
     51 H7          0.6500  -10.3310   -0.5310 hc        1 1Q0      0.037700
     52 H8         -0.0810   -7.8990    1.2460 hc        1 1Q0      0.038700
     53 H9          2.3030   -8.4600   -0.6520 hc        1 1Q0      0.037700
     54 H10         1.5720   -6.0270    1.1240 hc        1 1Q0      0.038700
     55 H11         2.9130   -7.1940    1.4400 hc        1 1Q0      0.038700
     56 H12         3.9580   -6.5880   -0.7720 hc        1 1Q0      0.035700
     57 H13         2.6150   -5.4220   -1.0850 hc        1 1Q0      0.035700
     58 H14         3.2220   -4.1520    1.0000 hc        1 1Q0      0.041700
     59 H15         4.5630   -5.3180    1.3210 hc        1 1Q0      0.041700
     60 H16         5.6140   -4.7100   -0.8850 hc        1 1Q0      0.032200
     61 H17         4.2650   -3.5540   -1.2090 hc        1 1Q0      0.032200
     62 H18         4.8470   -2.2690    0.8810 hc        1 1Q0      0.058200
     63 H19         6.2050   -3.4240    1.2010 hc        1 1Q0      0.058200
     64 H20         7.2530   -2.7840   -1.0060 hc        1 1Q0      0.030700
     65 H21         5.8710   -1.6620   -1.3240 hc        1 1Q0      0.030700
     66 H22         6.4200   -0.5540    0.9640 hc        1 1Q0      0.053700
     67 H23         7.9730   -1.4910    0.9330 hc        1 1Q0      0.053700
     68 H24         8.5890   -0.4200   -1.2700 ha        1 1Q0      0.086000
     69 H26         7.9720    1.9520   -1.3640 ha        1 1Q0      0.120000
     70 H28         5.0270    0.4210   -0.5420 h1        1 1Q0      0.036700
     71 H29         5.6530    2.0540   -2.3630 h1        1 1Q0      0.015200
     72 H30         3.8500    1.6930   -2.2460 h1        1 1Q0      0.015200
     73 H33         3.3370    2.6320    0.2930 hn        1 1Q0      0.416500
     74 H34         2.1120    0.4830    3.0570 hc        1 1Q0      0.036700
     75 H35         2.5070    2.2470    2.9070 hc        1 1Q0      0.036700
     76 H36         1.2800    2.3620    0.7020 hc        1 1Q0      0.103700
     77 H37        -0.3990    0.9900    2.9430 hc        1 1Q0      0.012700
     78 H38        -1.0140    2.9860    0.6570 hc        1 1Q0      0.060200
     79 H39        -1.5690    1.2700    0.7510 hc        1 1Q0      0.060200
     80 H40        -2.8150    1.7860    2.8860 hc        1 1Q0      0.025700
     81 H41        -2.2660    3.5030    2.7820 hc        1 1Q0      0.025700
     82 H42        -3.3870    3.7080    0.5250 hc        1 1Q0      0.048200
     83 H43        -3.9730    2.0070    0.6740 hc        1 1Q0      0.048200
     84 H44        -5.1770    2.6200    2.8150 hc        1 1Q0      0.042200
     85 H45        -4.6050    4.3250    2.6320 hc        1 1Q0      0.042200
     86 H46        -5.7780    4.2480    0.2440 ha        1 1Q0      0.126000
     87 H48        -7.5670    2.9000    2.4080 ha        1 1Q0      0.113000
     88 H50        -9.0160    4.6470    1.0930 hc        1 1Q0      0.039700
     89 H51        -8.1050    4.1520   -0.3870 hc        1 1Q0      0.039700
     90 H52        -8.8490    1.7680   -0.0410 hc        1 1Q0      0.041700
     91 H53        -9.7690    2.2690    1.4290 hc        1 1Q0      0.041700
     92 H54       -11.1330    3.8620    0.0300 hc        1 1Q0      0.037700
     93 H55       -10.2150    3.3540   -1.4390 hc        1 1Q0      0.037700
     94 H56       -10.9760    0.9790   -1.0950 hc        1 1Q0      0.039200
     95 H57       -13.2580    3.0760   -1.0270 hc        1 1Q0      0.038200
     96 H58       -13.1010    0.1920   -2.1500 hc        1 1Q0      0.039200
     97 H59       -14.0200    0.6990   -0.6810 hc        1 1Q0      0.039200
     98 H60       -15.3800    2.2890   -2.0820 hc        1 1Q0      0.037700
     99 H61       -14.4620    1.7800   -3.5500 hc        1 1Q0      0.037700
    100 H62       -16.6380    0.5700   -3.3830 hc        1 1Q0      0.029700
    101 H63       -15.2530   -0.5880   -3.2290 hc        1 1Q0      0.029700
    102 H64       -16.1740   -0.0790   -1.7570 hc        1 1Q0      0.029700
    103 H65        -0.3920  -10.9370    1.6820 hc        1 1Q0      0.038200
    104 H66        -0.6920   -9.1650   -0.8430 hc        1 1Q0      0.037700
    105 H67         1.2610   -9.0660    1.5610 hc        1 1Q0      0.038700
    106 H68         0.9620   -7.2930   -0.9640 hc        1 1Q0      0.037700
    107 H25         6.5090    1.5610    1.2380 h1        1 1Q0      0.047700
    108 H27         6.0260    3.7640   -0.3590 ho        1 1Q0      0.467000
    109 H69         0.8960    0.5930    0.8420 hc        1 1Q0      0.103700
    110 H70         0.0810    2.7310    2.9260 hc        1 1Q0      0.012700
    111 H47       -11.8950    1.4860    0.3740 hc        1 1Q0      0.039200
    112 H49       -12.3390    2.5670   -2.4950 hc        1 1Q0      0.038200
@<TRIPOS>BOND
     1    1    2 1   
     2    1   45 1   
     3    1   46 1   
     4    1   47 1   
     5    2    3 1   
     6    2   48 1   
     7    2   49 1   
     8    3    4 1   
     9    3   50 1   
    10    3  103 1   
    11    4    5 1   
    12    4   51 1   
    13    4  104 1   
    14    5    6 1   
    15    5   52 1   
    16    5  105 1   
    17    6    7 1   
    18    6   53 1   
    19    6  106 1   
    20    7    8 1   
    21    7   54 1   
    22    7   55 1   
    23    8    9 1   
    24    8   56 1   
    25    8   57 1   
    26    9   10 1   
    27    9   58 1   
    28    9   59 1   
    29   10   11 1   
    30   10   60 1   
    31   10   61 1   
    32   11   12 1   
    33   11   62 1   
    34   11   63 1   
    35   12   13 1   
    36   12   64 1   
    37   12   65 1   
    38   13   14 1   
    39   13   66 1   
    40   13   67 1   
    41   14   15 2   
    42   14   68 1   
    43   15   16 1   
    44   15   69 1   
    45   16   17 1   
    46   16   18 1   
    47   16  107 1   
    48   17  108 1   
    49   18   19 1   
    50   18   25 1   
    51   18   70 1   
    52   19   20 1   
    53   19   71 1   
    54   19   72 1   
    55   20   21 1   
    56   21   22 1   
    57   21   23 1   
    58   21   24 1   
    59   25   26 1   
    60   25   73 1   
    61   26   27 2   
    62   26   28 1   
    63   28   29 1   
    64   28   74 1   
    65   28   75 1   
    66   29   30 1   
    67   29   76 1   
    68   29  109 1   
    69   30   31 1   
    70   30   77 1   
    71   30  110 1   
    72   31   32 1   
    73   31   78 1   
    74   31   79 1   
    75   32   33 1   
    76   32   80 1   
    77   32   81 1   
    78   33   34 1   
    79   33   82 1   
    80   33   83 1   
    81   34   35 1   
    82   34   84 1   
    83   34   85 1   
    84   35   36 2   
    85   35   86 1   
    86   36   37 1   
    87   36   87 1   
    88   37   38 1   
    89   37   88 1   
    90   37   89 1   
    91   38   39 1   
    92   38   90 1   
    93   38   91 1   
    94   39   40 1   
    95   39   92 1   
    96   39   93 1   
    97   40   41 1   
    98   40   94 1   
    99   40  111 1   
   100   41   42 1   
   101   41   95 1   
   102   41  112 1   
   103   42   43 1   
   104   42   96 1   
   105   42   97 1   
   106   43   44 1   
   107   43   98 1   
   108   43   99 1   
   109   44  100 1   
   110   44  101 1   
   111   44  102 1   
@<TRIPOS>SUBSTRUCTURE
     1 1Q0         1 TEMP              0 ****  ****    0 ROOT
