@<TRIPOS>MOLECULE
1Q0
  112   108     1     0     0
SMALL
bcc


@<TRIPOS>ATOM
      1 CAB        -2.5940    2.9490   14.3900 c3        1 1Q0     -0.209000
      2 CAM        -3.1940    3.8880   13.3670 c3        1 1Q0     -0.159000
      3 CAR        -2.6150    3.5830   12.0030 c3        1 1Q0     -0.158000
      4 CAW        -3.3980    4.3290   10.9450 c3        1 1Q0     -0.157000
      5 CBB        -2.7710    4.0880    9.5890 c3        1 1Q0     -0.158000
      6 CBE        -3.7510    4.4780    8.5040 c3        1 1Q0     -0.157000
      7 CBG        -3.0780    4.3650    7.1530 c3        1 1Q0     -0.158000
      8 CBH        -4.1170    4.0590    6.0970 c3        1 1Q0     -0.157000
      9 CBF        -3.4260    3.6820    4.8040 c3        1 1Q0     -0.158000
     10 CBC        -4.4380    3.0960    3.8440 c3        1 1Q0     -0.157000
     11 CAZ        -3.7520    2.1000    2.9350 c3        1 1Q0     -0.159000
     12 CAU        -4.7420    1.5840    1.9140 c3        1 1Q0     -0.150000
     13 CAP        -4.2820    0.2360    1.4020 c3        1 1Q0     -0.130000
     14 CAJ        -5.1810   -0.2060    0.2680 c2        1 1Q0     -0.206000
     15 CAK        -5.0210   -1.4250   -0.2820 c1        1 1Q0     -0.136000
     16 CBP        -3.9430   -2.3520    0.2330 c2        1 1Q0      0.072000
     17 OAE        -4.3070   -2.8340    1.5040 oh        1 1Q0     -0.371000
     18 CBQ        -3.7800   -3.5140   -0.7200 c3        1 1Q0     -0.065000
     19 CBL        -4.9210   -4.4880   -0.5270 c3        1 1Q0      0.045000
     20 OBN        -4.6620   -5.2970    0.5960 os        1 1Q0     -0.738000
     21 PBR        -5.6320   -6.5100    0.8900 p3        1 1Q0      2.517000
     22 OAF        -5.7180   -6.7360    2.3800 os        1 1Q0     -1.222000
     23 OAG        -7.0070   -6.1980    0.3480 o         1 1Q0     -1.244500
     24 OAD        -5.0990   -7.7550    0.2220 o         1 1Q0     -1.244500
     25 NBM        -2.5480   -4.1700   -0.4590 n         1 1Q0     -0.332000
     26 CBO        -1.6580   -4.4590   -1.5260 c2        1 1Q0      0.299000
     27 OAC        -1.8940   -4.0420   -2.6430 o         1 1Q0     -0.476000
     28 CBK        -0.4310   -5.3080   -1.2790 c3        1 1Q0     -0.204000
     29 CBJ         0.8060   -4.5330   -1.6760 c3        1 1Q0     -0.140000
     30 CBI         1.6820   -5.3970   -2.5560 c3        1 1Q0     -0.159000
     31 CBD         3.1290   -4.9940   -2.3800 c3        1 1Q0     -0.153000
     32 CAY         3.7520   -4.7450   -3.7360 c3        1 1Q0     -0.160000
     33 CAT         5.1660   -4.2390   -3.5570 c3        1 1Q0     -0.156000
     34 CAO         5.5860   -3.4680   -4.7890 c3        1 1Q0     -0.138000
     35 CAI         6.9380   -2.8330   -4.5500 c2        1 1Q0     -0.147000
     36 CAH         7.3360   -1.7910   -5.3060 c1        1 1Q0     -0.196000
     37 CAN         6.4300   -1.2560   -6.3930 c2        1 1Q0     -0.128000
     38 CAS         7.0250    0.0110   -6.9670 c3        1 1Q0     -0.154000
     39 CAX         6.0060    0.6900   -7.8550 c3        1 1Q0     -0.159000
     40 CBA         6.6180    1.9300   -8.4690 c3        1 1Q0     -0.156000
     41 CAV         5.5190    2.8280   -8.9940 c3        1 1Q0     -0.159000
     42 CAQ         6.0800    3.7390  -10.0640 c3        1 1Q0     -0.157000
     43 CAL         5.0010    4.6910  -10.5330 c3        1 1Q0     -0.160000
     44 CAA         5.5180    5.5020  -11.7000 c3        1 1Q0     -0.209000
     45 H1         -2.7700    3.2920   15.2910 hc        1 1Q0      0.069000
     46 H2         -2.9970    2.0610   14.2950 hc        1 1Q0      0.069000
     47 H3         -1.6260    2.8860   14.2480 hc        1 1Q0      0.069000
     48 H4         -4.1640    3.7680   13.3440 hc        1 1Q0      0.077000
     49 H5         -2.9850    4.8120   13.6110 hc        1 1Q0      0.077000
     50 H6         -2.6710    2.6220   11.8320 hc        1 1Q0      0.078000
     51 H7         -3.3850    5.2870   11.1440 hc        1 1Q0      0.077500
     52 H8         -1.9590    4.6270    9.5050 hc        1 1Q0      0.078500
     53 H9         -4.0440    5.4000    8.6450 hc        1 1Q0      0.077000
     54 H10        -2.4160    3.6450    7.1780 hc        1 1Q0      0.078500
     55 H11        -2.6340    5.2090    6.9380 hc        1 1Q0      0.078500
     56 H12        -4.6770    3.3140    6.3960 hc        1 1Q0      0.076000
     57 H13        -4.6750    4.8480    5.9500 hc        1 1Q0      0.076000
     58 H14        -2.7300    3.0210    4.9880 hc        1 1Q0      0.078500
     59 H15        -3.0230    4.4790    4.4060 hc        1 1Q0      0.078500
     60 H16        -5.1440    2.6440    4.3490 hc        1 1Q0      0.074500
     61 H17        -4.8300    3.8120    3.3060 hc        1 1Q0      0.074500
     62 H18        -3.0080    2.5370    2.4750 hc        1 1Q0      0.079500
     63 H19        -3.4130    1.3520    3.4680 hc        1 1Q0      0.079500
     64 H20        -5.6220    1.4910    2.3310 hc        1 1Q0      0.071500
     65 H21        -4.8000    2.2140    1.1690 hc        1 1Q0      0.071500
     66 H22        -3.3620    0.3080    1.0790 hc        1 1Q0      0.095500
     67 H23        -4.3240   -0.4200    2.1260 hc        1 1Q0      0.095500
     68 H24        -5.8780    0.3920   -0.0640 ha        1 1Q0      0.087000
     69 H26        -5.6020   -1.7100   -1.0140 ha        1 1Q0      0.121000
     70 H28        -3.7850   -3.1840   -1.6400 h1        1 1Q0      0.079000
     71 H29        -5.0070   -5.0520   -1.3230 h1        1 1Q0      0.051000
     72 H30        -5.7540   -3.9920   -0.3870 h1        1 1Q0      0.051000
     73 H33        -2.3370   -4.4230    0.3910 hn        1 1Q0      0.306000
     74 H34        -0.3800   -5.5380   -0.3290 hc        1 1Q0      0.130000
     75 H35        -0.4870   -6.1270   -1.8110 hc        1 1Q0      0.130000
     76 H36         1.3030   -4.2770   -0.8730 hc        1 1Q0      0.080000
     77 H37         1.5720   -6.3360   -2.3040 hc        1 1Q0      0.083000
     78 H38         3.1770   -4.1770   -1.8450 hc        1 1Q0      0.072500
     79 H39         3.6140   -5.7110   -1.9250 hc        1 1Q0      0.072500
     80 H40         3.7670   -5.5800   -4.2460 hc        1 1Q0      0.080000
     81 H41         3.2250   -4.0780   -4.2200 hc        1 1Q0      0.080000
     82 H42         5.2050   -3.6510   -2.7760 hc        1 1Q0      0.076500
     83 H43         5.7690   -4.9970   -3.4250 hc        1 1Q0      0.076500
     84 H44         5.6420   -4.0790   -5.5510 hc        1 1Q0      0.088500
     85 H45         4.9270   -2.7710   -4.9780 hc        1 1Q0      0.088500
     86 H46         7.5220   -3.1780   -3.8490 ha        1 1Q0      0.121000
     87 H48         8.2080   -1.3810   -5.1520 ha        1 1Q0      0.111000
     88 H50         6.3410   -1.9240   -7.1020 ha        1 1Q0      0.088500
     89 H51         5.5480   -1.0610   -6.0170 ha        1 1Q0      0.088500
     90 H52         7.2750    0.6140   -6.2380 hc        1 1Q0      0.076000
     91 H53         7.8190   -0.2110   -7.4930 hc        1 1Q0      0.076000
     92 H54         5.7310    0.0760   -8.5650 hc        1 1Q0      0.081500
     93 H55         5.2250    0.9420   -7.3220 hc        1 1Q0      0.081500
     94 H56         7.2080    1.6720   -9.2060 hc        1 1Q0      0.076000
     95 H57         4.8040    2.2800   -9.3760 hc        1 1Q0      0.080500
     96 H58         6.8290    4.2510   -9.6960 hc        1 1Q0      0.076500
     97 H59         6.3920    3.2020  -10.8190 hc        1 1Q0      0.076500
     98 H60         4.7560    5.2920   -9.8010 hc        1 1Q0      0.079000
     99 H61         4.2160    4.1800  -10.8130 hc        1 1Q0      0.079000
    100 H62         4.7680    5.9590  -12.1370 hc        1 1Q0      0.069000
    101 H63         5.9570    4.9070  -12.3430 hc        1 1Q0      0.069000
    102 H64         6.1620    6.1670  -11.3770 hc        1 1Q0      0.069000
    103 H65        -1.6790    3.8650   11.9750 hc        1 1Q0      0.078000
    104 H66        -4.3230    4.0100   10.9380 hc        1 1Q0      0.077500
    105 H67        -2.5450    3.1410    9.4990 hc        1 1Q0      0.078500
    106 H68        -4.5250    3.8810    8.5340 hc        1 1Q0      0.077000
    107 H25        -3.0990   -1.8640    0.2990 h4        1 1Q0      0.078000
    108 H27        -5.1910   -2.7880    1.5970 ho        1 1Q0      0.269000
    109 H69         0.5440   -3.7290   -2.1670 hc        1 1Q0      0.080000
    110 H70         1.4220   -5.2790   -3.4920 hc        1 1Q0      0.083000
    111 H47         7.1340    2.4090   -7.7910 hc        1 1Q0      0.076000
    112 H49         5.1610    3.3670   -8.2610 hc        1 1Q0      0.080500
@<TRIPOS>BOND
     1    1    2 1   
     2    1   45 1   
     3    1   46 1   
     4    1   47 1   
     5    2    3 1   
     6    2   48 1   
     7    2   49 1   
     8    3    4 1   
     9    3   50 1   
    10    3  103 1   
    11    4    5 1   
    12    4   51 1   
    13    4  104 1   
    14    5    6 1   
    15    5   52 1   
    16    5  105 1   
    17    6    7 1   
    18    6   53 1   
    19    6  106 1   
    20    7    8 1   
    21    7   54 1   
    22    7   55 1   
    23    8    9 1   
    24    8   56 1   
    25    8   57 1   
    26    9   10 1   
    27    9   58 1   
    28    9   59 1   
    29   10   11 1   
    30   10   60 1   
    31   10   61 1   
    32   11   12 1   
    33   11   62 1   
    34   11   63 1   
    35   12   13 1   
    36   12   64 1   
    37   12   65 1   
    38   13   14 1   
    39   13   66 1   
    40   13   67 1   
    41   14   15 1   
    42   14   68 1   
    43   15   69 1   
    44   16   17 1   
    45   16   18 1   
    46   16  107 1   
    47   17  108 1   
    48   18   19 1   
    49   18   25 1   
    50   18   70 1   
    51   19   20 1   
    52   19   71 1   
    53   19   72 1   
    54   20   21 1   
    55   21   23 1   
    56   21   24 1   
    57   25   26 1   
    58   25   73 1   
    59   26   27 1   
    60   26   28 1   
    61   28   29 1   
    62   28   74 1   
    63   28   75 1   
    64   29   30 1   
    65   29   76 1   
    66   29  109 1   
    67   30   31 1   
    68   30   77 1   
    69   30  110 1   
    70   31   32 1   
    71   31   78 1   
    72   31   79 1   
    73   32   33 1   
    74   32   80 1   
    75   32   81 1   
    76   33   34 1   
    77   33   82 1   
    78   33   83 1   
    79   34   35 1   
    80   34   84 1   
    81   34   85 1   
    82   35   36 1   
    83   35   86 1   
    84   36   87 1   
    85   37   38 1   
    86   37   88 1   
    87   37   89 1   
    88   38   39 1   
    89   38   90 1   
    90   38   91 1   
    91   39   40 1   
    92   39   92 1   
    93   39   93 1   
    94   40   41 1   
    95   40   94 1   
    96   40  111 1   
    97   41   42 1   
    98   41   95 1   
    99   41  112 1   
   100   42   43 1   
   101   42   96 1   
   102   42   97 1   
   103   43   44 1   
   104   43   98 1   
   105   43   99 1   
   106   44  100 1   
   107   44  101 1   
   108   44  102 1   
@<TRIPOS>SUBSTRUCTURE
     1 1Q0         1 TEMP              0 ****  ****    0 ROOT
