@<TRIPOS>MOLECULE
1Q1
   29    30     1     0     0
SMALL
bcc


@<TRIPOS>ATOM
      1 O1          0.2480    0.3990   -0.8540 oh        1 1Q1     -0.485100
      2 C1          1.5710    0.2710   -0.5160 ca        1 1Q1      0.110100
      3 C2          2.0680    0.5880    0.7710 ca        1 1Q1      0.031900
      4 F2          1.2110    1.0380    1.7220 f         1 1Q1     -0.142900
      5 C3          3.4330    0.4350    1.0530 ca        1 1Q1     -0.091000
      6 C4          4.3020   -0.0300    0.0590 ca        1 1Q1     -0.121900
      7 C5          3.7970   -0.3420   -1.2150 ca        1 1Q1     -0.094000
      8 C6          2.4470   -0.1960   -1.5060 ca        1 1Q1     -0.143000
      9 C7          5.7200   -0.1930    0.3310 ce        1 1Q1      0.328900
     10 N8          6.3280    0.0150    1.4910 n2        1 1Q1     -0.352200
     11 O9          7.6130   -0.2190    1.4180 os        1 1Q1     -0.149300
     12 C10         8.0270   -0.6330    0.0470 c3        1 1Q1      0.101100
     13 C11         6.7070   -0.6390   -0.7420 c3        1 1Q1     -0.163700
     14 C12         9.0590    0.3630   -0.4320 c3        1 1Q1     -0.198400
     15 C13         9.9660   -0.1930   -1.4930 c         1 1Q1      0.568100
     16 O13         9.9770   -1.3860   -1.8120 o         1 1Q1     -0.530100
     17 C14        10.8690    0.8150   -2.1290 c3        1 1Q1     -0.204100
     18 H1         -0.2320    0.7210   -0.0740 ho        1 1Q1      0.434000
     19 H2          3.8000    0.6860    2.0610 ha        1 1Q1      0.170000
     20 H3          4.4770   -0.7110   -1.9990 ha        1 1Q1      0.141000
     21 H4          2.0490   -0.4410   -2.5020 ha        1 1Q1      0.159000
     22 H5          8.4680   -1.6560    0.1610 h1        1 1Q1      0.102700
     23 H6          6.4600   -1.6610   -1.1170 hc        1 1Q1      0.078200
     24 H7          6.7200    0.0720   -1.6010 hc        1 1Q1      0.078200
     25 H8          8.5600    1.2900   -0.8210 hc        1 1Q1      0.085200
     26 H9          9.6940    0.6710    0.4440 hc        1 1Q1      0.085200
     27 H10        10.2620    1.5220   -2.7460 hc        1 1Q1      0.067033
     28 H11        11.6180    0.3140   -2.7890 hc        1 1Q1      0.067033
     29 H12        11.4070    1.3980   -1.3430 hc        1 1Q1      0.067033
@<TRIPOS>BOND
     1    1    2 1   
     2    1   18 1   
     3    2    3 ar  
     4    2    8 ar  
     5    3    4 1   
     6    3    5 ar  
     7    5    6 ar  
     8    5   19 1   
     9    6    7 ar  
    10    6    9 1   
    11    7    8 ar  
    12    7   20 1   
    13    8   21 1   
    14    9   10 2   
    15    9   13 1   
    16   10   11 1   
    17   11   12 1   
    18   12   13 1   
    19   12   14 1   
    20   12   22 1   
    21   13   23 1   
    22   13   24 1   
    23   14   15 1   
    24   14   25 1   
    25   14   26 1   
    26   15   16 2   
    27   15   17 1   
    28   17   27 1   
    29   17   28 1   
    30   17   29 1   
@<TRIPOS>SUBSTRUCTURE
     1 1Q1         1 TEMP              0 ****  ****    0 ROOT
