@<TRIPOS>MOLECULE
1Q1
   29    30     1     0     0
SMALL
bcc


@<TRIPOS>ATOM
      1 O1          0.1270    0.5270   -0.2580 oh        1 1Q1     -0.485100
      2 C1          1.4840    0.3560   -0.1530 ca        1 1Q1      0.110100
      3 C2          2.2010    0.6250    1.0370 ca        1 1Q1      0.032900
      4 F2          1.5320    1.0700    2.1310 f         1 1Q1     -0.141900
      5 C3          3.5890    0.4300    1.0800 ca        1 1Q1     -0.090000
      6 C4          4.2620   -0.0290   -0.0590 ca        1 1Q1     -0.120900
      7 C5          3.5400   -0.2930   -1.2350 ca        1 1Q1     -0.094000
      8 C6          2.1660   -0.1050   -1.2890 ca        1 1Q1     -0.143000
      9 C7          5.7010   -0.2360   -0.0350 ce        1 1Q1      0.327900
     10 N8          6.5060   -0.0520    1.0010 n2        1 1Q1     -0.350200
     11 O9          7.7510   -0.3260    0.7090 os        1 1Q1     -0.146300
     12 C10         7.9090   -0.7490   -0.7120 c3        1 1Q1      0.097100
     13 C11         6.4740   -0.7060   -1.2620 c3        1 1Q1     -0.166700
     14 C12         8.8600    0.2150   -1.3880 c3        1 1Q1     -0.194400
     15 C13        10.3010   -0.1910   -1.2230 c         1 1Q1      0.573100
     16 O13        10.6600   -1.3710   -1.2880 o         1 1Q1     -0.530100
     17 C14        11.2590    0.9320   -0.9980 c3        1 1Q1     -0.202100
     18 H1         -0.2030    0.8410    0.6000 ho        1 1Q1      0.434000
     19 H2          4.1290    0.6440    2.0160 ha        1 1Q1      0.171000
     20 H3          4.0650   -0.6570   -2.1320 ha        1 1Q1      0.139000
     21 H4          1.5970   -0.3120   -2.2070 ha        1 1Q1      0.159000
     22 H5          8.3320   -1.7860   -0.6680 h1        1 1Q1      0.106700
     23 H6          6.3620    0.0130   -2.1080 hc        1 1Q1      0.076200
     24 H7          6.1310   -1.7150   -1.5920 hc        1 1Q1      0.076200
     25 H8          8.7040    1.2480   -0.9770 hc        1 1Q1      0.079700
     26 H9          8.6410    0.2420   -2.4890 hc        1 1Q1      0.079700
     27 H10        11.1000    1.7310   -1.7620 hc        1 1Q1      0.068033
     28 H11        11.0830    1.3670    0.0170 hc        1 1Q1      0.068033
     29 H12        12.3140    0.5720   -1.0580 hc        1 1Q1      0.068033
@<TRIPOS>BOND
     1    1    2 1   
     2    1   18 1   
     3    2    3 ar  
     4    2    8 ar  
     5    3    4 1   
     6    3    5 ar  
     7    5    6 ar  
     8    5   19 1   
     9    6    7 ar  
    10    6    9 1   
    11    7    8 ar  
    12    7   20 1   
    13    8   21 1   
    14    9   10 2   
    15    9   13 1   
    16   10   11 1   
    17   11   12 1   
    18   12   13 1   
    19   12   14 1   
    20   12   22 1   
    21   13   23 1   
    22   13   24 1   
    23   14   15 1   
    24   14   25 1   
    25   14   26 1   
    26   15   16 2   
    27   15   17 1   
    28   17   27 1   
    29   17   28 1   
    30   17   29 1   
@<TRIPOS>SUBSTRUCTURE
     1 1Q1         1 TEMP              0 ****  ****    0 ROOT
