@<TRIPOS>MOLECULE
1Q1
   29    30     1     0     0
SMALL
bcc


@<TRIPOS>ATOM
      1 O1          0.1290    0.5200   -0.2490 oh        1 1Q1     -0.485100
      2 C1          1.4850    0.3460   -0.1470 ca        1 1Q1      0.110100
      3 C2          2.2010    0.5850    1.0500 ca        1 1Q1      0.032900
      4 F2          1.5310    1.0030    2.1540 f         1 1Q1     -0.141900
      5 C3          3.5890    0.3890    1.0890 ca        1 1Q1     -0.090000
      6 C4          4.2630   -0.0420   -0.0600 ca        1 1Q1     -0.120900
      7 C5          3.5430   -0.2760   -1.2430 ca        1 1Q1     -0.094000
      8 C6          2.1680   -0.0860   -1.2930 ca        1 1Q1     -0.143000
      9 C7          5.7020   -0.2500   -0.0400 ce        1 1Q1      0.327900
     10 N8          6.5060   -0.0930    1.0020 n2        1 1Q1     -0.350200
     11 O9          7.7510   -0.3600    0.7040 os        1 1Q1     -0.146300
     12 C10         7.9110   -0.7450   -0.7270 c3        1 1Q1      0.097100
     13 C11         6.4760   -0.6870   -1.2770 c3        1 1Q1     -0.166700
     14 C12         8.8620    0.2370   -1.3760 c3        1 1Q1     -0.194400
     15 C13        10.3030   -0.1740   -1.2200 c         1 1Q1      0.573100
     16 O13        10.6630   -1.3510   -1.3170 o         1 1Q1     -0.530100
     17 C14        11.2610    0.9430   -0.9630 c3        1 1Q1     -0.202100
     18 H1         -0.2030    0.8120    0.6160 ho        1 1Q1      0.434000
     19 H2          4.1280    0.5790    2.0310 ha        1 1Q1      0.171000
     20 H3          4.0690   -0.6170   -2.1480 ha        1 1Q1      0.139000
     21 H4          1.6010   -0.2690   -2.2170 ha        1 1Q1      0.159000
     22 H5          8.3340   -1.7830   -0.7100 h1        1 1Q1      0.106700
     23 H6          6.3660    0.0540   -2.1040 hc        1 1Q1      0.076200
     24 H7          6.1340   -1.6880   -1.6340 hc        1 1Q1      0.076200
     25 H8          8.6450    0.2920   -2.4770 hc        1 1Q1      0.079700
     26 H9          8.7060    1.2580   -0.9390 hc        1 1Q1      0.079700
     27 H10        11.1040    1.7620   -1.7060 hc        1 1Q1      0.068033
     28 H11        12.3160    0.5840   -1.0300 hc        1 1Q1      0.068033
     29 H12        11.0820    1.3510    0.0630 hc        1 1Q1      0.068033
@<TRIPOS>BOND
     1    1    2 1   
     2    1   18 1   
     3    2    3 ar  
     4    2    8 ar  
     5    3    4 1   
     6    3    5 ar  
     7    5    6 ar  
     8    5   19 1   
     9    6    7 ar  
    10    6    9 1   
    11    7    8 ar  
    12    7   20 1   
    13    8   21 1   
    14    9   10 2   
    15    9   13 1   
    16   10   11 1   
    17   11   12 1   
    18   12   13 1   
    19   12   14 1   
    20   12   22 1   
    21   13   23 1   
    22   13   24 1   
    23   14   15 1   
    24   14   25 1   
    25   14   26 1   
    26   15   16 2   
    27   15   17 1   
    28   17   27 1   
    29   17   28 1   
    30   17   29 1   
@<TRIPOS>SUBSTRUCTURE
     1 1Q1         1 TEMP              0 ****  ****    0 ROOT
