@<TRIPOS>MOLECULE
1Q2
   31    31     1     0     0
SMALL
bcc


@<TRIPOS>ATOM
      1 C1         -0.0180    0.4310    0.2120 ca        1 1Q2      0.108100
      2 O1         -0.7170    0.8810   -0.8800 oh        1 1Q2     -0.487100
      3 C2          1.3790    0.6070    0.3500 ca        1 1Q2      0.035900
      4 F2          2.0710    1.2490   -0.6250 f         1 1Q2     -0.142900
      5 C3          2.0350    0.1180    1.4900 ca        1 1Q2     -0.101000
      6 C4          1.3010   -0.5330    2.4830 ca        1 1Q2     -0.202900
      7 C5         -0.0820   -0.7000    2.3410 ca        1 1Q2     -0.088000
      8 C6         -0.7450   -0.2270    1.2140 ca        1 1Q2     -0.141000
      9 C7          1.9980   -1.0560    3.6870 ce        1 1Q2      0.491900
     10 N8          3.0310   -1.8190    3.6700 n2        1 1Q2     -0.762100
     11 O9          2.7810    1.1810    5.5460 oh        1 1Q2     -0.606800
     12 C10         2.3720   -0.0990    6.0050 c3        1 1Q2      0.163100
     13 C11         1.3610   -0.6270    4.9880 c3        1 1Q2     -0.121700
     14 C12         1.7100    0.0160    7.3800 c3        1 1Q2     -0.227400
     15 C13         2.6840    0.3880    8.4600 c         1 1Q2      0.572100
     16 O13         3.7750    0.9150    8.2160 o         1 1Q2     -0.544100
     17 C14         2.2370    0.0840    9.8540 c3        1 1Q2     -0.203100
     18 HO1        -0.0920    1.3250   -1.4750 ho        1 1Q2      0.433000
     19 H3          3.1210    0.2680    1.5940 ha        1 1Q2      0.159000
     20 H5         -0.6520   -1.2130    3.1320 ha        1 1Q2      0.142000
     21 H6         -1.8300   -0.3570    1.0920 ha        1 1Q2      0.158000
     22 HN8         3.3810   -2.0540    2.7640 hn        1 1Q2      0.390400
     23 H10         3.2630   -0.7820    6.0840 h1        1 1Q2      0.067700
     24 H11         0.8260   -1.5090    5.4300 hc        1 1Q2      0.065200
     25 H11A        0.6080    0.1780    4.7810 hc        1 1Q2      0.065200
     26 H12         0.9160    0.8100    7.3430 hc        1 1Q2      0.076200
     27 H12A        1.2200   -0.9560    7.6440 hc        1 1Q2      0.076200
     28 H14         2.2750   -1.0210   10.0210 hc        1 1Q2      0.066367
     29 H14A        2.9020    0.5820   10.6010 hc        1 1Q2      0.066367
     30 H14B        1.1880    0.4330   10.0060 hc        1 1Q2      0.066367
     31 HO9         3.5270    1.4500    6.1010 ho        1 1Q2      0.426000
@<TRIPOS>BOND
     1    1    2 1   
     2    1    3 ar  
     3    1    8 ar  
     4    2   18 1   
     5    3    4 1   
     6    3    5 ar  
     7    5    6 ar  
     8    5   19 1   
     9    6    7 ar  
    10    6    9 1   
    11    7    8 ar  
    12    7   20 1   
    13    8   21 1   
    14    9   10 2   
    15    9   13 1   
    16   10   22 1   
    17   11   12 1   
    18   11   31 1   
    19   12   13 1   
    20   12   14 1   
    21   12   23 1   
    22   13   24 1   
    23   13   25 1   
    24   14   15 1   
    25   14   26 1   
    26   14   27 1   
    27   15   16 2   
    28   15   17 1   
    29   17   28 1   
    30   17   29 1   
    31   17   30 1   
@<TRIPOS>SUBSTRUCTURE
     1 1Q2         1 TEMP              0 ****  ****    0 ROOT
