@<TRIPOS>MOLECULE
1Q2
   31    31     1     0     0
SMALL
bcc


@<TRIPOS>ATOM
      1 C1         -0.0160    0.3880    0.2060 ca        1 1Q2      0.108100
      2 O1         -0.7120    0.8290   -0.8910 oh        1 1Q2     -0.487100
      3 C2          1.3830    0.5560    0.3430 ca        1 1Q2      0.035900
      4 F2          2.0790    1.1800   -0.6410 f         1 1Q2     -0.142900
      5 C3          2.0350    0.0760    1.4880 ca        1 1Q2     -0.101000
      6 C4          1.2970   -0.5570    2.4890 ca        1 1Q2     -0.202900
      7 C5         -0.0880   -0.7150    2.3500 ca        1 1Q2     -0.088000
      8 C6         -0.7470   -0.2520    1.2170 ca        1 1Q2     -0.141000
      9 C7          1.9900   -1.0700    3.6990 ce        1 1Q2      0.491900
     10 N8          3.0180   -1.8410    3.6920 n2        1 1Q2     -0.762100
     11 O9          2.7890    1.1860    5.5300 oh        1 1Q2     -0.606800
     12 C10         2.3720   -0.0850    6.0050 c3        1 1Q2      0.163100
     13 C11         1.3570   -0.6210    4.9960 c3        1 1Q2     -0.121700
     14 C12         1.7110    0.0510    7.3790 c3        1 1Q2     -0.227400
     15 C13         2.6890    0.4300    8.4540 c         1 1Q2      0.572100
     16 O13         3.7830    0.9480    8.2020 o         1 1Q2     -0.544100
     17 C14         2.2420    0.1470    9.8510 c3        1 1Q2     -0.203100
     18 HO1        -0.0830    1.2610   -1.4920 ho        1 1Q2      0.433000
     19 H3          3.1220    0.2190    1.5900 ha        1 1Q2      0.159000
     20 H5         -0.6610   -1.2140    3.1470 ha        1 1Q2      0.142000
     21 H6         -1.8330   -0.3760    1.0970 ha        1 1Q2      0.158000
     22 HN8         3.3650   -2.0900    2.7890 hn        1 1Q2      0.390400
     23 H10         3.2590   -0.7730    6.0920 h1        1 1Q2      0.067700
     24 H11         0.8160   -1.4930    5.4490 hc        1 1Q2      0.065200
     25 H11A        0.6090    0.1870    4.7780 hc        1 1Q2      0.065200
     26 H12         1.2150   -0.9150    7.6550 hc        1 1Q2      0.076200
     27 H12A        0.9230    0.8490    7.3330 hc        1 1Q2      0.076200
     28 H14         1.1940    0.5050    9.9990 hc        1 1Q2      0.066367
     29 H14A        2.9100    0.6510   10.5910 hc        1 1Q2      0.066367
     30 H14B        2.2730   -0.9550   10.0320 hc        1 1Q2      0.066367
     31 HO9         3.5370    1.4570    6.0800 ho        1 1Q2      0.426000
@<TRIPOS>BOND
     1    1    2 1   
     2    1    3 ar  
     3    1    8 ar  
     4    2   18 1   
     5    3    4 1   
     6    3    5 ar  
     7    5    6 ar  
     8    5   19 1   
     9    6    7 ar  
    10    6    9 1   
    11    7    8 ar  
    12    7   20 1   
    13    8   21 1   
    14    9   10 2   
    15    9   13 1   
    16   10   22 1   
    17   11   12 1   
    18   11   31 1   
    19   12   13 1   
    20   12   14 1   
    21   12   23 1   
    22   13   24 1   
    23   13   25 1   
    24   14   15 1   
    25   14   26 1   
    26   14   27 1   
    27   15   16 2   
    28   15   17 1   
    29   17   28 1   
    30   17   29 1   
    31   17   30 1   
@<TRIPOS>SUBSTRUCTURE
     1 1Q2         1 TEMP              0 ****  ****    0 ROOT
