@<TRIPOS>MOLECULE
1Q2
   31    31     1     0     0
SMALL
bcc


@<TRIPOS>ATOM
      1 C1         -0.0290    0.4800    0.2150 ca        1 1Q2      0.108100
      2 O1         -0.7570    0.9000   -0.8690 oh        1 1Q2     -0.487100
      3 C2          1.3480    0.7680    0.3690 ca        1 1Q2      0.035900
      4 F2          1.9890    1.4920   -0.5830 f         1 1Q2     -0.142900
      5 C3          2.0370    0.3030    1.5000 ca        1 1Q2     -0.101000
      6 C4          1.3540   -0.4340    2.4690 ca        1 1Q2     -0.203900
      7 C5         -0.0100   -0.7110    2.3120 ca        1 1Q2     -0.088000
      8 C6         -0.7030   -0.2640    1.1940 ca        1 1Q2     -0.141000
      9 C7          2.0860   -0.9310    3.6630 ce        1 1Q2      0.491900
     10 N8          3.1800   -1.6030    3.6340 n2        1 1Q2     -0.762100
     11 O9          2.6750    1.3040    5.5950 oh        1 1Q2     -0.606800
     12 C10         2.3650   -0.0170    6.0120 c3        1 1Q2      0.163100
     13 C11         1.4080   -0.5950    4.9710 c3        1 1Q2     -0.121700
     14 C12         1.6850    0.0040    7.3830 c3        1 1Q2     -0.227400
     15 C13         2.6180    0.4200    8.4840 c         1 1Q2      0.572100
     16 O13         3.6660    1.0390    8.2660 o         1 1Q2     -0.544100
     17 C14         2.1870    0.0410    9.8630 c3        1 1Q2     -0.203100
     18 HO1        -0.1680    1.4110   -1.4480 ho        1 1Q2      0.433000
     19 H3          3.1060    0.5400    1.6160 ha        1 1Q2      0.159000
     20 H5         -0.5390   -1.2920    3.0840 ha        1 1Q2      0.142000
     21 H6         -1.7730   -0.4810    1.0600 ha        1 1Q2      0.158000
     22 HN8         3.5540   -1.7820    2.7240 hn        1 1Q2      0.390400
     23 H10         3.3070   -0.6290    6.0810 h1        1 1Q2      0.067700
     24 H11         0.9430   -1.5300    5.3810 hc        1 1Q2      0.065200
     25 H11A        0.5940    0.1540    4.7800 hc        1 1Q2      0.065200
     26 H12         1.2720   -1.0120    7.6140 hc        1 1Q2      0.076200
     27 H12A        0.8310    0.7330    7.3620 hc        1 1Q2      0.076200
     28 H14         1.1120    0.3010   10.0150 hc        1 1Q2      0.066367
     29 H14A        2.8040    0.5680   10.6310 hc        1 1Q2      0.066367
     30 H14B        2.3110   -1.0620    9.9990 hc        1 1Q2      0.066367
     31 HO9         3.3930    1.6150    6.1640 ho        1 1Q2      0.426000
@<TRIPOS>BOND
     1    1    2 1   
     2    1    3 ar  
     3    1    8 ar  
     4    2   18 1   
     5    3    4 1   
     6    3    5 ar  
     7    5    6 ar  
     8    5   19 1   
     9    6    7 ar  
    10    6    9 1   
    11    7    8 ar  
    12    7   20 1   
    13    8   21 1   
    14    9   10 2   
    15    9   13 1   
    16   10   22 1   
    17   11   12 1   
    18   11   31 1   
    19   12   13 1   
    20   12   14 1   
    21   12   23 1   
    22   13   24 1   
    23   13   25 1   
    24   14   15 1   
    25   14   26 1   
    26   14   27 1   
    27   15   16 2   
    28   15   17 1   
    29   17   28 1   
    30   17   29 1   
    31   17   30 1   
@<TRIPOS>SUBSTRUCTURE
     1 1Q2         1 TEMP              0 ****  ****    0 ROOT
