@<TRIPOS>MOLECULE
1Q3
   40    43     1     0     0
SMALL
bcc


@<TRIPOS>ATOM
      1 C1         -0.1960   -0.2720   -0.0030 c3        1 1Q3     -0.156400
      2 C2          1.0580   -1.0970    0.0550 c2        1 1Q3      0.498200
      3 N3          1.7610   -1.3730    1.0910 ne        1 1Q3     -0.584100
      4 C5          1.3970   -0.8750    2.3750 c         1 1Q3      0.579000
      5 O6          2.1810   -0.9010    3.3190 o         1 1Q3     -0.396100
      6 C7         -0.0140   -0.3080    2.5290 ca        1 1Q3      0.413800
      7 C8         -0.7590   -0.0070    1.3410 ca        1 1Q3     -0.304900
      8 C9         -2.0370    0.5470    1.5650 ca        1 1Q3      0.518200
      9 N10        -2.5580    0.7790    2.7980 nb        1 1Q3     -0.714000
     10 C11        -1.7680    0.4400    3.8700 ca        1 1Q3      0.831500
     11 N12        -0.4970   -0.1050    3.7570 nb        1 1Q3     -0.622000
     12 C13        -2.2840    0.6660    5.1930 cc        1 1Q3     -0.400800
     13 C14        -1.6300    0.3970    6.4270 cd        1 1Q3     -0.023300
     14 N15        -2.5150    0.7820    7.4130 na        1 1Q3      0.005400
     15 N17        -3.6660    1.2700    6.9210 nd        1 1Q3     -0.489800
     16 C18        -3.5730    1.2210    5.5740 cc        1 1Q3      0.364200
     17 N19        -2.8920    0.9290    0.4130 n4        1 1Q3     -0.754700
     18 C20        -3.8270   -0.1850    0.0060 c3        1 1Q3      0.135500
     19 C21        -5.1390   -0.1640    0.8130 c3        1 1Q3     -0.107400
     20 C22        -6.1310    0.6650    0.0090 c3        1 1Q3     -0.099400
     21 C23        -5.5940    0.7830   -1.4110 c3        1 1Q3     -0.088400
     22 C24        -4.3090   -0.0500   -1.4640 c3        1 1Q3     -0.027600
     23 C25        -3.3210    0.4870   -2.3700 c1        1 1Q3      0.153700
     24 N26        -2.5490    0.9030   -3.1350 n1        1 1Q3     -0.287800
     25 H1         -0.9400   -0.8230   -0.6430 hc        1 1Q3      0.088200
     26 H2          0.0540    0.6980   -0.5210 hc        1 1Q3      0.088200
     27 H3          1.4100   -1.5030   -0.9190 h4        1 1Q3      0.061800
     28 H4         -0.6400   -0.0230    6.6270 h4        1 1Q3      0.214000
     29 H5         -2.3790    0.7350    8.4010 hn        1 1Q3      0.347700
     30 H6         -4.3740    1.5620    4.9160 h4        1 1Q3      0.057100
     31 H7         -2.2680    1.1710   -0.3670 hn        1 1Q3      0.467300
     32 H8         -3.2640   -1.1510    0.1550 hx        1 1Q3      0.116700
     33 H9         -5.4940   -1.2240    0.9060 hc        1 1Q3      0.097700
     34 H10        -5.0140    0.2330    1.8510 hc        1 1Q3      0.097700
     35 H11        -7.1380    0.1740    0.0140 hc        1 1Q3      0.078200
     36 H12        -6.2600    1.6800    0.4640 hc        1 1Q3      0.078200
     37 H13        -5.3910    1.8520   -1.6740 hc        1 1Q3      0.082200
     38 H14        -6.3320    0.3950   -2.1590 hc        1 1Q3      0.082200
     39 H15        -4.5650   -1.0990   -1.8080 hc        1 1Q3      0.129700
     40 H192       -3.4560    1.7570    0.6560 hn        1 1Q3      0.467300
@<TRIPOS>BOND
     1    1    2 1   
     2    1    7 1   
     3    1   25 1   
     4    1   26 1   
     5    2    3 2   
     6    2   27 1   
     7    3    4 1   
     8    4    5 2   
     9    4    6 1   
    10    6    7 ar  
    11    6   11 ar  
    12    7    8 ar  
    13    8    9 ar  
    14    8   17 1   
    15    9   10 ar  
    16   10   11 ar  
    17   10   12 1   
    18   12   13 2   
    19   12   16 1   
    20   13   14 1   
    21   13   28 1   
    22   14   15 1   
    23   14   29 1   
    24   15   16 2   
    25   16   30 1   
    26   17   18 1   
    27   17   31 1   
    28   17   40 1   
    29   18   19 1   
    30   18   22 1   
    31   18   32 1   
    32   19   20 1   
    33   19   33 1   
    34   19   34 1   
    35   20   21 1   
    36   20   35 1   
    37   20   36 1   
    38   21   22 1   
    39   21   37 1   
    40   21   38 1   
    41   22   23 1   
    42   22   39 1   
    43   23   24 3   
@<TRIPOS>SUBSTRUCTURE
     1 1Q3         1 TEMP              0 ****  ****    0 ROOT
