@<TRIPOS>MOLECULE
1Q3
   39    42     1     0     0
SMALL
bcc


@<TRIPOS>ATOM
      1 C1          0.8320   -2.7660    0.0640 c3        1 1Q3     -0.133400
      2 C2          0.0740   -4.0560    0.0580 c2        1 1Q3      0.496200
      3 N3         -1.1920   -4.2240    0.1990 ne        1 1Q3     -0.628100
      4 C5         -2.0490   -3.0990    0.4000 c         1 1Q3      0.584000
      5 O6         -3.2210   -3.2740    0.7390 o         1 1Q3     -0.454100
      6 C7         -1.4600   -1.7160    0.1910 ca        1 1Q3      0.403800
      7 C8         -0.0600   -1.5850    0.0740 ca        1 1Q3     -0.362900
      8 C9          0.4570   -0.2480   -0.0720 ca        1 1Q3      0.683200
      9 N10        -0.3860    0.8290   -0.1130 nb        1 1Q3     -0.749000
     10 C11        -1.7290    0.5740   -0.0270 ca        1 1Q3      0.789500
     11 N12        -2.3030   -0.6640    0.1340 nb        1 1Q3     -0.688000
     12 C13        -2.6290    1.7130   -0.0970 cc        1 1Q3     -0.344800
     13 C14        -4.0370    1.6960   -0.0020 cd        1 1Q3     -0.068300
     14 N15        -4.4430    3.0180   -0.1270 na        1 1Q3     -0.021600
     15 N17        -3.4140    3.8610   -0.2930 nd        1 1Q3     -0.525800
     16 C18        -2.2860    3.1110   -0.2810 cc        1 1Q3      0.349200
     17 N19         1.8350   -0.0730   -0.2450 nh        1 1Q3     -0.835900
     18 C20         2.4220    1.2500   -0.2870 c3        1 1Q3      0.222500
     19 C21         2.4380    2.0140    1.0560 c3        1 1Q3     -0.109400
     20 C22         3.8220    1.8500    1.6640 c3        1 1Q3     -0.086400
     21 C23         4.7310    1.2520    0.6000 c3        1 1Q3     -0.080400
     22 C24         3.9250    1.2100   -0.7010 c3        1 1Q3     -0.019600
     23 C25         4.2770    0.0760   -1.5260 c1        1 1Q3      0.221700
     24 N26         4.5590   -0.8350   -2.1910 n1        1 1Q3     -0.368800
     25 H1          1.5090   -2.7560    0.9650 hc        1 1Q3      0.084200
     26 H2          1.4900   -2.7450   -0.8520 hc        1 1Q3      0.084200
     27 H3          0.6870   -4.9710   -0.0880 h4        1 1Q3      0.032800
     28 H4         -4.7290    0.8630    0.1400 h4        1 1Q3      0.202000
     29 H5         -5.3730    3.3650   -0.1080 hn        1 1Q3      0.325700
     30 H6         -1.2900    3.5380   -0.3990 h4        1 1Q3      0.055100
     31 H7          2.3910   -0.7580    0.2220 hn        1 1Q3      0.415800
     32 H8          1.8500    1.8460   -1.0550 h1        1 1Q3      0.093700
     33 H9          2.2290    3.0940    0.8500 hc        1 1Q3      0.063700
     34 H10         1.6420    1.6510    1.7510 hc        1 1Q3      0.063700
     35 H11         4.2170    2.8380    2.0100 hc        1 1Q3      0.050200
     36 H12         3.7830    1.1800    2.5600 hc        1 1Q3      0.050200
     37 H13         5.6550    1.8680    0.4630 hc        1 1Q3      0.055700
     38 H14         5.0560    0.2230    0.8960 hc        1 1Q3      0.055700
     39 H15         4.1240    2.1500   -1.2930 hc        1 1Q3      0.091700
@<TRIPOS>BOND
     1    1    2 1   
     2    1    7 1   
     3    1   25 1   
     4    1   26 1   
     5    2    3 2   
     6    2   27 1   
     7    3    4 1   
     8    4    5 2   
     9    4    6 1   
    10    6    7 ar  
    11    6   11 ar  
    12    7    8 ar  
    13    8    9 ar  
    14    8   17 1   
    15    9   10 ar  
    16   10   11 ar  
    17   10   12 1   
    18   12   13 2   
    19   12   16 1   
    20   13   14 1   
    21   13   28 1   
    22   14   15 1   
    23   14   29 1   
    24   15   16 2   
    25   16   30 1   
    26   17   18 1   
    27   17   31 1   
    28   18   19 1   
    29   18   22 1   
    30   18   32 1   
    31   19   20 1   
    32   19   33 1   
    33   19   34 1   
    34   20   21 1   
    35   20   35 1   
    36   20   36 1   
    37   21   22 1   
    38   21   37 1   
    39   21   38 1   
    40   22   23 1   
    41   22   39 1   
    42   23   24 3   
@<TRIPOS>SUBSTRUCTURE
     1 1Q3         1 TEMP              0 ****  ****    0 ROOT
