@<TRIPOS>MOLECULE
1Q3
   39    35     1     0     0
SMALL
bcc


@<TRIPOS>ATOM
      1 C1          2.5670    1.0930   -1.2710 c3        1 1Q3     -0.144000
      2 C2          4.0910    1.0530   -1.2440 c2        1 1Q3      0.004000
      3 N3          4.7830    1.0690    0.0040 n1        1 1Q3     -0.201000
      4 C5          4.0920    0.7310    1.2060 c1        1 1Q3      0.295000
      5 O6          4.7040    0.7450    2.3070 o         1 1Q3     -0.213000
      6 C7          2.6110    0.2930    1.1490 c1        1 1Q3     -0.014000
      7 C8          1.8970    0.4350   -0.0180 c2        1 1Q3     -0.220000
      8 C9          0.5760    0.0260   -0.0750 c1        1 1Q3      0.158000
      9 N10        -0.0100   -0.5130    1.0150 n1        1 1Q3     -0.225000
     10 C11         0.7080   -0.6540    2.1810 c1        1 1Q3      0.156000
     11 N12         2.0230   -0.2460    2.2370 n2        1 1Q3     -0.160000
     12 C13         0.0480   -1.2330    3.4070 c1        1 1Q3     -0.172000
     13 C14        -0.5000   -0.5060    4.4510 c1        1 1Q3     -0.080000
     14 N15        -0.8740   -1.3720    5.4090 n2        1 1Q3     -0.129000
     15 N17        -0.5630   -2.6550    4.9740 n2        1 1Q3     -0.129000
     16 C18         0.0020   -2.5570    3.7450 c1        1 1Q3     -0.080000
     17 N19        -0.1890    0.2380   -1.2680 n3        1 1Q3     -0.273000
     18 C20        -1.4800    0.4330   -1.1880 c3        1 1Q3      0.016000
     19 C21        -1.8880    1.7230   -2.0130 c3        1 1Q3     -0.163000
     20 C22        -2.5030    1.2910   -3.0550 c3        1 1Q3     -0.162000
     21 C23        -3.1680   -0.1420   -2.6540 c3        1 1Q3     -0.152000
     22 C24        -2.2690   -0.7910   -1.8450 c3        1 1Q3     -0.054000
     23 C25        -1.3520   -1.8210   -2.5920 c1        1 1Q3     -0.139000
     24 N26        -0.6750   -2.5830   -3.1410 n1        1 1Q3     -0.053000
     25 H1          2.1950    1.9840   -1.5100 hc        1 1Q3      0.124000
     26 H2          2.2860    0.5870   -2.0330 hc        1 1Q3      0.124000
     27 H3          4.5790    1.0180   -2.0560 h4        1 1Q3      0.161000
     28 H4         -0.6010    0.5030    4.4870 DU        1 1Q3      0.223333
     29 H5         -1.2640   -1.1550    6.2060 DU        1 1Q3      0.223333
     30 H6          0.3280   -3.3170    3.1850 DU        1 1Q3      0.223333
     31 H7          0.2360    0.2550   -2.0990 hn        1 1Q3      0.210000
     32 H8         -1.7520    0.5400   -0.2200 h1        1 1Q3      0.136000
     33 H9         -2.4630    2.2730   -1.4980 hc        1 1Q3      0.094500
     34 H10        -1.0890    2.2200   -2.2760 hc        1 1Q3      0.094500
     35 H11        -3.1850    1.9080   -3.3060 hc        1 1Q3      0.091000
     36 H12        -1.8410    1.1690   -3.8270 hc        1 1Q3      0.091000
     37 H13        -4.0010    0.0020   -2.1740 hc        1 1Q3      0.097500
     38 H14        -3.3320   -0.6630   -3.4500 hc        1 1Q3      0.097500
     39 H15        -2.7280   -1.3810   -1.1480 hc        1 1Q3      0.141000
@<TRIPOS>BOND
     1    1    2 1   
     2    1    7 1   
     3    1   25 1   
     4    1   26 1   
     5    2    3 1   
     6    2   27 1   
     7    4    5 1   
     8    6    7 1   
     9    6   11 1   
    10    7    8 1   
    11    8   17 1   
    12    9   10 1   
    13   10   11 1   
    14   12   13 1   
    15   12   16 1   
    16   13   14 1   
    17   14   15 1   
    18   15   16 1   
    19   17   18 1   
    20   17   31 1   
    21   18   19 1   
    22   18   22 1   
    23   18   32 1   
    24   19   20 1   
    25   19   33 1   
    26   19   34 1   
    27   20   21 1   
    28   20   35 1   
    29   20   36 1   
    30   21   22 1   
    31   21   37 1   
    32   21   38 1   
    33   22   23 1   
    34   22   39 1   
    35   23   24 1   
@<TRIPOS>SUBSTRUCTURE
     1 1Q3         1 TEMP              0 ****  ****    0 ROOT
