@<TRIPOS>MOLECULE
1Q3
   39    42     1     0     0
SMALL
bcc


@<TRIPOS>ATOM
      1 C1         -0.0340   -0.0200   -0.0690 c3        1 1Q3     -0.133400
      2 C2          1.4590   -0.1050   -0.0160 c2        1 1Q3      0.496200
      3 N3          2.2160    0.0180    1.0140 ne        1 1Q3     -0.628100
      4 C5          1.6480    0.2800    2.2980 c         1 1Q3      0.584000
      5 O6          2.3780    0.6020    3.2380 o         1 1Q3     -0.454100
      6 C7          0.1420    0.1540    2.4420 ca        1 1Q3      0.403800
      7 C8         -0.6450    0.0530    1.2770 ca        1 1Q3     -0.362900
      8 C9         -2.0720   -0.0130    1.4610 ca        1 1Q3      0.683200
      9 N10        -2.6190    0.0020    2.7160 nb        1 1Q3     -0.749000
     10 C11        -1.7510    0.0650    3.7740 ca        1 1Q3      0.789500
     11 N12        -0.3830    0.1520    3.6860 nb        1 1Q3     -0.688000
     12 C13        -2.3260    0.0550    5.1090 cc        1 1Q3     -0.344800
     13 C14        -1.6350    0.1410    6.3370 cd        1 1Q3     -0.068300
     14 N15        -2.6090    0.0890    7.3250 na        1 1Q3     -0.021600
     15 N17        -3.8480   -0.0220    6.8250 nd        1 1Q3     -0.525800
     16 C18        -3.7260   -0.0470    5.4770 cc        1 1Q3      0.349200
     17 N19        -2.8920   -0.1680    0.3370 nh        1 1Q3     -0.835900
     18 C20        -4.3350   -0.1310    0.4510 c3        1 1Q3      0.222500
     19 C21        -4.9420    1.2540    0.7710 c3        1 1Q3     -0.109400
     20 C22        -5.4250    1.8600   -0.5370 c3        1 1Q3     -0.086400
     21 C23        -5.3890    0.7690   -1.5980 c3        1 1Q3     -0.080400
     22 C24        -5.0370   -0.5370   -0.8810 c3        1 1Q3     -0.019600
     23 C25        -4.2530   -1.4230   -1.7120 c1        1 1Q3      0.221700
     24 N26        -3.6230   -2.1360   -2.3790 n1        1 1Q3     -0.368800
     25 H1         -0.3160    0.8840   -0.6790 hc        1 1Q3      0.084200
     26 H2         -0.4150   -0.9290   -0.6170 hc        1 1Q3      0.084200
     27 H3          1.9630   -0.3000   -0.9870 h4        1 1Q3      0.032800
     28 H4         -0.5670    0.2300    6.5460 h4        1 1Q3      0.202000
     29 H5         -2.4700    0.1220    8.3080 hn        1 1Q3      0.325700
     30 H6         -4.5820   -0.1340    4.8060 h4        1 1Q3      0.055100
     31 H7         -2.5300    0.2630   -0.4890 hn        1 1Q3      0.415800
     32 H8         -4.6260   -0.8680    1.2540 h1        1 1Q3      0.093700
     33 H9         -5.8010    1.1080    1.4740 hc        1 1Q3      0.063700
     34 H10        -4.2070    1.9220    1.2830 hc        1 1Q3      0.063700
     35 H11        -6.4630    2.2630   -0.4210 hc        1 1Q3      0.050200
     36 H12        -4.7720    2.7160   -0.8400 hc        1 1Q3      0.050200
     37 H13        -6.3770    0.6720   -2.1140 hc        1 1Q3      0.055700
     38 H14        -4.6250    1.0090   -2.3800 hc        1 1Q3      0.055700
     39 H15        -5.9880   -1.0740   -0.5960 hc        1 1Q3      0.091700
@<TRIPOS>BOND
     1    1    2 1   
     2    1    7 1   
     3    1   25 1   
     4    1   26 1   
     5    2    3 2   
     6    2   27 1   
     7    3    4 1   
     8    4    5 2   
     9    4    6 1   
    10    6    7 ar  
    11    6   11 ar  
    12    7    8 ar  
    13    8    9 ar  
    14    8   17 1   
    15    9   10 ar  
    16   10   11 ar  
    17   10   12 1   
    18   12   13 2   
    19   12   16 1   
    20   13   14 1   
    21   13   28 1   
    22   14   15 1   
    23   14   29 1   
    24   15   16 2   
    25   16   30 1   
    26   17   18 1   
    27   17   31 1   
    28   18   19 1   
    29   18   22 1   
    30   18   32 1   
    31   19   20 1   
    32   19   33 1   
    33   19   34 1   
    34   20   21 1   
    35   20   35 1   
    36   20   36 1   
    37   21   22 1   
    38   21   37 1   
    39   21   38 1   
    40   22   23 1   
    41   22   39 1   
    42   23   24 3   
@<TRIPOS>SUBSTRUCTURE
     1 1Q3         1 TEMP              0 ****  ****    0 ROOT
