@<TRIPOS>MOLECULE
1Q3
   39    43     1     0     0
SMALL
bcc


@<TRIPOS>ATOM
      1 C1          0.0000    0.0000    0.0000 c3        1 1Q3     -0.043000
      2 C2          1.5140    0.0000    0.0000 c2        1 1Q3     -0.023000
      3 N3          2.1660    0.0000    1.1150 n2        1 1Q3     -0.170000
      4 C5          1.5850   -0.0010    2.3240 c2        1 1Q3      0.302000
      5 O6          2.2860   -0.0020    3.3160 o         1 1Q3     -0.260000
      6 C7          0.1130   -0.0010    2.4810 c2        1 1Q3     -0.042000
      7 C8         -0.6870   -0.0010    1.3420 c2        1 1Q3     -0.228000
      8 C9         -2.0700    0.0000    1.4790 c2        1 1Q3      0.058000
      9 N10        -2.5830   -0.0000    2.7070 n2        1 1Q3     -0.149000
     10 C11        -1.7930   -0.0010    3.7740 c2        1 1Q3      0.113000
     11 N12        -0.4700   -0.0020    3.6750 n2        1 1Q3     -0.077000
     12 C13        -2.4100   -0.0010    5.1210 c2        1 1Q3     -0.204000
     13 C14        -1.7450    0.0030    6.3140 c2        1 1Q3     -0.181000
     14 N15        -2.6680    0.0060    7.2950 na        1 1Q3      0.296000
     15 N17        -3.9370    0.0050    6.7030 n2        1 1Q3     -0.248000
     16 C18        -3.7900   -0.0000    5.4050 c2        1 1Q3     -0.026000
     17 N19        -2.8940    0.0020    0.3650 nu        1 1Q3      0.044000
     18 C20        -4.3500    0.0030    0.5310 c3        1 1Q3     -0.014000
     19 C21        -4.8680    1.4520    0.6470 c3        1 1Q3     -0.253000
     20 C22        -5.3030    1.8150   -0.7940 c3        1 1Q3     -0.379000
     21 C23        -5.9250    0.4930   -1.3080 DU        1 1Q3     -0.065000
     22 C24        -5.0220   -0.6070   -0.7110 c3        1 1Q3      0.069000
     23 C25        -4.0000   -1.0060   -1.6920 c1        1 1Q3     -0.148000
     24 N26        -3.2240   -1.3090   -2.4640 n1        1 1Q3     -0.058000
     25 H1         -0.0620   -0.9730   -0.4720 hc        1 1Q3      0.081500
     26 H2         -0.2150    0.6380   -0.8490 hc        1 1Q3      0.081500
     27 H3          2.2970    0.1990   -0.7220 h4        1 1Q3      0.142000
     28 H4         -0.7070    0.1210    6.5990 h4        1 1Q3      0.154000
     29 H5         -2.3860    0.0470    8.2540 hn        1 1Q3      0.100000
     30 H6         -4.6830   -0.1710    4.8160 h4        1 1Q3      0.148000
     31 H7         -2.7510    0.3220   -0.5720 hn        1 1Q3      0.108000
     32 H8         -4.6280   -0.5600    1.4140 h1        1 1Q3      0.103000
     33 H9         -4.5480    2.4170    0.2760 hc        1 1Q3      0.114500
     34 H10        -5.5130    1.8170    1.4370 hc        1 1Q3      0.114500
     35 H11        -6.3660    1.6270   -0.8840 DU        1 1Q3      0.128000
     36 H12        -4.8200    2.7490   -1.0560 hc        1 1Q3      0.149000
     37 H13        -6.9920    0.6550   -1.2140 ha        1 1Q3      0.086000
     38 H14        -5.4420    0.3850   -2.2720 ha        1 1Q3      0.086000
     39 H15        -5.6220   -1.4620   -0.4240 hc        1 1Q3      0.089000
@<TRIPOS>BOND
     1    1    2 1   
     2    1    7 1   
     3    1   25 1   
     4    1   26 1   
     5    2    3 1   
     6    2   27 1   
     7    3    4 1   
     8    4    5 1   
     9    4    6 1   
    10    6    7 1   
    11    6   11 1   
    12    7    8 1   
    13    8    9 1   
    14    8   17 1   
    15    9   10 1   
    16   10   11 1   
    17   10   12 1   
    18   12   13 1   
    19   12   16 1   
    20   13   14 1   
    21   13   28 1   
    22   14   15 1   
    23   14   29 1   
    24   15   16 1   
    25   16   30 1   
    26   17   18 1   
    27   17   31 1   
    28   18   19 1   
    29   18   22 1   
    30   18   32 1   
    31   19   20 1   
    32   19   33 1   
    33   19   34 1   
    34   20   21 1   
    35   20   35 1   
    36   20   36 1   
    37   21   22 1   
    38   21   35 1   
    39   21   37 1   
    40   21   38 1   
    41   22   23 1   
    42   22   39 1   
    43   23   24 1   
@<TRIPOS>SUBSTRUCTURE
     1 1Q3         1 TEMP              0 ****  ****    0 ROOT
