@<TRIPOS>MOLECULE
1Q4
   34    36     1     0     0
SMALL
bcc


@<TRIPOS>ATOM
      1 C1         -0.0140    0.0530    0.0160 cc        1 1Q4     -0.201200
      2 C2          1.3500    0.0080   -0.0180 cd        1 1Q4     -0.002400
      3 N3          2.1150   -0.0560    1.1250 ns        1 1Q4     -0.456100
      4 C5          1.5470   -0.0640    2.4070 c         1 1Q4      0.593000
      5 O6          2.3100   -0.1190    3.3840 o         1 1Q4     -0.588500
      6 C7          0.0520   -0.0090    2.4740 ca        1 1Q4      0.397800
      7 C8         -0.7000    0.0380    1.2740 ca        1 1Q4     -0.262400
      8 C9         -2.1490    0.0790    1.4110 ca        1 1Q4      0.678200
      9 N10        -2.7200    0.0680    2.6520 nb        1 1Q4     -0.748000
     10 C11        -1.8740    0.0370    3.7160 ca        1 1Q4      0.651900
     11 N12        -0.5280   -0.0070    3.7090 nb        1 1Q4     -0.669000
     12 N13        -2.9380    0.2080    0.2710 nu        1 1Q4     -0.832900
     13 C14        -4.3840    0.0620    0.3160 c3        1 1Q4      0.208500
     14 C15        -5.0200    0.6440   -0.9610 c3        1 1Q4     -0.092900
     15 C16        -6.5300    0.5850   -0.8640 c3        1 1Q4     -0.074900
     16 C17        -7.0180   -0.8320   -0.6450 c3        1 1Q4     -0.080400
     17 C18        -6.3680   -1.4490    0.5750 c3        1 1Q4     -0.074900
     18 C19        -4.8580   -1.3920    0.4890 c3        1 1Q4     -0.092900
     19 H1         -0.5620    0.1200   -0.9320 ha        1 1Q4      0.145000
     20 H3          1.9130    0.0210   -0.9700 h4        1 1Q4      0.153000
     21 H4         -2.3630    0.0400    4.7140 h5        1 1Q4      0.058100
     22 H5         -2.5210   -0.1460   -0.5630 hn        1 1Q4      0.413800
     23 H6         -4.7660    0.6630    1.1950 h1        1 1Q4      0.088700
     24 H7         -4.6780    0.0640   -1.8570 hc        1 1Q4      0.046700
     25 H8         -4.6970    1.7090   -1.0970 hc        1 1Q4      0.046700
     26 H9         -6.8770    1.2360   -0.0180 hc        1 1Q4      0.044950
     27 H10        -6.9750    0.9950   -1.8080 hc        1 1Q4      0.044950
     28 H11        -8.1320   -0.8300   -0.5180 hc        1 1Q4      0.041700
     29 H12        -6.7830   -1.4520   -1.5500 hc        1 1Q4      0.041700
     30 H13        -6.7100   -0.9070    1.4960 hc        1 1Q4      0.044950
     31 H14        -6.6930   -2.5180    0.6740 hc        1 1Q4      0.044950
     32 H15        -4.4170   -1.8270    1.4220 hc        1 1Q4      0.046700
     33 H16        -4.5070   -2.0110   -0.3780 hc        1 1Q4      0.046700
     34 H2          3.1090   -0.0870    1.0560 hn        1 1Q4      0.336500
@<TRIPOS>BOND
     1    1    2 2   
     2    1    7 1   
     3    1   19 1   
     4    2    3 1   
     5    2   20 1   
     6    3    4 1   
     7    3   34 1   
     8    4    5 2   
     9    4    6 1   
    10    6    7 ar  
    11    6   11 ar  
    12    7    8 ar  
    13    8    9 ar  
    14    8   12 1   
    15    9   10 ar  
    16   10   11 ar  
    17   10   21 1   
    18   12   13 1   
    19   12   22 1   
    20   13   14 1   
    21   13   18 1   
    22   13   23 1   
    23   14   15 1   
    24   14   24 1   
    25   14   25 1   
    26   15   16 1   
    27   15   26 1   
    28   15   27 1   
    29   16   17 1   
    30   16   28 1   
    31   16   29 1   
    32   17   18 1   
    33   17   30 1   
    34   17   31 1   
    35   18   32 1   
    36   18   33 1   
@<TRIPOS>SUBSTRUCTURE
     1 1Q4         1 TEMP              0 ****  ****    0 ROOT
