@<TRIPOS>MOLECULE
1Q4
   34    36     1     0     0
SMALL
bcc


@<TRIPOS>ATOM
      1 C1          1.6610    1.7510   -0.1080 cc        1 1Q4     -0.201200
      2 C2          2.9410    2.1940   -0.2760 cd        1 1Q4     -0.002400
      3 N3          4.0210    1.3390   -0.3010 n         1 1Q4     -0.456100
      4 C5          3.8820   -0.0460   -0.1420 c         1 1Q4      0.593000
      5 O6          4.9090   -0.7440   -0.1730 o         1 1Q4     -0.588500
      6 C7          2.4900   -0.5600    0.0510 ca        1 1Q4      0.397800
      7 C8          1.4040    0.3500    0.0540 ca        1 1Q4     -0.262400
      8 C9          0.0750   -0.2180    0.2340 ca        1 1Q4      0.678200
      9 N10        -0.0790   -1.5660    0.3880 nb        1 1Q4     -0.748000
     10 C11         1.0540   -2.3170    0.3810 ca        1 1Q4      0.651900
     11 N12         2.3260   -1.9040    0.2180 nb        1 1Q4     -0.669000
     12 N13        -1.0240    0.6340    0.3270 nh        1 1Q4     -0.832900
     13 C14        -2.3890    0.1330    0.3130 c3        1 1Q4      0.208500
     14 C15        -3.3590    1.2120    0.8290 c3        1 1Q4     -0.092900
     15 C16        -4.7640    0.6530    0.9120 c3        1 1Q4     -0.074900
     16 C17        -5.2360    0.1340   -0.4300 c3        1 1Q4     -0.080400
     17 C18        -4.2710   -0.8920   -0.9870 c3        1 1Q4     -0.074900
     18 C19        -2.8640   -0.3420   -1.0720 c3        1 1Q4     -0.092900
     19 H1          0.8480    2.4860   -0.0810 ha        1 1Q4      0.145000
     20 H3          3.1770    3.2670   -0.4000 h4        1 1Q4      0.153000
     21 H4          0.9030   -3.4100    0.5190 h5        1 1Q4      0.058100
     22 H5         -0.9080    1.5080   -0.1380 hn        1 1Q4      0.413800
     23 H6         -2.4420   -0.7460    1.0240 h1        1 1Q4      0.088700
     24 H7         -3.0370    1.5620    1.8440 hc        1 1Q4      0.046700
     25 H8         -3.3480    2.0970    0.1410 hc        1 1Q4      0.046700
     26 H9         -4.7920   -0.1780    1.6650 hc        1 1Q4      0.044950
     27 H10        -5.4590    1.4560    1.2710 hc        1 1Q4      0.044950
     28 H11        -6.2520   -0.3260   -0.3190 hc        1 1Q4      0.041700
     29 H12        -5.3310    0.9890   -1.1500 hc        1 1Q4      0.041700
     30 H13        -4.2770   -1.8050   -0.3350 hc        1 1Q4      0.044950
     31 H14        -4.6070   -1.2070   -2.0100 hc        1 1Q4      0.044950
     32 H15        -2.8360    0.5130   -1.7960 hc        1 1Q4      0.046700
     33 H16        -2.1770   -1.1400   -1.4560 hc        1 1Q4      0.046700
     34 H2          4.9390    1.7050   -0.4270 hn        1 1Q4      0.336500
@<TRIPOS>BOND
     1    1    2 2   
     2    1    7 1   
     3    1   19 1   
     4    2    3 1   
     5    2   20 1   
     6    3    4 1   
     7    3   34 1   
     8    4    5 2   
     9    4    6 1   
    10    6    7 ar  
    11    6   11 ar  
    12    7    8 ar  
    13    8    9 ar  
    14    8   12 1   
    15    9   10 ar  
    16   10   11 ar  
    17   10   21 1   
    18   12   13 1   
    19   12   22 1   
    20   13   14 1   
    21   13   18 1   
    22   13   23 1   
    23   14   15 1   
    24   14   24 1   
    25   14   25 1   
    26   15   16 1   
    27   15   26 1   
    28   15   27 1   
    29   16   17 1   
    30   16   28 1   
    31   16   29 1   
    32   17   18 1   
    33   17   30 1   
    34   17   31 1   
    35   18   32 1   
    36   18   33 1   
@<TRIPOS>SUBSTRUCTURE
     1 1Q4         1 TEMP              0 ****  ****    0 ROOT
