@<TRIPOS>MOLECULE
1Q4
   34    31     1     0     0
SMALL
bcc


@<TRIPOS>ATOM
      1 C1          2.6160    1.0380   -0.8820 c1        1 1Q4     -0.051000
      2 C2          3.9990    1.5560   -1.1510 c1        1 1Q4     -0.051000
      3 N3          4.8970    1.7760   -0.0630 n2        1 1Q4     -0.764800
      4 C5          4.4780    1.5120    1.2660 c1        1 1Q4      0.793900
      5 O6          5.1730    1.8010    2.1640 o         1 1Q4     -0.546500
      6 C7          3.0490    0.9890    1.5430 cg        1 1Q4      0.305800
      7 C8          2.1900    0.7590    0.5140 cg        1 1Q4     -0.119000
      8 C9          0.9260    0.2890    0.7770 c1        1 1Q4      0.211800
      9 N10         0.5390    0.0560    2.0710 n1        1 1Q4     -0.546800
     10 C11         1.3940    0.2870    3.0790 c1        1 1Q4      0.372300
     11 N12         2.6590    0.7570    2.8170 n1        1 1Q4     -0.468800
     12 N13         0.0960   -0.3990   -0.2550 n3        1 1Q4     -0.694800
     13 C14        -1.1250   -0.4500   -0.1280 c3        1 1Q4      0.209500
     14 C15        -1.9130    0.1940   -1.4370 c3        1 1Q4     -0.092900
     15 C16        -3.3960    0.1190   -1.3190 c3        1 1Q4     -0.073400
     16 C17        -3.7910   -0.8510   -0.3570 c3        1 1Q4     -0.080400
     17 C18        -3.2060   -2.0450   -0.1690 c3        1 1Q4     -0.073400
     18 C19        -1.6860   -1.9550   -0.2980 c3        1 1Q4     -0.092900
     19 H1          1.9990    0.8870   -1.6210 ha        1 1Q4      0.092000
     20 H3          4.3100    1.7530   -2.1500 ha        1 1Q4      0.092000
     21 H4          1.1050    0.1180    4.0460 ha        1 1Q4      0.137500
     22 H5          0.4940   -0.7470   -1.0070 hn        1 1Q4      0.412800
     23 H6         -1.4570    0.0000    0.7980 h1        1 1Q4      0.087700
     24 H7         -1.6380    1.1890   -1.5360 hc        1 1Q4      0.047700
     25 H8         -1.6240   -0.3220   -2.2860 hc        1 1Q4      0.047700
     26 H9         -3.7540    1.0300   -1.0340 hc        1 1Q4      0.041950
     27 H10        -3.7980   -0.1260   -2.2400 hc        1 1Q4      0.041950
     28 H11        -4.8180   -1.0600   -0.5500 hc        1 1Q4      0.044200
     29 H12        -3.7550   -0.4090    0.4830 hc        1 1Q4      0.044200
     30 H13        -3.5430   -2.6660   -0.8200 hc        1 1Q4      0.041950
     31 H14        -3.4320   -2.3710    0.7370 hc        1 1Q4      0.041950
     32 H15        -1.4330   -2.2770   -1.1540 hc        1 1Q4      0.047700
     33 H16        -1.2830   -2.5180    0.3760 hc        1 1Q4      0.047700
     34 H2          5.7270    2.0870   -0.2170 hn        1 1Q4      0.495400
@<TRIPOS>BOND
     1    1    2 3   
     2    1   19 1   
     3    2   20 1   
     4    3    4 2   
     5    3   34 1   
     6    4    5 2   
     7    6    7 1   
     8    6   11 3   
     9    7    8 3   
    10    8   12 1   
    11    9   10 3   
    12   10   21 1   
    13   12   13 1   
    14   12   22 1   
    15   13   14 1   
    16   13   18 1   
    17   13   23 1   
    18   14   15 1   
    19   14   24 1   
    20   14   25 1   
    21   15   16 1   
    22   15   26 1   
    23   15   27 1   
    24   16   17 1   
    25   16   28 1   
    26   16   29 1   
    27   17   18 1   
    28   17   30 1   
    29   17   31 1   
    30   18   32 1   
    31   18   33 1   
@<TRIPOS>SUBSTRUCTURE
     1 1Q4         1 TEMP              0 ****  ****    0 ROOT
