@<TRIPOS>MOLECULE
1Q4
   35    37     1     0     0
SMALL
bcc


@<TRIPOS>ATOM
      1 C1         -0.6240   -0.4980    0.1720 cc        1 1Q4     -0.306200
      2 C2          0.5430   -1.2260    0.1770 cd        1 1Q4      0.105600
      3 N3          1.3440   -1.3310    1.2750 n         1 1Q4     -0.442100
      4 C5          1.0360   -0.7090    2.5040 c         1 1Q4      0.591000
      5 O6          1.8020   -0.8610    3.4590 o         1 1Q4     -0.504500
      6 C7         -0.2280    0.1020    2.5390 ca        1 1Q4      0.384800
      7 C8         -1.0310    0.1970    1.3460 ca        1 1Q4     -0.146400
      8 C9         -2.1920    1.0130    1.4720 ca        1 1Q4      0.453200
      9 N10        -2.5390    1.6360    2.6310 nb        1 1Q4     -0.651000
     10 C11        -1.7060    1.4510    3.6820 ca        1 1Q4      0.639900
     11 N12        -0.5600    0.7160    3.6910 nb        1 1Q4     -0.565000
     12 N13        -3.0810    1.2400    0.3140 n4        1 1Q4     -0.746700
     13 C14        -4.3170    0.3610    0.3380 c3        1 1Q4      0.128500
     14 C15        -5.4230    0.9760   -0.5290 c3        1 1Q4     -0.100900
     15 C16        -6.6680    0.1150   -0.4310 c3        1 1Q4     -0.077900
     16 C17        -6.3910   -1.3160   -0.8420 c3        1 1Q4     -0.091400
     17 C18        -5.2550   -1.9110   -0.0380 c3        1 1Q4     -0.077900
     18 C19        -4.0030   -1.0600   -0.1370 c3        1 1Q4     -0.100900
     19 H1         -1.2280   -0.4870   -0.7440 ha        1 1Q4      0.148000
     20 H3          0.8830   -1.7690   -0.7300 h4        1 1Q4      0.183000
     21 H4         -1.9860    1.9570    4.6350 h5        1 1Q4      0.102100
     22 H5         -2.5490    1.0620   -0.5450 hn        1 1Q4      0.461800
     23 H6         -4.6690    0.3290    1.4140 hx        1 1Q4      0.123700
     24 H7         -5.6650    2.0140   -0.1790 hc        1 1Q4      0.062950
     25 H8         -5.0900    1.0320   -1.5990 hc        1 1Q4      0.062950
     26 H9         -7.0610    0.1390    0.6200 hc        1 1Q4      0.068950
     27 H10        -7.4600    0.5530   -1.0960 hc        1 1Q4      0.068950
     28 H11        -6.1410   -1.3530   -1.9350 hc        1 1Q4      0.066200
     29 H12        -7.3170   -1.9320   -0.6900 hc        1 1Q4      0.066200
     30 H13        -5.0220   -2.9410   -0.4170 hc        1 1Q4      0.068950
     31 H14        -5.5600   -2.0090    1.0370 hc        1 1Q4      0.068950
     32 H15        -3.6480   -1.0410   -1.2020 hc        1 1Q4      0.062950
     33 H16        -3.1890   -1.5100    0.4930 hc        1 1Q4      0.062950
     34 H2          2.1890   -1.8680    1.2330 hn        1 1Q4      0.366500
     35 H132       -3.3880    2.2240    0.3120 hn        1 1Q4      0.461800
@<TRIPOS>BOND
     1    1    2 2   
     2    1    7 1   
     3    1   19 1   
     4    2    3 1   
     5    2   20 1   
     6    3    4 1   
     7    3   34 1   
     8    4    5 2   
     9    4    6 1   
    10    6    7 ar  
    11    6   11 ar  
    12    7    8 ar  
    13    8    9 ar  
    14    8   12 1   
    15    9   10 ar  
    16   10   11 ar  
    17   10   21 1   
    18   12   13 1   
    19   12   22 1   
    20   12   35 1   
    21   13   14 1   
    22   13   18 1   
    23   13   23 1   
    24   14   15 1   
    25   14   24 1   
    26   14   25 1   
    27   15   16 1   
    28   15   26 1   
    29   15   27 1   
    30   16   17 1   
    31   16   28 1   
    32   16   29 1   
    33   17   18 1   
    34   17   30 1   
    35   17   31 1   
    36   18   32 1   
    37   18   33 1   
@<TRIPOS>SUBSTRUCTURE
     1 1Q4         1 TEMP              0 ****  ****    0 ROOT
