@<TRIPOS>MOLECULE
1Q5
   55    54     1     0     0
SMALL
bcc


@<TRIPOS>ATOM
      1 C18        -0.2000   -0.0090    0.1840 c3        1 1Q5     -0.205000
      2 C20         3.7130    0.1280    3.6960 c3        1 1Q5     -0.100000
      3 C1          3.2260   -0.0400   -3.4440 ca        1 1Q5      0.007000
      4 C17         5.4930   -0.9940   -0.0540 c3        1 1Q5     -0.163000
      5 C16         4.0540   -0.6760    0.0260 c2        1 1Q5     -0.325000
      6 C15         3.4030   -0.7920    1.3590 c3        1 1Q5      0.098000
      7 C14         1.9040   -0.8310    1.2870 c2        1 1Q5     -0.522000
      8 C13         1.2670   -0.2800    0.0630 c2        1 1Q5      0.115000
      9 C11         3.3030   -0.3260   -1.0730 c2        1 1Q5      0.204000
     10 C6          2.7640   -1.1640   -4.1480 ca        1 1Q5     -0.042000
     11 C8          2.9430   -2.5380   -3.6300 c3        1 1Q5     -0.177500
     12 C5          2.1460   -0.9550   -5.3850 ca        1 1Q5     -0.131000
     13 C4          1.9890    0.3340   -5.9040 ca        1 1Q5     -0.034000
     14 C3          2.4580    1.4350   -5.1790 ca        1 1Q5     -0.131000
     15 C2          3.0790    1.2660   -3.9380 ca        1 1Q5     -0.042000
     16 C24         4.6650   -1.9280    4.7090 c2        1 1Q5     -0.115000
     17 C23         4.8320   -0.6940    4.2360 c2        1 1Q5     -0.258000
     18 C21         3.2170    3.6620    4.0610 c3        1 1Q5     -0.271000
     19 C22         1.1620   -1.4150    2.2280 c1        1 1Q5      0.374000
     20 N12         1.9210   -0.0460   -1.0350 n2        1 1Q5     -0.147000
     21 O10         3.9760   -0.2330   -2.2690 os        1 1Q5     -0.120000
     22 H1         -0.6850    0.1260   -0.8160 hc        1 1Q5      0.122667
     23 H2         -0.3540    0.9280    0.7770 hc        1 1Q5      0.122667
     24 H3         -0.7000   -0.8630    0.7100 hc        1 1Q5      0.122667
     25 H4          2.7150   -0.3710    3.8670 hx        1 1Q5      0.142500
     26 H5          5.7660   -1.3050   -1.0960 hc        1 1Q5      0.095333
     27 H6          6.1160   -0.1000    0.2040 hc        1 1Q5      0.095333
     28 H7          5.7580   -1.8290    0.6430 hc        1 1Q5      0.095333
     29 H8          3.7980   -1.7150    1.8930 hx        1 1Q5      0.157000
     30 H9          1.4790   -0.3450   -7.8820 hc        1 1Q5      0.095000
     31 H10         1.7070    1.4480   -7.7250 hc        1 1Q5      0.095000
     32 H11         0.2170    0.6610   -7.0560 hc        1 1Q5      0.095000
     33 H12         3.0030   -2.5410   -2.5140 hc        1 1Q5      0.088667
     34 H13         3.8930   -2.9730   -4.0320 hc        1 1Q5      0.088667
     35 H14         2.0950   -3.1960   -3.9440 hc        1 1Q5      0.088667
     36 H15         2.9890    3.3520   -3.4250 hc        1 1Q5      0.088667
     37 H16         4.6560    2.6360   -3.4830 hc        1 1Q5      0.088667
     38 H17         3.5570    2.2560   -2.0920 hc        1 1Q5      0.088667
     39 H18         1.7820   -1.8230   -5.9580 ha        1 1Q5      0.147000
     40 H19         2.3390    2.4500   -5.5900 ha        1 1Q5      0.147000
     41 H20         5.8140   -0.1910    4.2730 ha        1 1Q5      0.154000
     42 H21         5.1390   -3.2920    2.6660 ha        1 1Q5      0.001500
     43 H22         5.2870   -3.6750    2.1260 ha        1 1Q5      0.001500
     44 H23         3.6990   -2.4530    4.7060 ha        1 1Q5      0.142000
     45 H24         5.4990   -2.4950    5.1530 ha        1 1Q5      0.142000
     46 H25         3.6990    1.1350    4.2180 hx        1 1Q5      0.142500
     47 H26         2.4390    3.1940    4.7030 hc        1 1Q5      0.068500
     48 H27         3.1990    3.1980    3.0500 hc        1 1Q5      0.068500
     49 H28         4.2190    3.5230    4.5220 hc        1 1Q5      0.068500
     50 H29         3.0060    4.7500    3.9660 hc        1 1Q5      0.068500
     51 H30         3.3000    1.2170    1.9820 hn        1 1Q5      0.246500
     52 C7          1.3190    0.5340   -7.2100 c3        1 1Q5     -0.190000
     53 C9          3.5910    2.4390   -3.1950 c3        1 1Q5     -0.177500
     54 H192        4.8350    0.5770    2.0070 hn        1 1Q5      0.246500
     55 N19         3.8490    0.3890    2.2310 n4        1 1Q5     -0.061000
@<TRIPOS>BOND
     1    1    8 1   
     2    1   22 1   
     3    1   23 1   
     4    1   24 1   
     5    2   17 1   
     6    2   25 1   
     7    2   46 1   
     8    2   55 1   
     9    3   10 1   
    10    3   15 1   
    11    3   21 1   
    12    4    5 1   
    13    4   26 1   
    14    4   27 1   
    15    4   28 1   
    16    5    6 1   
    17    5    9 1   
    18    6    7 1   
    19    6   29 1   
    20    6   55 1   
    21    7    8 1   
    22    7   19 1   
    23    8   20 1   
    24    9   20 1   
    25    9   21 1   
    26   10   11 1   
    27   10   12 1   
    28   11   33 1   
    29   11   34 1   
    30   11   35 1   
    31   12   13 1   
    32   12   39 1   
    33   13   14 1   
    34   13   52 1   
    35   14   15 1   
    36   14   40 1   
    37   15   53 1   
    38   16   17 1   
    39   16   44 1   
    40   16   45 1   
    41   17   41 1   
    42   18   47 1   
    43   18   48 1   
    44   18   49 1   
    45   18   50 1   
    46   30   52 1   
    47   31   52 1   
    48   32   52 1   
    49   36   53 1   
    50   37   53 1   
    51   38   53 1   
    52   42   43 1   
    53   51   55 1   
    54   54   55 1   
@<TRIPOS>SUBSTRUCTURE
     1 1Q5         1 TEMP              0 ****  ****    0 ROOT
