@<TRIPOS>MOLECULE
1Q5
   54    50     1     0     0
SMALL
bcc


@<TRIPOS>ATOM
      1 C18        -3.9470    0.6830    0.4000 c3        1 1Q5     -0.173000
      2 C20         0.1180   -0.1090    3.8200 c3        1 1Q5      0.007000
      3 C1          0.0580    0.5330   -3.1730 c1        1 1Q5      0.060000
      4 C17         1.8140    1.0240    0.2410 c3        1 1Q5     -0.173000
      5 C16         0.3200    0.8040    0.2830 c1        1 1Q5     -0.197000
      6 C15        -0.3290    0.7400    1.4960 c1        1 1Q5      0.126000
      7 C14        -1.6960    0.6870    1.5370 c1        1 1Q5     -0.261000
      8 C13        -2.4300    0.6970    0.3520 c2        1 1Q5      0.030000
      9 C11        -0.4140    0.8140   -0.8960 c1        1 1Q5      0.139000
     10 C6          1.1320    1.0420   -3.8940 c1        1 1Q5     -0.075000
     11 C7          2.1340   -1.9690   -5.9930 c3        1 1Q5     -0.176000
     12 C8          1.5910    2.4670   -3.6640 c2        1 1Q5     -0.174000
     13 C9         -1.7840   -1.3190   -3.4290 c3        1 1Q5     -0.183000
     14 C5          1.7830    0.2440   -4.8280 c2        1 1Q5     -0.123000
     15 C4          1.3600   -1.0650   -5.0410 c2        1 1Q5     -0.080000
     16 C3          0.2850   -1.5740   -4.3180 c2        1 1Q5     -0.121000
     17 C2         -0.3650   -0.7770   -3.3860 c2        1 1Q5     -0.086000
     18 C24         0.5910   -2.3820    4.7110 c3        1 1Q5     -0.209500
     19 C23         1.1080   -1.2650    3.8170 c3        1 1Q5     -0.177500
     20 C21         0.2110    0.6400    5.1460 c3        1 1Q5     -0.177500
     21 C22        -1.1810    0.8130    5.7260 c3        1 1Q5     -0.209500
     22 N19         0.4330    0.7980    2.7320 n3        1 1Q5     -0.291000
     23 N12        -1.7860    0.7600   -0.8510 n2        1 1Q5     -0.174000
     24 O10        -0.5180    1.4090   -2.1980 os        1 1Q5     -0.153000
     25 H1         -4.3040    0.8740   -0.4940 hc        1 1Q5      0.093000
     26 H2         -4.2600    1.3670    1.0300 hc        1 1Q5      0.093000
     27 H3         -4.2560   -0.1980    0.6940 hc        1 1Q5      0.093000
     28 H4         -0.7860   -0.4550    3.7040 h1        1 1Q5      0.105000
     29 H5          2.0160    1.9420    0.5090 hc        1 1Q5      0.088000
     30 H6          2.2520    0.4020    0.8540 hc        1 1Q5      0.088000
     31 H7          2.1410    0.8710   -0.6680 hc        1 1Q5      0.088000
     32 H8         -2.1600    0.6410    2.4040 ha        1 1Q5      0.145000
     33 H9          1.8190   -1.8230   -6.9120 hc        1 1Q5      0.082333
     34 H10         3.0930   -1.7590   -5.9380 hc        1 1Q5      0.082333
     35 H11         1.9890   -2.9070   -5.7440 hc        1 1Q5      0.082333
     36 H12         1.6800    2.9260   -4.5290 ha        1 1Q5      0.088000
     37 H13         0.9330    2.9390   -3.1110 ha        1 1Q5      0.088000
     38 H14         2.4600    2.4610   -3.2070 ha        1 1Q5      0.088000
     39 H15        -2.0150   -1.5590   -4.3530 hc        1 1Q5      0.091000
     40 H16        -1.8470   -2.1150   -2.8580 hc        1 1Q5      0.091000
     41 H17        -2.4080   -0.6290   -3.1020 hc        1 1Q5      0.091000
     42 H18         2.5370    0.6020   -5.3340 ha        1 1Q5      0.134000
     43 H19        -0.0120   -2.4900   -4.4670 ha        1 1Q5      0.133000
     44 H20         1.0400   -3.2240    4.4740 hc        1 1Q5      0.076667
     45 H21        -0.3730   -2.4800    4.5850 hc        1 1Q5      0.076667
     46 H22         0.7780   -2.1640    5.6490 hc        1 1Q5      0.076667
     47 H23         1.2120   -1.6010    2.9040 hc        1 1Q5      0.086750
     48 H24         1.9700   -0.9550    4.1490 hc        1 1Q5      0.086750
     49 H25         0.6140    1.5200    4.9960 hc        1 1Q5      0.086750
     50 H26         0.7640    0.1290    5.7720 hc        1 1Q5      0.086750
     51 H27        -1.7810    1.1640    5.0370 hc        1 1Q5      0.076667
     52 H28        -1.5140   -0.0540    6.0400 hc        1 1Q5      0.076667
     53 H29        -1.1450    1.4430    6.4800 hc        1 1Q5      0.076667
     54 H30         1.0730    1.4360    2.8420 hn        1 1Q5      0.205000
@<TRIPOS>BOND
     1    1    8 1   
     2    1   25 1   
     3    1   26 1   
     4    1   27 1   
     5    2   19 1   
     6    2   20 1   
     7    2   22 1   
     8    2   28 1   
     9    3   10 1   
    10    3   17 1   
    11    4    5 1   
    12    4   29 1   
    13    4   30 1   
    14    4   31 1   
    15    5    6 1   
    16    6   22 1   
    17    7    8 1   
    18    7   32 1   
    19    8   23 1   
    20    9   23 1   
    21   10   14 1   
    22   11   15 1   
    23   11   33 1   
    24   11   34 1   
    25   11   35 1   
    26   12   36 1   
    27   12   37 1   
    28   12   38 1   
    29   13   17 1   
    30   13   39 1   
    31   13   40 1   
    32   13   41 1   
    33   14   15 1   
    34   14   42 1   
    35   15   16 1   
    36   16   17 1   
    37   16   43 1   
    38   18   19 1   
    39   18   44 1   
    40   18   45 1   
    41   18   46 1   
    42   19   47 1   
    43   19   48 1   
    44   20   21 1   
    45   20   49 1   
    46   20   50 1   
    47   21   51 1   
    48   21   52 1   
    49   21   53 1   
    50   22   54 1   
@<TRIPOS>SUBSTRUCTURE
     1 1Q5         1 TEMP              0 ****  ****    0 ROOT
