@<TRIPOS>MOLECULE
1Q5
   54    55     1     0     0
SMALL
bcc


@<TRIPOS>ATOM
      1 C18        -0.3820    2.3840   -2.3370 c3        1 1Q5     -0.148400
      2 C20        -4.6140    0.1300   -0.0480 c3        1 1Q5      0.211500
      3 C1          2.6510   -0.4950    0.3900 ca        1 1Q5      0.098100
      4 C17        -1.1170   -1.7980    1.5500 c3        1 1Q5     -0.034800
      5 C16        -0.9890   -0.7210    0.5460 ca        1 1Q5     -0.288600
      6 C15        -2.1270   -0.1120   -0.0570 ca        1 1Q5      0.231600
      7 C14        -1.8990    0.9250   -0.9970 ca        1 1Q5     -0.345300
      8 C13        -0.5880    1.2980   -1.3270 ca        1 1Q5      0.469600
      9 C11         0.2850   -0.2560    0.1320 ca        1 1Q5      0.657600
     10 C6          3.3130   -1.1830   -0.6410 ca        1 1Q5     -0.057800
     11 C8          2.6220   -2.2270   -1.4300 c3        1 1Q5     -0.050300
     12 C5          4.6520   -0.8700   -0.8950 ca        1 1Q5     -0.133500
     13 C4          5.3160    0.1080   -0.1480 ca        1 1Q5     -0.070300
     14 C3          4.6340    0.7820    0.8700 ca        1 1Q5     -0.133500
     15 C2          3.2950    0.4950    1.1510 ca        1 1Q5     -0.057800
     16 C24        -5.6410   -1.7920   -1.3470 c3        1 1Q5     -0.094600
     17 C23        -5.8080   -0.8350   -0.1970 c3        1 1Q5     -0.096400
     18 C21        -4.9850    1.1750    1.0230 c3        1 1Q5     -0.096400
     19 C22        -4.0880    2.3830    0.9900 c3        1 1Q5     -0.094600
     20 N12         0.5090    0.7220   -0.7770 nb        1 1Q5     -0.745000
     21 O10         1.3590   -0.8940    0.7500 os        1 1Q5     -0.377400
     22 H1          0.1360    1.9760   -3.2400 hc        1 1Q5      0.053033
     23 H2         -1.3640    2.8150   -2.6500 hc        1 1Q5      0.053033
     24 H3          0.2500    3.2030   -1.9110 hc        1 1Q5      0.053033
     25 H4         -4.4900    0.6650   -1.0350 h1        1 1Q5      0.066700
     26 H5         -1.6280   -2.6910    1.1080 hc        1 1Q5      0.044033
     27 H6         -0.1150   -2.1270    1.9230 hc        1 1Q5      0.044033
     28 H7         -1.7120   -1.4490    2.4320 hc        1 1Q5      0.044033
     29 H8         -2.7360    1.4480   -1.4760 ha        1 1Q5      0.142000
     30 H9          6.7750    1.2540   -1.2120 hc        1 1Q5      0.043367
     31 H10         7.2580    0.7950    0.4730 hc        1 1Q5      0.043367
     32 H11         7.2730   -0.4500   -0.8460 hc        1 1Q5      0.043367
     33 H12         1.5570   -1.9380   -1.6120 hc        1 1Q5      0.048033
     34 H13         3.1240   -2.3860   -2.4160 hc        1 1Q5      0.048033
     35 H14         2.6280   -3.1950   -0.8680 hc        1 1Q5      0.048033
     36 H15         2.5940    0.5850    3.1680 hc        1 1Q5      0.048033
     37 H16         3.0710    2.1870    2.4600 hc        1 1Q5      0.048033
     38 H17         1.5190    1.3890    1.9520 hc        1 1Q5      0.048033
     39 H18         5.1870   -1.4000   -1.6970 ha        1 1Q5      0.132000
     40 H19         5.1550    1.5530    1.4570 ha        1 1Q5      0.132000
     41 H20        -6.5760   -2.3880   -1.4870 hc        1 1Q5      0.038367
     42 H21        -5.4310   -1.2380   -2.2940 hc        1 1Q5      0.038367
     43 H22        -4.7980   -2.5010   -1.1640 hc        1 1Q5      0.038367
     44 H23        -5.9600   -1.4040    0.7570 hc        1 1Q5      0.044200
     45 H24        -6.7260   -0.2110   -0.3640 hc        1 1Q5      0.044200
     46 H25        -6.0440    1.5000    0.8430 hc        1 1Q5      0.044200
     47 H26        -4.9540    0.7030    2.0400 hc        1 1Q5      0.044200
     48 H27        -4.3820    3.1030    1.7910 hc        1 1Q5      0.038367
     49 H28        -3.0200    2.0940    1.1470 hc        1 1Q5      0.038367
     50 H29        -4.1640    2.9030    0.0040 hc        1 1Q5      0.038367
     51 H30        -3.4530   -1.1800    1.0390 hn        1 1Q5      0.413800
     52 N19        -3.3950   -0.6010    0.2280 nh        1 1Q5     -0.743600
     53 C7          6.7290    0.4400   -0.4450 c3        1 1Q5     -0.052800
     54 C9          2.5850    1.2060    2.2370 c3        1 1Q5     -0.050300
@<TRIPOS>BOND
     1    1    8 1   
     2    1   22 1   
     3    1   23 1   
     4    1   24 1   
     5    2   17 1   
     6    2   18 1   
     7    2   25 1   
     8    2   52 1   
     9    3   10 ar  
    10    3   15 ar  
    11    3   21 1   
    12    4    5 1   
    13    4   26 1   
    14    4   27 1   
    15    4   28 1   
    16    5    6 ar  
    17    5    9 ar  
    18    6    7 ar  
    19    6   52 1   
    20    7    8 ar  
    21    7   29 1   
    22    8   20 ar  
    23    9   20 ar  
    24    9   21 1   
    25   10   11 1   
    26   10   12 ar  
    27   11   33 1   
    28   11   34 1   
    29   11   35 1   
    30   12   13 ar  
    31   12   39 1   
    32   13   14 ar  
    33   13   53 1   
    34   14   15 ar  
    35   14   40 1   
    36   15   54 1   
    37   16   17 1   
    38   16   41 1   
    39   16   42 1   
    40   16   43 1   
    41   17   44 1   
    42   17   45 1   
    43   18   19 1   
    44   18   46 1   
    45   18   47 1   
    46   19   48 1   
    47   19   49 1   
    48   19   50 1   
    49   30   53 1   
    50   31   53 1   
    51   32   53 1   
    52   36   54 1   
    53   37   54 1   
    54   38   54 1   
    55   51   52 1   
@<TRIPOS>SUBSTRUCTURE
     1 1Q5         1 TEMP              0 ****  ****    0 ROOT
