@<TRIPOS>MOLECULE
1Q5
   54    52     1     0     0
SMALL
bcc


@<TRIPOS>ATOM
      1 C18        -0.4330    0.9690    1.1040 c3        1 1Q5     -0.160000
      2 C20         3.9040   -0.3500    3.7120 c3        1 1Q5     -0.058000
      3 C1          2.0850    0.0830   -3.2660 c2        1 1Q5      0.096000
      4 C17         4.8930   -0.6240   -0.4830 c3        1 1Q5     -0.172000
      5 C16         3.5350   -0.2360   -0.0660 c2        1 1Q5     -0.103000
      6 C15         3.1320   -0.4060    1.3750 c3        1 1Q5     -0.066000
      7 C14         1.8260    0.1660    1.7480 c1        1 1Q5     -0.089000
      8 C13         0.9400    0.5650    0.6650 c2        1 1Q5     -0.089000
      9 C11         2.5910    0.2470   -0.9390 c2        1 1Q5      0.031000
     10 C6          1.3080   -0.9700   -3.1800 c1        1 1Q5     -0.226000
     11 C8          0.4980   -1.9790   -3.1190 c2        1 1Q5     -0.118000
     12 C5          4.5000   -0.9520   -4.8500 c2        1 1Q5     -0.152000
     13 C4          3.7530   -0.3670   -5.7980 c2        1 1Q5     -0.138000
     14 C3          2.8680    0.7550   -5.5370 c2        1 1Q5      0.084000
     15 C2          2.1420    1.0070   -4.4130 c2        1 1Q5     -0.173000
     16 C24         4.7700   -2.7560    3.7780 c1        1 1Q5     -0.055000
     17 C23         4.8210   -1.4220    4.3350 c3        1 1Q5     -0.244000
     18 C21         4.0220    0.9320    4.5520 c3        1 1Q5     -0.171000
     19 C22         3.1540    2.0470    4.0300 c3        1 1Q5     -0.226000
     20 N12         1.2890    0.6350   -0.6020 n2        1 1Q5     -0.077000
     21 O10         2.9910    0.4560   -2.2610 os        1 1Q5     -0.155000
     22 H1         -0.9400    0.0800    1.5550 hc        1 1Q5      0.098333
     23 H2         -1.0590    1.3580    0.2650 hc        1 1Q5      0.098333
     24 H3         -0.3390    1.7600    1.8890 hc        1 1Q5      0.098333
     25 H4          2.8350   -0.7130    3.8080 h1        1 1Q5      0.113000
     26 H5          5.6150    0.1920   -0.2210 hc        1 1Q5      0.097667
     27 H6          4.9410   -0.7940   -1.5880 hc        1 1Q5      0.097667
     28 H7          5.2180   -1.5560    0.0450 hc        1 1Q5      0.097667
     29 H8          2.8690   -1.5320    1.4720 h1        1 1Q5      0.177000
     30 H9          4.1950    0.0420   -7.8610 hc        1 1Q5      0.087000
     31 H10         4.4900   -1.6740   -7.3510 hc        1 1Q5      0.087000
     32 H11         2.7950   -1.0750   -7.5850 hc        1 1Q5      0.087000
     33 H12         0.7980   -2.9930   -3.4260 ha        1 1Q5      0.127500
     34 H13         5.1890   -1.7750   -5.0780 ha        1 1Q5      0.128000
     35 H14        -0.5380   -1.8810   -2.7590 ha        1 1Q5      0.127500
     36 H15         2.9810    3.6230   -3.4180 ha        1 1Q5      0.009750
     37 H16         2.8820    3.8980   -4.0320 ha        1 1Q5      0.009750
     38 H17         0.8490    2.4440   -3.4570 ha        1 1Q5      0.056000
     39 H18         4.4680   -0.6340   -3.7970 ha        1 1Q5      0.128000
     40 H19         2.7840    1.4840   -6.3710 ha        1 1Q5      0.155000
     41 H20         6.4850   -2.8580    2.3380 ha        1 1Q5      0.009750
     42 H21         4.0010   -2.9420    3.0100 ha        1 1Q5      0.028000
     43 H22         6.1090   -2.4870    1.9080 ha        1 1Q5      0.009750
     44 H23         4.5530   -1.5300    5.4270 hc        1 1Q5      0.142500
     45 H24         5.8940   -1.0780    4.3050 hc        1 1Q5      0.142500
     46 H25         5.0920    1.2630    4.5910 hc        1 1Q5      0.082000
     47 H26         3.7140    0.6770    5.6000 hc        1 1Q5      0.082000
     48 H27         2.1650    1.6490    3.6870 hc        1 1Q5      0.081667
     49 H28         3.6400    2.5620    3.1660 hc        1 1Q5      0.081667
     50 H29         2.9790    2.8070    4.8290 hc        1 1Q5      0.081667
     51 H30         4.6150    0.7410    2.1380 hn        1 1Q5      0.166000
     52 N19         4.2390   -0.1760    2.2990 n7        1 1Q5     -0.265000
     53 C7          3.8140   -0.7940   -7.2220 c3        1 1Q5     -0.184000
     54 C9          1.3820    2.2130   -4.3910 c1        1 1Q5     -0.079000
@<TRIPOS>BOND
     1    1    8 1   
     2    1   22 1   
     3    1   23 1   
     4    1   24 1   
     5    2   17 1   
     6    2   18 1   
     7    2   25 1   
     8    2   52 1   
     9    3   10 1   
    10    3   15 1   
    11    3   21 1   
    12    4    5 1   
    13    4   26 1   
    14    4   27 1   
    15    4   28 1   
    16    5    6 1   
    17    5    9 1   
    18    6    7 1   
    19    6   29 1   
    20    6   52 1   
    21    7    8 1   
    22    8   20 1   
    23    9   20 1   
    24    9   21 1   
    25   10   11 1   
    26   11   33 1   
    27   11   35 1   
    28   12   13 1   
    29   12   34 1   
    30   12   39 1   
    31   13   14 1   
    32   13   53 1   
    33   14   15 1   
    34   14   40 1   
    35   15   54 1   
    36   16   17 1   
    37   16   42 1   
    38   17   44 1   
    39   17   45 1   
    40   18   19 1   
    41   18   46 1   
    42   18   47 1   
    43   19   48 1   
    44   19   49 1   
    45   19   50 1   
    46   30   53 1   
    47   31   53 1   
    48   32   53 1   
    49   36   37 1   
    50   38   54 1   
    51   41   43 1   
    52   51   52 1   
@<TRIPOS>SUBSTRUCTURE
     1 1Q5         1 TEMP              0 ****  ****    0 ROOT
