@<TRIPOS>MOLECULE
1Q6
   50    51     1     0     0
SMALL
bcc


@<TRIPOS>ATOM
      1 N22         5.2670    2.7400   -1.8300 nh        1 1Q6     -0.927500
      2 C22         4.5860    1.7840   -1.0490 ca        1 1Q6      0.624200
      3 C23         4.2210    2.0990    0.2950 ca        1 1Q6     -0.279300
      4 C24         3.6330    1.1160    1.0870 ca        1 1Q6      0.014700
      5 C27         3.2270    1.4020    2.4810 c3        1 1Q6     -0.073800
      6 C25         3.4180   -0.1580    0.5360 ca        1 1Q6     -0.258300
      7 N21         4.3690    0.5440   -1.5840 nb        1 1Q6     -0.798000
      8 C26         3.8000   -0.3960   -0.7920 ca        1 1Q6      0.407600
      9 C28         3.5340   -1.7670   -1.3730 c3        1 1Q6      0.073100
     10 O29         4.7460   -2.3800   -1.8120 os        1 1Q6     -0.421600
     11 C11         4.8830   -2.5540   -3.2200 c3        1 1Q6      0.118100
     12 C12         5.4100   -1.2670   -3.8780 c3        1 1Q6      0.092800
     13 N13         6.5580   -0.6860   -3.1340 n4        1 1Q6     -0.814600
     14 C10         5.8280   -3.7550   -3.3990 c3        1 1Q6      0.113400
     15 O09         7.0690   -3.2940   -3.9300 os        1 1Q6     -0.454600
     16 C08         8.2100   -4.0020   -3.4570 c3        1 1Q6      0.079100
     17 C06         8.6260   -3.5930   -2.0620 ca        1 1Q6      0.396600
     18 C05         8.9490   -4.6060   -1.1480 ca        1 1Q6     -0.270300
     19 N01         8.7100   -2.2720   -1.7750 nb        1 1Q6     -0.792000
     20 C02         9.1280   -1.9190   -0.5200 ca        1 1Q6      0.635200
     21 N02         9.1380   -0.5570   -0.1700 nh        1 1Q6     -0.928500
     22 C03         9.4740   -2.8980    0.4630 ca        1 1Q6     -0.282300
     23 C04         9.3820   -4.2470    0.1400 ca        1 1Q6      0.015700
     24 C07         9.7430   -5.2950    1.1210 c3        1 1Q6     -0.072800
     25 H1          5.0660    2.7080   -2.8070 hn        1 1Q6      0.401800
     26 H2          5.1980    3.6630   -1.4570 hn        1 1Q6      0.401800
     27 H3          4.4050    3.1040    0.7020 ha        1 1Q6      0.157000
     28 H4          2.1140    1.5150    2.5360 hc        1 1Q6      0.064033
     29 H5          3.6950    2.3450    2.8570 hc        1 1Q6      0.064033
     30 H6          3.5260    0.5620    3.1570 hc        1 1Q6      0.064033
     31 H7          2.9590   -0.9520    1.1420 ha        1 1Q6      0.158000
     32 H8          2.7750   -1.6980   -2.1960 h1        1 1Q6      0.075700
     33 H9          3.1530   -2.4510   -0.5640 h1        1 1Q6      0.075700
     34 H10         3.8890   -2.7920   -3.6930 h1        1 1Q6      0.085700
     35 H11         4.5820   -0.5040   -3.9160 hx        1 1Q6      0.110200
     36 H12         5.7470   -1.5060   -4.9260 hx        1 1Q6      0.110200
     37 H13         6.4390   -0.8740   -2.1260 hn        1 1Q6      0.469467
     38 H14         7.4300   -1.1410   -3.4400 hn        1 1Q6      0.469467
     39 H16         5.9710   -4.2740   -2.4140 h1        1 1Q6      0.076700
     40 H17         5.3890   -4.4670   -4.1480 h1        1 1Q6      0.076700
     41 H18         9.0150   -3.7260   -4.1960 h1        1 1Q6      0.079700
     42 H19         8.0230   -5.1070   -3.4920 h1        1 1Q6      0.079700
     43 H20         8.8730   -5.6650   -1.4300 ha        1 1Q6      0.155000
     44 H21         9.3190    0.0810   -0.9130 hn        1 1Q6      0.405300
     45 H22         9.6710   -0.3650    0.6510 hn        1 1Q6      0.405300
     46 H23         9.8070   -2.5880    1.4640 ha        1 1Q6      0.157000
     47 H24         8.9840   -6.1160    1.1170 hc        1 1Q6      0.063033
     48 H25         9.8100   -4.8780    2.1560 hc        1 1Q6      0.063033
     49 H26        10.7370   -5.7360    0.8540 hc        1 1Q6      0.063033
     50 H133        6.6060    0.3230   -3.2780 hn        1 1Q6      0.469467
@<TRIPOS>BOND
     1    1    2 1   
     2    1   25 1   
     3    1   26 1   
     4    2    3 ar  
     5    2    7 ar  
     6    3    4 ar  
     7    3   27 1   
     8    4    5 1   
     9    4    6 ar  
    10    5   28 1   
    11    5   29 1   
    12    5   30 1   
    13    6    8 ar  
    14    6   31 1   
    15    7    8 ar  
    16    8    9 1   
    17    9   10 1   
    18    9   32 1   
    19    9   33 1   
    20   10   11 1   
    21   11   12 1   
    22   11   14 1   
    23   11   34 1   
    24   12   13 1   
    25   12   35 1   
    26   12   36 1   
    27   13   37 1   
    28   13   38 1   
    29   13   50 1   
    30   14   15 1   
    31   14   39 1   
    32   14   40 1   
    33   15   16 1   
    34   16   17 1   
    35   16   41 1   
    36   16   42 1   
    37   17   18 ar  
    38   17   19 ar  
    39   18   23 ar  
    40   18   43 1   
    41   19   20 ar  
    42   20   21 1   
    43   20   22 ar  
    44   21   44 1   
    45   21   45 1   
    46   22   23 ar  
    47   22   46 1   
    48   23   24 1   
    49   24   47 1   
    50   24   48 1   
    51   24   49 1   
@<TRIPOS>SUBSTRUCTURE
     1 1Q6         1 TEMP              0 ****  ****    0 ROOT
