@<TRIPOS>MOLECULE
1Q6
   50    51     1     0     0
SMALL
bcc


@<TRIPOS>ATOM
      1 N22         5.2360    2.7680   -1.5450 nv        1 1Q6     -0.927500
      2 C22         4.5360    1.7470   -0.8700 ca        1 1Q6      0.624200
      3 C23         4.1090    1.9520    0.4770 ca        1 1Q6     -0.279300
      4 C24         3.5030    0.9040    1.1640 ca        1 1Q6      0.014700
      5 C27         3.0340    1.0760    2.5580 c3        1 1Q6     -0.073800
      6 C25         3.3300   -0.3260    0.5080 ca        1 1Q6     -0.258300
      7 N21         4.3600    0.5490   -1.5080 nb        1 1Q6     -0.798000
      8 C26         3.7720   -0.4550   -0.8170 ca        1 1Q6      0.407600
      9 C28         3.5510   -1.7800   -1.5140 c3        1 1Q6      0.073100
     10 O29         4.7890   -2.3430   -1.9450 os        1 1Q6     -0.421600
     11 C11         4.9880   -2.4060   -3.3540 c3        1 1Q6      0.118100
     12 C12         5.5250   -1.0660   -3.8870 c3        1 1Q6      0.092800
     13 N13         6.6310   -0.5310   -3.0500 nz        1 1Q6     -0.814600
     14 C10         5.9580   -3.5780   -3.5840 c3        1 1Q6      0.113400
     15 O09         7.2150   -3.0640   -4.0210 os        1 1Q6     -0.454600
     16 C08         8.3440   -3.7940   -3.5540 c3        1 1Q6      0.079100
     17 C06         8.6930   -3.4890   -2.1140 ca        1 1Q6      0.396600
     18 C05         8.9890   -4.5670   -1.2670 ca        1 1Q6     -0.270300
     19 N01         8.7450   -2.1930   -1.7230 nb        1 1Q6     -0.792000
     20 C02         9.1030   -1.9340   -0.4280 ca        1 1Q6      0.635200
     21 N02         9.0790   -0.6030    0.0250 nv        1 1Q6     -0.928500
     22 C03         9.4200   -2.9820    0.4920 ca        1 1Q6     -0.282300
     23 C04         9.3600   -4.3030    0.0630 ca        1 1Q6      0.015700
     24 C07         9.6940   -5.4190    0.9770 c3        1 1Q6     -0.072800
     25 H1          5.1380    3.6590   -1.1040 hn        1 1Q6      0.401800
     26 H2          5.0770    2.8100   -2.5290 hn        1 1Q6      0.401800
     27 H3          4.2610    2.9240    0.9680 ha        1 1Q6      0.157000
     28 H4          1.9180    1.1720    2.5720 hc        1 1Q6      0.064033
     29 H5          3.4710    1.9920    3.0250 hc        1 1Q6      0.064033
     30 H6          3.3160    0.1900    3.1790 hc        1 1Q6      0.064033
     31 H7          2.8570   -1.1700    1.0300 ha        1 1Q6      0.158000
     32 H8          2.8260   -1.6550   -2.3610 h1        1 1Q6      0.075700
     33 H9          3.1450   -2.5290   -0.7770 h1        1 1Q6      0.075700
     34 H10         4.0200   -2.6170   -3.8880 h1        1 1Q6      0.085700
     35 H11         5.9110   -1.2190   -4.9350 hx        1 1Q6      0.110200
     36 H12         4.6890   -0.3110   -3.9030 hx        1 1Q6      0.110200
     37 H13         6.4720   -0.7980   -2.0660 hn        1 1Q6      0.469467
     38 H14         6.6710    0.4860   -3.1140 hn        1 1Q6      0.469467
     39 H16         5.5620   -4.2340   -4.4050 h1        1 1Q6      0.076700
     40 H17         6.0650   -4.1720   -2.6370 h1        1 1Q6      0.076700
     41 H18         8.1740   -4.8960   -3.6810 h1        1 1Q6      0.079700
     42 H19         9.1760   -3.4540   -4.2330 h1        1 1Q6      0.079700
     43 H20         8.9400   -5.6020   -1.6320 ha        1 1Q6      0.155000
     44 H21         9.2840    0.0920   -0.6580 hn        1 1Q6      0.405300
     45 H22         9.5720   -0.4680    0.8810 hn        1 1Q6      0.405300
     46 H23         9.7040   -2.7460    1.5280 ha        1 1Q6      0.157000
     47 H24         9.6960   -5.0850    2.0430 hc        1 1Q6      0.063033
     48 H25        10.7100   -5.8180    0.7300 hc        1 1Q6      0.063033
     49 H26         8.9550   -6.2520    0.8660 hc        1 1Q6      0.063033
     50 H133        7.5220   -0.9510   -3.3520 hn        1 1Q6      0.469467
@<TRIPOS>BOND
     1    1    2 1   
     2    1   25 1   
     3    1   26 1   
     4    2    3 ar  
     5    2    7 ar  
     6    3    4 ar  
     7    3   27 1   
     8    4    5 1   
     9    4    6 ar  
    10    5   28 1   
    11    5   29 1   
    12    5   30 1   
    13    6    8 ar  
    14    6   31 1   
    15    7    8 ar  
    16    8    9 1   
    17    9   10 1   
    18    9   32 1   
    19    9   33 1   
    20   10   11 1   
    21   11   12 1   
    22   11   14 1   
    23   11   34 1   
    24   12   13 1   
    25   12   35 1   
    26   12   36 1   
    27   13   37 1   
    28   13   38 1   
    29   13   50 1   
    30   14   15 1   
    31   14   39 1   
    32   14   40 1   
    33   15   16 1   
    34   16   17 1   
    35   16   41 1   
    36   16   42 1   
    37   17   18 ar  
    38   17   19 ar  
    39   18   23 ar  
    40   18   43 1   
    41   19   20 ar  
    42   20   21 1   
    43   20   22 ar  
    44   21   44 1   
    45   21   45 1   
    46   22   23 ar  
    47   22   46 1   
    48   23   24 1   
    49   24   47 1   
    50   24   48 1   
    51   24   49 1   
@<TRIPOS>SUBSTRUCTURE
     1 1Q6         1 TEMP              0 ****  ****    0 ROOT
