@<TRIPOS>MOLECULE
1Q6
   49    50     1     0     0
SMALL
bcc


@<TRIPOS>ATOM
      1 N22         6.7200   -1.1680    0.9100 nh        1 1Q6     -0.920500
      2 C22         5.3810   -1.0540    0.4940 ca        1 1Q6      0.625200
      3 C23         4.7570   -2.1710   -0.1420 ca        1 1Q6     -0.294300
      4 C24         3.4040   -2.0980   -0.4630 ca        1 1Q6     -0.013300
      5 C27         2.7220   -3.2300   -1.1310 c3        1 1Q6     -0.059800
      6 C25         2.6950   -0.9310   -0.1520 ca        1 1Q6     -0.263300
      7 N21         4.6950    0.0970    0.7740 nb        1 1Q6     -0.729000
      8 C26         3.3800    0.1320    0.4620 ca        1 1Q6      0.438600
      9 C28         2.6220    1.3870    0.8300 c3        1 1Q6      0.076100
     10 O29         1.5460    1.5270   -0.0990 os        1 1Q6     -0.420600
     11 C11         0.6890    2.6300    0.2030 c3        1 1Q6      0.138100
     12 C12         0.0620    3.0600   -1.1350 c3        1 1Q6      0.162800
     13 N13         1.0180    3.6660   -2.0320 n3        1 1Q6     -0.915800
     14 C10        -0.3950    2.2220    1.2040 c3        1 1Q6      0.105400
     15 O09        -1.3310    1.3860    0.5300 os        1 1Q6     -0.417600
     16 C08        -2.3200    0.8720    1.4230 c3        1 1Q6      0.077100
     17 C06        -3.3100    0.0670    0.6130 ca        1 1Q6      0.440600
     18 C05        -3.0650   -0.1960   -0.7460 ca        1 1Q6     -0.264300
     19 N01        -4.4010   -0.3820    1.2770 nb        1 1Q6     -0.734000
     20 C02        -5.3180   -1.1120    0.5700 ca        1 1Q6      0.627200
     21 N02        -6.5140   -1.4980    1.2020 nh        1 1Q6     -0.921500
     22 C03        -5.1310   -1.4290   -0.8100 ca        1 1Q6     -0.295300
     23 C04        -3.9950   -0.9580   -1.4640 ca        1 1Q6     -0.013300
     24 C07        -3.7760   -1.2460   -2.9000 c3        1 1Q6     -0.059800
     25 H1          7.2740   -1.7250    0.2980 hn        1 1Q6      0.398300
     26 H2          7.1600   -0.3140    1.1780 hn        1 1Q6      0.398300
     27 H3          5.3350   -3.0790   -0.3630 ha        1 1Q6      0.141000
     28 H4          1.6890   -3.3630   -0.7230 hc        1 1Q6      0.049367
     29 H5          2.6410   -3.0280   -2.2290 hc        1 1Q6      0.049367
     30 H6          3.2860   -4.1840   -0.9890 hc        1 1Q6      0.049367
     31 H7          1.6260   -0.8320   -0.3890 ha        1 1Q6      0.163000
     32 H8          2.2180    1.2770    1.8730 h1        1 1Q6      0.050200
     33 H9          3.2760    2.3000    0.7770 h1        1 1Q6      0.050200
     34 H10         1.2810    3.4730    0.6570 h1        1 1Q6      0.060700
     35 H11        -0.4480    2.1520   -1.5750 h1        1 1Q6      0.046700
     36 H12        -0.7350    3.8230   -0.9070 h1        1 1Q6      0.046700
     37 H13         1.8450    3.1030   -2.0940 hn        1 1Q6      0.352800
     38 H14         0.6180    3.7600   -2.9440 hn        1 1Q6      0.352800
     39 H16         0.0620    1.6650    2.0650 h1        1 1Q6      0.036200
     40 H17        -0.9220    3.1370    1.5860 h1        1 1Q6      0.036200
     41 H18        -1.8240    0.2130    2.1870 h1        1 1Q6      0.051200
     42 H19        -2.8360    1.7240    1.9430 h1        1 1Q6      0.051200
     43 H20        -2.1570    0.1930   -1.2290 ha        1 1Q6      0.163000
     44 H21        -6.5210   -1.4180    2.1960 hn        1 1Q6      0.398300
     45 H22        -6.8680   -2.3680    0.8710 hn        1 1Q6      0.398300
     46 H23        -5.8790   -2.0240   -1.3510 ha        1 1Q6      0.141000
     47 H24        -4.1190   -0.3760   -3.5160 hc        1 1Q6      0.049033
     48 H25        -2.6900   -1.4150   -3.1070 hc        1 1Q6      0.049033
     49 H26        -4.3450   -2.1510   -3.2230 hc        1 1Q6      0.049033
@<TRIPOS>BOND
     1    1    2 1   
     2    1   25 1   
     3    1   26 1   
     4    2    3 ar  
     5    2    7 ar  
     6    3    4 ar  
     7    3   27 1   
     8    4    5 1   
     9    4    6 ar  
    10    5   28 1   
    11    5   29 1   
    12    5   30 1   
    13    6    8 ar  
    14    6   31 1   
    15    7    8 ar  
    16    8    9 1   
    17    9   10 1   
    18    9   32 1   
    19    9   33 1   
    20   10   11 1   
    21   11   12 1   
    22   11   14 1   
    23   11   34 1   
    24   12   13 1   
    25   12   35 1   
    26   12   36 1   
    27   13   37 1   
    28   13   38 1   
    29   14   15 1   
    30   14   39 1   
    31   14   40 1   
    32   15   16 1   
    33   16   17 1   
    34   16   41 1   
    35   16   42 1   
    36   17   18 ar  
    37   17   19 ar  
    38   18   23 ar  
    39   18   43 1   
    40   19   20 ar  
    41   20   21 1   
    42   20   22 ar  
    43   21   44 1   
    44   21   45 1   
    45   22   23 ar  
    46   22   46 1   
    47   23   24 1   
    48   24   47 1   
    49   24   48 1   
    50   24   49 1   
@<TRIPOS>SUBSTRUCTURE
     1 1Q6         1 TEMP              0 ****  ****    0 ROOT
