@<TRIPOS>MOLECULE
1Q6
   49    41     1     0     0
SMALL
bcc


@<TRIPOS>ATOM
      1 N22        -1.1380    3.6600    5.9250 n3        1 1Q6     -0.319000
      2 C22        -1.8010    2.6990    5.0600 c1        1 1Q6      0.106000
      3 C23        -3.0790    2.2540    5.3680 c1        1 1Q6     -0.230000
      4 C24        -3.7090    1.3650    4.5360 c1        1 1Q6     -0.005000
      5 C27        -5.0260    0.7720    4.9320 c2        1 1Q6     -0.186000
      6 C25        -3.0670    0.9150    3.3900 c2        1 1Q6     -0.198000
      7 N21        -1.1730    2.2540    3.9330 n1        1 1Q6     -0.206000
      8 C26        -1.8040    1.3610    3.0940 c1        1 1Q6      0.017000
      9 C28        -1.1740    1.0140    1.7630 c2        1 1Q6      0.024000
     10 O29         0.1780    0.6640    1.9610 os        1 1Q6     -0.278000
     11 C11         0.9800    0.7030    0.7420 c3        1 1Q6     -0.016000
     12 C12         2.2480    1.3860    1.0130 c3        1 1Q6     -0.105000
     13 N13         2.1950    2.7200    0.4800 n3        1 1Q6     -0.324000
     14 C10         1.2550   -0.7070    0.2700 c3        1 1Q6     -0.032000
     15 O09         1.4380   -0.7080   -1.1390 os        1 1Q6     -0.291000
     16 C08         1.9020   -1.9640   -1.6630 c3        1 1Q6      0.024000
     17 C06         1.5910   -2.0430   -3.1780 c1        1 1Q6     -0.019000
     18 C05         2.5230   -2.6520   -4.0550 c1        1 1Q6     -0.215500
     19 N01         0.4060   -1.5400   -3.6710 n1        1 1Q6     -0.198000
     20 C02         0.1310   -1.6300   -5.0030 c1        1 1Q6      0.052500
     21 N02        -1.1520   -1.2140   -5.5020 n2        1 1Q6     -0.320000
     22 C03         1.0550   -2.2330   -5.8700 c1        1 1Q6     -0.215500
     23 C04         2.2500   -2.7400   -5.3700 c1        1 1Q6      0.052500
     24 C07         3.2500   -3.4200   -6.3240 c2        1 1Q6     -0.186000
     25 H1         -0.3450    4.0100    5.6820 hn        1 1Q6      0.193500
     26 H2         -1.5030    3.8840    6.7100 hn        1 1Q6      0.193500
     27 H3         -3.5380    2.5980    6.1540 ha        1 1Q6      0.141000
     28 H4         -5.7800    1.2470    4.4290 ha        1 1Q6      0.089167
     29 H5         -5.0340   -0.1860    4.7060 ha        1 1Q6      0.089167
     30 H6         -5.1570    0.8800    5.8780 ha        1 1Q6      0.089167
     31 H7         -3.5240    0.2640    2.7800 ha        1 1Q6      0.161000
     32 H8         -1.6730    0.2270    1.3430 h4        1 1Q6      0.091000
     33 H9         -1.2260    1.7680    1.1830 h4        1 1Q6      0.091000
     34 H10         0.5160    1.1630    0.0820 h1        1 1Q6      0.096000
     35 H11         2.3960    1.4260    1.9650 h1        1 1Q6      0.096500
     36 H12         2.9770    0.8960    0.5930 h1        1 1Q6      0.096500
     37 H13         2.6130    3.3080    1.0680 hn        1 1Q6      0.145000
     38 H14         2.6140    2.7420   -0.3160 hn        1 1Q6      0.145000
     39 H16         2.0340   -1.0330    0.6850 h1        1 1Q6      0.091500
     40 H17         0.4930   -1.2820    0.5030 h1        1 1Q6      0.091500
     41 H18         1.4570   -2.6860   -1.2050 h1        1 1Q6      0.107500
     42 H19         2.8870   -2.0400   -1.5260 h1        1 1Q6      0.107500
     43 H20         3.3430   -3.0000   -3.7130 ha        1 1Q6      0.146500
     44 H21        -1.8010   -0.9380   -4.9210 hn        1 1Q6      0.196500
     45 H22        -1.3050   -1.2040   -6.3720 hn        1 1Q6      0.196500
     46 H23         0.8470   -2.3010   -6.8820 ha        1 1Q6      0.146500
     47 H24         4.0740   -3.6860   -5.8170 ha        1 1Q6      0.089167
     48 H25         3.4860   -2.8140   -7.0150 ha        1 1Q6      0.089167
     49 H26         2.8670   -4.1600   -6.6880 ha        1 1Q6      0.089167
@<TRIPOS>BOND
     1    1    2 1   
     2    1   25 1   
     3    1   26 1   
     4    2    7 1   
     5    3    4 1   
     6    3   27 1   
     7    4    6 1   
     8    5   28 1   
     9    5   29 1   
    10    5   30 1   
    11    6    8 1   
    12    6   31 1   
    13    9   10 1   
    14    9   32 1   
    15    9   33 1   
    16   10   11 1   
    17   11   12 1   
    18   11   14 1   
    19   11   34 1   
    20   12   13 1   
    21   12   35 1   
    22   12   36 1   
    23   13   37 1   
    24   13   38 1   
    25   14   15 1   
    26   14   39 1   
    27   14   40 1   
    28   15   16 1   
    29   16   17 1   
    30   16   41 1   
    31   16   42 1   
    32   17   19 1   
    33   18   23 1   
    34   18   43 1   
    35   20   22 1   
    36   21   44 1   
    37   21   45 1   
    38   22   46 1   
    39   24   47 1   
    40   24   48 1   
    41   24   49 1   
@<TRIPOS>SUBSTRUCTURE
     1 1Q6         1 TEMP              0 ****  ****    0 ROOT
