@<TRIPOS>MOLECULE
1Q6
   52    53     1     0     0
SMALL
bcc


@<TRIPOS>ATOM
      1 N22        -0.6970    0.6320   -1.5670 n4        1 1Q6     -0.820300
      2 C22         0.6200    0.5350   -0.8960 ca        1 1Q6      0.462200
      3 C23         0.7160    0.8810    0.4660 ca        1 1Q6     -0.195300
      4 C24         1.9750    0.7570    1.0850 ca        1 1Q6      0.016700
      5 C27         2.1280    1.1000    2.5150 c3        1 1Q6     -0.090800
      6 C25         3.0520    0.2920    0.3220 ca        1 1Q6     -0.189300
      7 N21         1.6610    0.0970   -1.6570 nb        1 1Q6     -0.657000
      8 C26         2.8550   -0.0300   -1.0400 ca        1 1Q6      0.424600
      9 C28         3.9990   -0.6050   -1.8470 c3        1 1Q6      0.079100
     10 O29         5.1900    0.1020   -1.4680 os        1 1Q6     -0.452600
     11 C11         6.3580   -0.3370   -2.1630 c3        1 1Q6      0.107100
     12 C12         7.4210    0.7480   -1.9060 c3        1 1Q6      0.097800
     13 N13         7.0430    2.0820   -2.4460 n4        1 1Q6     -0.833600
     14 C10         6.8810   -1.6710   -1.5930 c3        1 1Q6      0.106400
     15 O09         8.1580   -1.9150   -2.1670 os        1 1Q6     -0.436600
     16 C08         8.3000   -3.1260   -2.9060 c3        1 1Q6      0.079100
     17 C06         9.2280   -4.0860   -2.1880 ca        1 1Q6      0.411600
     18 C05        10.0760   -3.6250   -1.1550 ca        1 1Q6     -0.191300
     19 N01         9.2460   -5.3630   -2.6280 nb        1 1Q6     -0.663000
     20 C02        10.1420   -6.2050   -2.0410 ca        1 1Q6      0.461200
     21 N02        10.1820   -7.5910   -2.5610 n4        1 1Q6     -0.820300
     22 C03        11.0230   -5.8390   -1.0060 ca        1 1Q6     -0.199300
     23 C04        10.9790   -4.5060   -0.5540 ca        1 1Q6      0.014700
     24 C07        11.8910   -4.0670    0.5240 c3        1 1Q6     -0.087800
     25 H1         -1.2490    1.3750   -1.1210 hn        1 1Q6      0.480800
     26 H2         -0.5880    0.8440   -2.5690 hn        1 1Q6      0.480800
     27 H3         -0.1470    1.2370    1.0530 ha        1 1Q6      0.188000
     28 H4          1.7050    2.1160    2.7250 hc        1 1Q6      0.087033
     29 H5          3.2020    1.0920    2.8250 hc        1 1Q6      0.087033
     30 H6          1.5740    0.3580    3.1490 hc        1 1Q6      0.087033
     31 H7          4.0510    0.1720    0.7710 ha        1 1Q6      0.179000
     32 H8          4.1090   -1.6920   -1.5840 h1        1 1Q6      0.078700
     33 H9          3.8370   -0.4940   -2.9530 h1        1 1Q6      0.078700
     34 H10         6.1460   -0.4450   -3.2630 h1        1 1Q6      0.076700
     35 H11         7.5750    0.8580   -0.7920 hx        1 1Q6      0.135700
     36 H12         8.3900    0.4180   -2.3850 hx        1 1Q6      0.135700
     37 H13         6.9840    2.0550   -3.4690 hn        1 1Q6      0.470467
     38 H14         7.7450    2.7810   -2.1720 hn        1 1Q6      0.470467
     39 H16         7.0330   -1.5820   -0.4830 h1        1 1Q6      0.078700
     40 H17         6.1440   -2.4870   -1.8060 h1        1 1Q6      0.078700
     41 H18         7.3100   -3.6060   -3.1250 h1        1 1Q6      0.091700
     42 H19         8.7940   -2.8160   -3.8720 h1        1 1Q6      0.091700
     43 H20        10.0230   -2.5710   -0.8390 ha        1 1Q6      0.179000
     44 H21        10.6250   -8.2010   -1.8630 hn        1 1Q6      0.478800
     45 H22         9.2320   -7.9340   -2.7600 hn        1 1Q6      0.478800
     46 H23        11.7350   -6.5470   -0.5500 ha        1 1Q6      0.184000
     47 H24        12.9460   -4.0350    0.1440 hc        1 1Q6      0.084033
     48 H25        11.6220   -3.0470    0.8960 hc        1 1Q6      0.084033
     49 H26        11.8560   -4.7800    1.3870 hc        1 1Q6      0.084033
     50 H223       -1.1910   -0.2660   -1.4700 hn        1 1Q6      0.480800
     51 H133        6.1280    2.3580   -2.0690 hn        1 1Q6      0.470467
     52 H023       10.7300   -7.6110   -3.4310 hn        1 1Q6      0.478800
@<TRIPOS>BOND
     1    1    2 1   
     2    1   25 1   
     3    1   26 1   
     4    1   50 1   
     5    2    3 ar  
     6    2    7 ar  
     7    3    4 ar  
     8    3   27 1   
     9    4    5 1   
    10    4    6 ar  
    11    5   28 1   
    12    5   29 1   
    13    5   30 1   
    14    6    8 ar  
    15    6   31 1   
    16    7    8 ar  
    17    8    9 1   
    18    9   10 1   
    19    9   32 1   
    20    9   33 1   
    21   10   11 1   
    22   11   12 1   
    23   11   14 1   
    24   11   34 1   
    25   12   13 1   
    26   12   35 1   
    27   12   36 1   
    28   13   37 1   
    29   13   38 1   
    30   13   51 1   
    31   14   15 1   
    32   14   39 1   
    33   14   40 1   
    34   15   16 1   
    35   16   17 1   
    36   16   41 1   
    37   16   42 1   
    38   17   18 ar  
    39   17   19 ar  
    40   18   23 ar  
    41   18   43 1   
    42   19   20 ar  
    43   20   21 1   
    44   20   22 ar  
    45   21   44 1   
    46   21   45 1   
    47   21   52 1   
    48   22   23 ar  
    49   22   46 1   
    50   23   24 1   
    51   24   47 1   
    52   24   48 1   
    53   24   49 1   
@<TRIPOS>SUBSTRUCTURE
     1 1Q6         1 TEMP              0 ****  ****    0 ROOT
