@<TRIPOS>MOLECULE
1Q7
   49    50     1     0     0
SMALL
bcc


@<TRIPOS>ATOM
      1 N22         6.7720   -0.9920   -0.9100 nh        1 1Q7     -0.921500
      2 C22         5.3980   -0.9700   -0.6090 ca        1 1Q7      0.626200
      3 C23         4.8100   -2.1110    0.0180 ca        1 1Q7     -0.295300
      4 C24         3.4750   -2.0530    0.4100 ca        1 1Q7     -0.013300
      5 C27         2.8340   -3.2050    1.0850 c3        1 1Q7     -0.059800
      6 C25         2.7460   -0.8820    0.1680 ca        1 1Q7     -0.263300
      7 N21         4.6830    0.1700   -0.8600 nb        1 1Q7     -0.731000
      8 C26         3.3900    0.1970   -0.4630 ca        1 1Q7      0.438600
      9 C15         2.6110    1.4560   -0.7670 c3        1 1Q7      0.076100
     10 O14         1.5370    1.5350    0.1710 os        1 1Q7     -0.419600
     11 C11         0.6670    2.6420   -0.0710 c3        1 1Q7      0.138100
     12 C12         0.0470    3.0030    1.2920 c3        1 1Q7      0.162800
     13 N13         1.0040    3.5800    2.2050 n3        1 1Q7     -0.916800
     14 C10        -0.4220    2.2700   -1.0810 c3        1 1Q7      0.106400
     15 O09        -1.3410    1.3920   -0.4400 os        1 1Q7     -0.417600
     16 C08        -2.3380    0.9160   -1.3470 c3        1 1Q7      0.077100
     17 C06        -3.3060    0.0540   -0.5700 ca        1 1Q7      0.440600
     18 N01        -4.3700   -0.4190   -1.2610 nb        1 1Q7     -0.734000
     19 C02        -5.2710   -1.1960   -0.5840 ca        1 1Q7      0.627200
     20 N02        -6.4430   -1.6110   -1.2430 nh        1 1Q7     -0.921500
     21 C03        -5.0940   -1.5370    0.7920 ca        1 1Q7     -0.295300
     22 C05        -3.0720   -0.2300    0.7860 ca        1 1Q7     -0.263300
     23 C04        -3.9850   -1.0410    1.4730 ca        1 1Q7     -0.012300
     24 C07        -3.7750   -1.3530    2.9050 c3        1 1Q7     -0.059800
     25 H1          7.1000   -1.8930   -1.1810 hn        1 1Q7      0.398300
     26 H2          7.0960   -0.2570   -1.5000 hn        1 1Q7      0.398300
     27 H3          5.4050   -3.0150    0.1990 ha        1 1Q7      0.141000
     28 H4          2.8600   -3.0550    2.1940 hc        1 1Q7      0.049367
     29 H5          1.7660   -3.3040    0.7700 hc        1 1Q7      0.049367
     30 H6          3.3660   -4.1590    0.8480 hc        1 1Q7      0.049367
     31 H7          1.6920   -0.7940    0.4670 ha        1 1Q7      0.164000
     32 H8          3.2540    2.3730   -0.6710 h1        1 1Q7      0.049700
     33 H9          2.2030    1.3930   -1.8120 h1        1 1Q7      0.049700
     34 H10         1.2460    3.5130   -0.4900 h1        1 1Q7      0.060700
     35 H11        -0.7620    3.7640    1.1060 h1        1 1Q7      0.046700
     36 H12        -0.4460    2.0690    1.6940 h1        1 1Q7      0.046700
     37 H13         0.6130    3.6240    3.1260 hn        1 1Q7      0.353300
     38 H14         1.8410    3.0300    2.2320 hn        1 1Q7      0.353300
     39 H16        -0.9620    3.1960   -1.4150 h1        1 1Q7      0.036200
     40 H17         0.0340    1.7610   -1.9720 h1        1 1Q7      0.036200
     41 H18        -2.8730    1.7900   -1.8080 h1        1 1Q7      0.050700
     42 H19        -1.8450    0.3100   -2.1560 h1        1 1Q7      0.050700
     43 H20        -6.4380   -1.5090   -2.2340 hn        1 1Q7      0.398300
     44 H21        -6.7710   -2.4990   -0.9360 hn        1 1Q7      0.398300
     45 H22        -5.8280   -2.1700    1.3070 ha        1 1Q7      0.141000
     46 H23        -2.1860    0.1790    1.2920 ha        1 1Q7      0.163000
     47 H24        -2.6890   -1.5000    3.1230 hc        1 1Q7      0.049033
     48 H25        -4.1460   -0.5040    3.5340 hc        1 1Q7      0.049033
     49 H26        -4.3270   -2.2780    3.2030 hc        1 1Q7      0.049033
@<TRIPOS>BOND
     1    1    2 1   
     2    1   25 1   
     3    1   26 1   
     4    2    3 ar  
     5    2    7 ar  
     6    3    4 ar  
     7    3   27 1   
     8    4    5 1   
     9    4    6 ar  
    10    5   28 1   
    11    5   29 1   
    12    5   30 1   
    13    6    8 ar  
    14    6   31 1   
    15    7    8 ar  
    16    8    9 1   
    17    9   10 1   
    18    9   32 1   
    19    9   33 1   
    20   10   11 1   
    21   11   12 1   
    22   11   14 1   
    23   11   34 1   
    24   12   13 1   
    25   12   35 1   
    26   12   36 1   
    27   13   37 1   
    28   13   38 1   
    29   14   15 1   
    30   14   39 1   
    31   14   40 1   
    32   15   16 1   
    33   16   17 1   
    34   16   41 1   
    35   16   42 1   
    36   17   18 ar  
    37   17   22 ar  
    38   18   19 ar  
    39   19   20 1   
    40   19   21 ar  
    41   20   43 1   
    42   20   44 1   
    43   21   23 ar  
    44   21   45 1   
    45   22   23 ar  
    46   22   46 1   
    47   23   24 1   
    48   24   47 1   
    49   24   48 1   
    50   24   49 1   
@<TRIPOS>SUBSTRUCTURE
     1 1Q7         1 TEMP              0 ****  ****    0 ROOT
