@<TRIPOS>MOLECULE
1Q7
   50    51     1     0     0
SMALL
bcc


@<TRIPOS>ATOM
      1 N22         5.2630   -2.7820   -1.7170 nh        1 1Q7     -0.927500
      2 C22         4.6330   -1.7760   -0.9560 ca        1 1Q7      0.624200
      3 C23         4.3610   -2.0010    0.4280 ca        1 1Q7     -0.279300
      4 C24         3.8250   -0.9670    1.1910 ca        1 1Q7      0.014700
      5 C27         3.5170   -1.1590    2.6260 c3        1 1Q7     -0.073800
      6 C25         3.5680    0.2680    0.5730 ca        1 1Q7     -0.258300
      7 N21         4.3750   -0.5740   -1.5560 nb        1 1Q7     -0.798000
      8 C26         3.8570    0.4160   -0.7910 ca        1 1Q7      0.407600
      9 C15         3.5460    1.7460   -1.4430 c3        1 1Q7      0.073100
     10 O14         4.7230    2.3280   -2.0040 os        1 1Q7     -0.421600
     11 C11         4.7620    2.4070   -3.4260 c3        1 1Q7      0.118100
     12 C12         5.2500    1.0790   -4.0310 c3        1 1Q7      0.092800
     13 N13         6.4480    0.5490   -3.3300 n4        1 1Q7     -0.814600
     14 C10         5.6880    3.5940   -3.7500 c3        1 1Q7      0.113400
     15 O09         6.8920    3.0990   -4.3300 os        1 1Q7     -0.454600
     16 C08         8.0590    3.8370   -3.9830 c3        1 1Q7      0.079100
     17 C06         8.5690    3.5220   -2.5940 ca        1 1Q7      0.396600
     18 N01         8.6780    2.2230   -2.2260 nb        1 1Q7     -0.792000
     19 C02         9.1810    1.9550   -0.9820 ca        1 1Q7      0.635200
     20 N02         9.2210    0.6200   -0.5430 nh        1 1Q7     -0.927500
     21 C03         9.5870    2.9980   -0.0910 ca        1 1Q7     -0.282300
     22 C05         8.9470    4.5940   -1.7740 ca        1 1Q7     -0.270300
     23 C04         9.4660    4.3220   -0.4970 ca        1 1Q7      0.015700
     24 C07         9.8880    5.4330    0.3870 c3        1 1Q7     -0.072800
     25 H1          5.2230   -3.6780   -1.2790 hn        1 1Q7      0.401800
     26 H2          4.9960   -2.8150   -2.6770 hn        1 1Q7      0.401800
     27 H3          4.5770   -2.9760    0.8870 ha        1 1Q7      0.157000
     28 H4          3.9950   -2.0860    3.0260 hc        1 1Q7      0.063700
     29 H5          3.8770   -0.2850    3.2240 hc        1 1Q7      0.063700
     30 H6          2.4090   -1.2450    2.7670 hc        1 1Q7      0.063700
     31 H7          3.1480    1.1010    1.1540 ha        1 1Q7      0.158000
     32 H8          3.2190    2.4830   -0.6560 h1        1 1Q7      0.075700
     33 H9          2.7330    1.6220   -2.2050 h1        1 1Q7      0.075700
     34 H10         3.7370    2.6130   -3.8450 h1        1 1Q7      0.085700
     35 H11         5.5140    1.2480   -5.1140 hx        1 1Q7      0.110200
     36 H12         4.4240    0.3160   -3.9620 hx        1 1Q7      0.110200
     37 H13         7.2950    0.9830   -3.7240 hn        1 1Q7      0.469467
     38 H14         6.3970    0.8040   -2.3310 hn        1 1Q7      0.469467
     39 H16         5.1960    4.2530   -4.5140 h1        1 1Q7      0.076700
     40 H17         5.8930    4.1790   -2.8140 h1        1 1Q7      0.076700
     41 H18         8.8140    3.5130   -4.7540 h1        1 1Q7      0.079700
     42 H19         7.8650    4.9370   -4.0790 h1        1 1Q7      0.079700
     43 H20         9.3550   -0.0670   -1.2530 hn        1 1Q7      0.405300
     44 H21         9.8080    0.4820    0.2510 hn        1 1Q7      0.405300
     45 H22         9.9870    2.7550    0.9040 ha        1 1Q7      0.157000
     46 H23         8.8470    5.6320   -2.1200 ha        1 1Q7      0.155000
     47 H24        10.8630    5.8510    0.0290 hc        1 1Q7      0.063033
     48 H25        10.0190    5.0880    1.4420 hc        1 1Q7      0.063033
     49 H26         9.1300    6.2550    0.3730 hc        1 1Q7      0.063033
     50 H133        6.4910   -0.4670   -3.4100 hn        1 1Q7      0.469467
@<TRIPOS>BOND
     1    1    2 1   
     2    1   25 1   
     3    1   26 1   
     4    2    3 ar  
     5    2    7 ar  
     6    3    4 ar  
     7    3   27 1   
     8    4    5 1   
     9    4    6 ar  
    10    5   28 1   
    11    5   29 1   
    12    5   30 1   
    13    6    8 ar  
    14    6   31 1   
    15    7    8 ar  
    16    8    9 1   
    17    9   10 1   
    18    9   32 1   
    19    9   33 1   
    20   10   11 1   
    21   11   12 1   
    22   11   14 1   
    23   11   34 1   
    24   12   13 1   
    25   12   35 1   
    26   12   36 1   
    27   13   37 1   
    28   13   38 1   
    29   13   50 1   
    30   14   15 1   
    31   14   39 1   
    32   14   40 1   
    33   15   16 1   
    34   16   17 1   
    35   16   41 1   
    36   16   42 1   
    37   17   18 ar  
    38   17   22 ar  
    39   18   19 ar  
    40   19   20 1   
    41   19   21 ar  
    42   20   43 1   
    43   20   44 1   
    44   21   23 ar  
    45   21   45 1   
    46   22   23 ar  
    47   22   46 1   
    48   23   24 1   
    49   24   47 1   
    50   24   48 1   
    51   24   49 1   
@<TRIPOS>SUBSTRUCTURE
     1 1Q7         1 TEMP              0 ****  ****    0 ROOT
