@<TRIPOS>MOLECULE
1Q7
   50    51     1     0     0
SMALL
bcc


@<TRIPOS>ATOM
      1 N22         4.3280   -3.1520   -1.5280 nv        1 1Q7     -0.928500
      2 C22         3.6180   -2.1700   -0.8030 ca        1 1Q7      0.617200
      3 C23         2.5640   -2.5560    0.0770 ca        1 1Q7     -0.280300
      4 C24         1.9330   -1.5830    0.8500 ca        1 1Q7      0.018700
      5 C27         0.8240   -1.9380    1.7630 c3        1 1Q7     -0.074800
      6 C25         2.3590   -0.2500    0.7390 ca        1 1Q7     -0.264300
      7 N21         4.0290   -0.8690   -0.9100 nb        1 1Q7     -0.805000
      8 C26         3.4060    0.0570   -0.1460 ca        1 1Q7      0.403600
      9 C15         3.8220    1.5080   -0.2510 c3        1 1Q7      0.077100
     10 O14         5.2240    1.6820   -0.4170 os        1 1Q7     -0.428600
     11 C11         5.6850    1.6400   -1.7670 c3        1 1Q7      0.119100
     12 C12         7.0400    0.9120   -1.7480 c3        1 1Q7      0.093800
     13 N13         6.9360   -0.4550   -1.1700 nz        1 1Q7     -0.824600
     14 C10         5.9100    3.0750   -2.2650 c3        1 1Q7      0.108400
     15 O09         6.3860    2.9590   -3.6010 os        1 1Q7     -0.417600
     16 C08         7.2310    4.0280   -4.0080 c3        1 1Q7      0.081100
     17 C06         8.5610    4.0730   -3.2900 ca        1 1Q7      0.391600
     18 N01         9.2160    2.9130   -3.0550 nb        1 1Q7     -0.746000
     19 C02        10.4370    2.9870   -2.4400 ca        1 1Q7      0.612200
     20 N02        11.0970    1.7850   -2.1060 nv        1 1Q7     -0.922500
     21 C03        11.0180    4.2340   -2.0580 ca        1 1Q7     -0.283300
     22 C05         9.0710    5.3360   -2.9440 ca        1 1Q7     -0.273300
     23 C04        10.3240    5.4130   -2.3170 ca        1 1Q7      0.006700
     24 C07        10.8990    6.7280   -1.9550 c3        1 1Q7     -0.070800
     25 H1          4.5730   -2.8830   -2.4580 hn        1 1Q7      0.400300
     26 H2          3.8780   -4.0440   -1.5030 hn        1 1Q7      0.400300
     27 H3          2.2530   -3.6090    0.1490 ha        1 1Q7      0.159000
     28 H4         -0.1560   -1.6910    1.2800 hc        1 1Q7      0.065700
     29 H5          0.8970   -1.3610    2.7180 hc        1 1Q7      0.065700
     30 H6          0.8300   -3.0300    2.0050 hc        1 1Q7      0.065700
     31 H7          1.8800    0.5380    1.3360 ha        1 1Q7      0.159000
     32 H8          3.6100    2.0300    0.7240 h1        1 1Q7      0.084700
     33 H9          3.2510    2.0010   -1.0830 h1        1 1Q7      0.084700
     34 H10         4.9600    1.1140   -2.4450 h1        1 1Q7      0.092700
     35 H11         7.7730    1.4960   -1.1200 hx        1 1Q7      0.131700
     36 H12         7.4280    0.8500   -2.8070 hx        1 1Q7      0.131700
     37 H13         6.4880   -0.3900   -0.2460 hn        1 1Q7      0.462133
     38 H14         7.8650   -0.8680   -1.0730 hn        1 1Q7      0.462133
     39 H16         6.6380    3.6130   -1.6060 h1        1 1Q7      0.062200
     40 H17         4.9320    3.6260   -2.2750 h1        1 1Q7      0.062200
     41 H18         6.6970    5.0060   -3.8720 h1        1 1Q7      0.076700
     42 H19         7.3940    3.8240   -5.1040 h1        1 1Q7      0.076700
     43 H20        10.9200    1.0260   -2.7290 hn        1 1Q7      0.397300
     44 H21        12.0730    1.9200   -1.9410 hn        1 1Q7      0.397300
     45 H22        12.0000    4.2660   -1.5650 ha        1 1Q7      0.154000
     46 H23         8.5040    6.2500   -3.1650 ha        1 1Q7      0.153000
     47 H24        10.1020    7.4260   -1.5970 hc        1 1Q7      0.060700
     48 H25        11.6700    6.6260   -1.1510 hc        1 1Q7      0.060700
     49 H26        11.3870    7.1870   -2.8530 hc        1 1Q7      0.060700
     50 H133        6.3540   -1.0520   -1.7670 hn        1 1Q7      0.462133
@<TRIPOS>BOND
     1    1    2 1   
     2    1   25 1   
     3    1   26 1   
     4    2    3 ar  
     5    2    7 ar  
     6    3    4 ar  
     7    3   27 1   
     8    4    5 1   
     9    4    6 ar  
    10    5   28 1   
    11    5   29 1   
    12    5   30 1   
    13    6    8 ar  
    14    6   31 1   
    15    7    8 ar  
    16    8    9 1   
    17    9   10 1   
    18    9   32 1   
    19    9   33 1   
    20   10   11 1   
    21   11   12 1   
    22   11   14 1   
    23   11   34 1   
    24   12   13 1   
    25   12   35 1   
    26   12   36 1   
    27   13   37 1   
    28   13   38 1   
    29   13   50 1   
    30   14   15 1   
    31   14   39 1   
    32   14   40 1   
    33   15   16 1   
    34   16   17 1   
    35   16   41 1   
    36   16   42 1   
    37   17   18 ar  
    38   17   22 ar  
    39   18   19 ar  
    40   19   20 1   
    41   19   21 ar  
    42   20   43 1   
    43   20   44 1   
    44   21   23 ar  
    45   21   45 1   
    46   22   23 ar  
    47   22   46 1   
    48   23   24 1   
    49   24   47 1   
    50   24   48 1   
    51   24   49 1   
@<TRIPOS>SUBSTRUCTURE
     1 1Q7         1 TEMP              0 ****  ****    0 ROOT
