@<TRIPOS>MOLECULE
1Q7
   52    53     1     0     0
SMALL
bcc


@<TRIPOS>ATOM
      1 N22        -0.6220   -0.8440   -1.4650 n4        1 1Q7     -0.820300
      2 C22         0.7030   -0.6490   -0.8320 ca        1 1Q7      0.462200
      3 C23         0.8330   -0.8600    0.5540 ca        1 1Q7     -0.195300
      4 C24         2.0980   -0.6440    1.1330 ca        1 1Q7      0.016700
      5 C27         2.2840   -0.8440    2.5860 c3        1 1Q7     -0.090800
      6 C25         3.1480   -0.2270    0.3090 ca        1 1Q7     -0.189300
      7 N21         1.7190   -0.2580   -1.6530 nb        1 1Q7     -0.657000
      8 C26         2.9200   -0.0420   -1.0740 ca        1 1Q7      0.424600
      9 C15         4.0330    0.4830   -1.9550 c3        1 1Q7      0.079100
     10 O14         5.2490   -0.1530   -1.5340 os        1 1Q7     -0.452600
     11 C11         6.3930    0.2470   -2.2900 c3        1 1Q7      0.107100
     12 C12         7.4890   -0.7800   -1.9520 c3        1 1Q7      0.097800
     13 N13         7.1390   -2.1700   -2.3540 n4        1 1Q7     -0.833600
     14 C10         6.8880    1.6420   -1.8600 c3        1 1Q7      0.106400
     15 O09         8.1480    1.8630   -2.4800 os        1 1Q7     -0.436600
     16 C08         8.2430    3.0010   -3.3340 c3        1 1Q7      0.079100
     17 C06         9.1570    4.0490   -2.7290 ca        1 1Q7      0.411600
     18 N01         9.1310    5.2790   -3.2890 nb        1 1Q7     -0.663000
     19 C02        10.0140    6.1950   -2.8030 ca        1 1Q7      0.461200
     20 N02        10.0060    7.5260   -3.4530 n4        1 1Q7     -0.820300
     21 C03        10.9230    5.9540   -1.7550 ca        1 1Q7     -0.199300
     22 C05        10.0360    3.7110   -1.6750 ca        1 1Q7     -0.191300
     23 C04        10.9240    4.6700   -1.1780 ca        1 1Q7      0.014700
     24 C07        11.8670    4.3590   -0.0820 c3        1 1Q7     -0.087800
     25 H1         -1.1370    0.0470   -1.4470 hn        1 1Q7      0.480800
     26 H2         -1.1450   -1.5530   -0.9380 hn        1 1Q7      0.480800
     27 H3         -0.0110   -1.1800    1.1890 ha        1 1Q7      0.188000
     28 H4          3.3630   -0.7790    2.8730 hc        1 1Q7      0.087033
     29 H5          1.8940   -1.8460    2.9000 hc        1 1Q7      0.087033
     30 H6          1.7220   -0.0600    3.1570 hc        1 1Q7      0.087033
     31 H7          4.1510   -0.0380    0.7240 ha        1 1Q7      0.179000
     32 H8          4.1170    1.5930   -1.7980 h1        1 1Q7      0.078700
     33 H9          3.8550    0.2620   -3.0420 h1        1 1Q7      0.078700
     34 H10         6.1590    0.2430   -3.3910 h1        1 1Q7      0.076700
     35 H11         8.4410   -0.4730   -2.4790 hx        1 1Q7      0.135700
     36 H12         7.6660   -0.7790   -0.8360 hx        1 1Q7      0.135700
     37 H13         6.2390   -2.4320   -1.9350 hn        1 1Q7      0.470467
     38 H14         7.0620   -2.2420   -3.3740 hn        1 1Q7      0.470467
     39 H16         7.0620    1.6640   -0.7500 h1        1 1Q7      0.078700
     40 H17         6.1250    2.4150   -2.1360 h1        1 1Q7      0.078700
     41 H18         8.7290    2.6130   -4.2760 h1        1 1Q7      0.091700
     42 H19         7.2370    3.4320   -3.5780 h1        1 1Q7      0.091700
     43 H20         9.0440    7.8240   -3.6650 hn        1 1Q7      0.478800
     44 H21        10.5390    7.4780   -4.3320 hn        1 1Q7      0.478800
     45 H22        11.6220    6.7200   -1.3830 ha        1 1Q7      0.184000
     46 H23        10.0170    2.6910   -1.2580 ha        1 1Q7      0.179000
     47 H24        11.8260    5.1490    0.7110 hc        1 1Q7      0.084033
     48 H25        11.6340    3.3720    0.3890 hc        1 1Q7      0.084033
     49 H26        12.9160    4.3200   -0.4780 hc        1 1Q7      0.084033
     50 H223       -0.5240   -1.1490   -2.4440 hn        1 1Q7      0.480800
     51 H133        7.8650   -2.8210   -2.0290 hn        1 1Q7      0.470467
     52 H023       10.4430    8.2110   -2.8250 hn        1 1Q7      0.478800
@<TRIPOS>BOND
     1    1    2 1   
     2    1   25 1   
     3    1   26 1   
     4    1   50 1   
     5    2    3 ar  
     6    2    7 ar  
     7    3    4 ar  
     8    3   27 1   
     9    4    5 1   
    10    4    6 ar  
    11    5   28 1   
    12    5   29 1   
    13    5   30 1   
    14    6    8 ar  
    15    6   31 1   
    16    7    8 ar  
    17    8    9 1   
    18    9   10 1   
    19    9   32 1   
    20    9   33 1   
    21   10   11 1   
    22   11   12 1   
    23   11   14 1   
    24   11   34 1   
    25   12   13 1   
    26   12   35 1   
    27   12   36 1   
    28   13   37 1   
    29   13   38 1   
    30   13   51 1   
    31   14   15 1   
    32   14   39 1   
    33   14   40 1   
    34   15   16 1   
    35   16   17 1   
    36   16   41 1   
    37   16   42 1   
    38   17   18 ar  
    39   17   22 ar  
    40   18   19 ar  
    41   19   20 1   
    42   19   21 ar  
    43   20   43 1   
    44   20   44 1   
    45   20   52 1   
    46   21   23 ar  
    47   21   45 1   
    48   22   23 ar  
    49   22   46 1   
    50   23   24 1   
    51   24   47 1   
    52   24   48 1   
    53   24   49 1   
@<TRIPOS>SUBSTRUCTURE
     1 1Q7         1 TEMP              0 ****  ****    0 ROOT
