@<TRIPOS>MOLECULE
1Q7
   49    42     1     0     0
SMALL
bcc


@<TRIPOS>ATOM
      1 N22        -1.7320   -2.8290    3.8260 n3        1 1Q7     -0.320000
      2 C22        -1.7210   -1.3420    3.8630 c1        1 1Q7      0.107500
      3 C23        -1.4950   -0.6600    5.0910 c1        1 1Q7     -0.229000
      4 C24        -1.4260    0.6980    5.1090 c1        1 1Q7     -0.006000
      5 C27        -1.2360    1.4230    6.4150 c3        1 1Q7     -0.185000
      6 C25        -1.5750    1.4060    3.9470 c1        1 1Q7     -0.214000
      7 N21        -1.8680   -0.6400    2.7180 n1        1 1Q7     -0.192500
      8 C26        -1.7980    0.7310    2.7370 c1        1 1Q7      0.010000
      9 C15        -1.9890    1.5270    1.4400 c2        1 1Q7      0.023000
     10 O14        -2.0610    0.6090    0.3080 os        1 1Q7     -0.279000
     11 C11        -2.0110    1.2600   -0.9890 c3        1 1Q7     -0.015000
     12 C12        -3.3980    1.5890   -1.4310 c3        1 1Q7     -0.105000
     13 N13        -3.4850    2.9720   -1.7140 n3        1 1Q7     -0.325000
     14 C10        -1.3910    0.3530   -1.9600 c3        1 1Q7     -0.032000
     15 O09         0.0400    0.3420   -1.7670 os        1 1Q7     -0.273000
     16 C08         0.7430    0.4170   -2.9310 c3        1 1Q7      0.029000
     17 C06         1.9520   -0.4930   -2.8550 c1        1 1Q7     -0.016000
     18 N01         2.5790   -0.6940   -1.6470 n1        1 1Q7     -0.192500
     19 C02         3.7910   -1.3710   -1.5980 c1        1 1Q7      0.107500
     20 N02         4.4270   -1.5920   -0.3600 n3        1 1Q7     -0.320000
     21 C03         4.3820   -1.8550   -2.7860 c1        1 1Q7     -0.214000
     22 C05         2.5480   -0.9820   -4.0530 c1        1 1Q7     -0.227000
     23 C04         3.7570   -1.6560   -3.9980 c1        1 1Q7      0.010000
     24 C07         4.3980   -2.1840   -5.2820 c2        1 1Q7     -0.187000
     25 H1         -2.0410   -3.2440    3.1250 hn        1 1Q7      0.195750
     26 H2         -1.4970   -3.2920    4.5450 hn        1 1Q7      0.195750
     27 H3         -1.3140   -1.1990    5.9590 ha        1 1Q7      0.141000
     28 H4         -1.0010    2.3770    6.2360 hc        1 1Q7      0.088000
     29 H5         -0.5620    1.0270    6.8860 hc        1 1Q7      0.088000
     30 H6         -2.1010    1.3810    6.9570 hc        1 1Q7      0.088000
     31 H7         -1.5270    2.3640    3.9580 ha        1 1Q7      0.151000
     32 H8         -1.2340    2.1350    1.3200 h4        1 1Q7      0.093000
     33 H9         -2.7640    2.0110    1.4930 h4        1 1Q7      0.093000
     34 H10        -1.4500    2.1360   -0.9200 h1        1 1Q7      0.102000
     35 H11        -4.0700    1.3460   -0.6690 h1        1 1Q7      0.097500
     36 H12        -3.6290    1.0470   -2.2840 h1        1 1Q7      0.097500
     37 H13        -2.6630    3.2730   -2.0780 hn        1 1Q7      0.144500
     38 H14        -3.6550    3.4120   -0.9690 hn        1 1Q7      0.144500
     39 H16        -1.7460   -0.5560   -1.8310 h1        1 1Q7      0.086500
     40 H17        -1.5810    0.6390   -2.8110 h1        1 1Q7      0.086500
     41 H18         0.1920    0.1490   -3.6440 h1        1 1Q7      0.100000
     42 H19         1.0240    1.2950   -3.0700 h1        1 1Q7      0.100000
     43 H20         5.2480   -2.0210   -0.3330 hn        1 1Q7      0.195750
     44 H21         4.0670   -1.2330    0.4160 hn        1 1Q7      0.195750
     45 H22         5.2300   -2.3280   -2.7490 ha        1 1Q7      0.151000
     46 H23         2.0930   -0.8380   -4.9370 ha        1 1Q7      0.142000
     47 H24         3.9160   -1.8120   -6.0730 ha        1 1Q7      0.089333
     48 H25         4.3430   -3.1740   -5.2970 ha        1 1Q7      0.089333
     49 H26         5.2920   -1.9230   -5.3130 ha        1 1Q7      0.089333
@<TRIPOS>BOND
     1    1    2 1   
     2    1   25 1   
     3    1   26 1   
     4    2    7 1   
     5    3    4 1   
     6    3   27 1   
     7    4    5 1   
     8    5   28 1   
     9    5   29 1   
    10    5   30 1   
    11    6    8 1   
    12    6   31 1   
    13    9   10 1   
    14    9   32 1   
    15    9   33 1   
    16   10   11 1   
    17   11   12 1   
    18   11   14 1   
    19   11   34 1   
    20   12   13 1   
    21   12   35 1   
    22   12   36 1   
    23   13   37 1   
    24   13   38 1   
    25   14   15 1   
    26   14   39 1   
    27   14   40 1   
    28   15   16 1   
    29   16   17 1   
    30   16   41 1   
    31   16   42 1   
    32   17   22 1   
    33   18   19 1   
    34   19   20 1   
    35   20   43 1   
    36   20   44 1   
    37   21   23 1   
    38   21   45 1   
    39   22   46 1   
    40   24   47 1   
    41   24   48 1   
    42   24   49 1   
@<TRIPOS>SUBSTRUCTURE
     1 1Q7         1 TEMP              0 ****  ****    0 ROOT
