@<TRIPOS>MOLECULE
1Q8
   21    21     1     0     0
SMALL
bcc


@<TRIPOS>ATOM
      1 O6          0.1270   -0.4930    0.2510 o         1 1Q8     -0.458100
      2 C2          1.3150   -0.2480    0.0640 c         1 1Q8      0.578700
      3 N5          2.1110   -0.0060    1.3300 ny        1 1Q8     -0.732800
      4 C9          1.2230    0.2310    2.5470 c3        1 1Q8      0.343600
      5 O11         0.6650   -0.9770    2.9460 oh        1 1Q8     -0.547800
      6 C1          2.0290   -0.1530   -1.2030 ca        1 1Q8     -0.213600
      7 C4          1.2430   -0.1190   -2.3700 ca        1 1Q8     -0.061500
      8 C8          1.8560   -0.0350   -3.6180 ca        1 1Q8     -0.124000
      9 C10         3.2470    0.0080   -3.7140 ca        1 1Q8     -0.042000
     10 C7          4.0310   -0.0350   -2.5550 ca        1 1Q8     -0.124000
     11 C3          3.4310   -0.1150   -1.3040 ca        1 1Q8     -0.061500
     12 H1          2.6880   -0.8380    1.5020 hn        1 1Q8      0.465300
     13 H2          0.4630    1.0130    2.2670 hx        1 1Q8      0.120200
     14 H3          1.8970    0.5640    3.3930 hx        1 1Q8      0.120200
     15 H4         -0.1840   -1.1130    2.4870 ho        1 1Q8      0.461000
     16 H5          0.1420   -0.1610   -2.2910 ha        1 1Q8      0.149000
     17 H6          1.2360   -0.0070   -4.5300 ha        1 1Q8      0.171000
     18 H7          3.7320    0.0730   -4.7030 ha        1 1Q8      0.171000
     19 H8          5.1300   -0.0090   -2.6360 ha        1 1Q8      0.171000
     20 H9          4.0800   -0.1670   -0.4170 ha        1 1Q8      0.149000
     21 H52         2.7240    0.8020    1.1960 hn        1 1Q8      0.465300
@<TRIPOS>BOND
     1    1    2 2   
     2    2    3 1   
     3    2    6 1   
     4    3    4 1   
     5    3   12 1   
     6    3   21 1   
     7    4    5 1   
     8    4   13 1   
     9    4   14 1   
    10    5   15 1   
    11    6    7 ar  
    12    6   11 ar  
    13    7    8 ar  
    14    7   16 1   
    15    8    9 ar  
    16    8   17 1   
    17    9   10 ar  
    18    9   18 1   
    19   10   11 ar  
    20   10   19 1   
    21   11   20 1   
@<TRIPOS>SUBSTRUCTURE
     1 1Q8         1 TEMP              0 ****  ****    0 ROOT
