@<TRIPOS>MOLECULE
1Q8
   21    21     1     0     0
SMALL
bcc


@<TRIPOS>ATOM
      1 O6          0.1540   -0.6100    0.2470 o         1 1Q8     -0.458100
      2 C2          1.3250   -0.2930    0.0630 c         1 1Q8      0.578700
      3 N5          2.1010    0.0020    1.3300 n4        1 1Q8     -0.732800
      4 C9          1.1970    0.1870    2.5440 c3        1 1Q8      0.343600
      5 O11         0.7130   -1.0510    2.9450 oh        1 1Q8     -0.547800
      6 C1          2.0350   -0.1560   -1.2030 ca        1 1Q8     -0.213600
      7 C4          1.2510   -0.1720   -2.3720 ca        1 1Q8     -0.061500
      8 C8          1.8610   -0.0540   -3.6190 ca        1 1Q8     -0.124000
      9 C10         3.2470    0.0740   -3.7110 ca        1 1Q8     -0.042000
     10 C7          4.0300    0.0800   -2.5500 ca        1 1Q8     -0.124000
     11 C3          3.4330   -0.0340   -1.3010 ca        1 1Q8     -0.061500
     12 H1          2.7280   -0.7930    1.5060 hn        1 1Q8      0.465300
     13 H2          0.3910    0.9200    2.2600 hx        1 1Q8      0.120200
     14 H3          1.8470    0.5640    3.3900 hx        1 1Q8      0.120200
     15 H4         -0.1240   -1.2410    2.4850 ho        1 1Q8      0.461000
     16 H5          0.1550   -0.2810   -2.2960 ha        1 1Q8      0.149000
     17 H6          1.2430   -0.0650   -4.5320 ha        1 1Q8      0.171000
     18 H7          3.7300    0.1660   -4.6990 ha        1 1Q8      0.171000
     19 H8          5.1260    0.1720   -2.6290 ha        1 1Q8      0.171000
     20 H9          4.0810   -0.0450   -0.4120 ha        1 1Q8      0.149000
     21 H52         2.6640    0.8450    1.1950 hn        1 1Q8      0.465300
@<TRIPOS>BOND
     1    1    2 2   
     2    2    3 1   
     3    2    6 1   
     4    3    4 1   
     5    3   12 1   
     6    3   21 1   
     7    4    5 1   
     8    4   13 1   
     9    4   14 1   
    10    5   15 1   
    11    6    7 ar  
    12    6   11 ar  
    13    7    8 ar  
    14    7   16 1   
    15    8    9 ar  
    16    8   17 1   
    17    9   10 ar  
    18    9   18 1   
    19   10   11 ar  
    20   10   19 1   
    21   11   20 1   
@<TRIPOS>SUBSTRUCTURE
     1 1Q8         1 TEMP              0 ****  ****    0 ROOT
