@<TRIPOS>MOLECULE
1Q8
   20    20     1     0     0
SMALL
bcc


@<TRIPOS>ATOM
      1 O6          1.2640   -1.4550    0.6460 o         1 1Q8     -0.612100
      2 C2          0.8350   -0.3130    0.3750 c         1 1Q8      0.665700
      3 N5          1.7180    0.7570    0.2890 n         1 1Q8     -0.585900
      4 C9          3.1390    0.5240    0.4110 c3        1 1Q8      0.284800
      5 O11         3.6900   -0.2180   -0.6630 oh        1 1Q8     -0.619800
      6 C1         -0.6140   -0.0490    0.1610 ca        1 1Q8     -0.146600
      7 C4         -1.3970   -1.0790   -0.3760 ca        1 1Q8     -0.087000
      8 C8         -2.7590   -0.8780   -0.5910 ca        1 1Q8     -0.140000
      9 C10        -3.3460    0.3430   -0.2610 ca        1 1Q8     -0.105000
     10 C7         -2.5700    1.3650    0.2870 ca        1 1Q8     -0.140000
     11 C3         -1.2050    1.1730    0.4990 ca        1 1Q8     -0.087000
     12 H1          1.4280    1.5510   -0.2320 hn        1 1Q8      0.308500
     13 H2          3.6760    1.5150    0.3770 h2        1 1Q8      0.067700
     14 H3          3.3270   -0.0090    1.3870 h2        1 1Q8      0.067700
     15 H4          3.3810   -1.1320   -0.5830 ho        1 1Q8      0.422000
     16 H5         -0.9250   -2.0460   -0.6160 ha        1 1Q8      0.147500
     17 H6         -3.3710   -1.6880   -1.0160 ha        1 1Q8      0.138000
     18 H7         -4.4220    0.5000   -0.4290 ha        1 1Q8      0.136000
     19 H8         -3.0350    2.3250    0.5570 ha        1 1Q8      0.138000
     20 H9         -0.6090    1.9820    0.9480 ha        1 1Q8      0.147500
@<TRIPOS>BOND
     1    1    2 2   
     2    2    3 1   
     3    2    6 1   
     4    3    4 1   
     5    3   12 1   
     6    4    5 1   
     7    4   13 1   
     8    4   14 1   
     9    5   15 1   
    10    6    7 ar  
    11    6   11 ar  
    12    7    8 ar  
    13    7   16 1   
    14    8    9 ar  
    15    8   17 1   
    16    9   10 ar  
    17    9   18 1   
    18   10   11 ar  
    19   10   19 1   
    20   11   20 1   
@<TRIPOS>SUBSTRUCTURE
     1 1Q8         1 TEMP              0 ****  ****    0 ROOT
