@<TRIPOS>MOLECULE
1Q8
   21    21     1     0     0
SMALL
bcc


@<TRIPOS>ATOM
      1 O6          0.1460   -0.5750    0.2500 o         1 1Q8     -0.458100
      2 C2          1.3220   -0.2780    0.0640 c         1 1Q8      0.578700
      3 N5          2.1030    0.0090    1.3290 n4        1 1Q8     -0.732800
      4 C9          1.2030    0.2150    2.5430 c3        1 1Q8      0.343600
      5 O11         0.6990   -1.0130    2.9500 oh        1 1Q8     -0.547800
      6 C1          2.0340   -0.1590   -1.2020 ca        1 1Q8     -0.213600
      7 C4          1.2490   -0.1650   -2.3710 ca        1 1Q8     -0.061500
      8 C8          1.8610   -0.0610   -3.6190 ca        1 1Q8     -0.124000
      9 C10         3.2480    0.0400   -3.7120 ca        1 1Q8     -0.042000
     10 C7          4.0310    0.0360   -2.5520 ca        1 1Q8     -0.124000
     11 C3          3.4330   -0.0630   -1.3020 ca        1 1Q8     -0.061500
     12 H1          2.6810    0.8420    1.1900 hn        1 1Q8      0.465300
     13 H2          0.4090    0.9610    2.2550 hx        1 1Q8      0.120200
     14 H3          1.8600    0.5860    3.3870 hx        1 1Q8      0.120200
     15 H4         -0.1420   -1.1900    2.4910 ho        1 1Q8      0.461000
     16 H5          0.1510   -0.2530   -2.2940 ha        1 1Q8      0.149000
     17 H6          1.2410   -0.0640   -4.5320 ha        1 1Q8      0.171000
     18 H7          3.7320    0.1200   -4.7010 ha        1 1Q8      0.171000
     19 H8          5.1290    0.1070   -2.6310 ha        1 1Q8      0.171000
     20 H9          4.0820   -0.0830   -0.4130 ha        1 1Q8      0.149000
     21 H52         2.7160   -0.7960    1.5100 hn        1 1Q8      0.465300
@<TRIPOS>BOND
     1    1    2 2   
     2    2    3 1   
     3    2    6 1   
     4    3    4 1   
     5    3   12 1   
     6    3   21 1   
     7    4    5 1   
     8    4   13 1   
     9    4   14 1   
    10    5   15 1   
    11    6    7 ar  
    12    6   11 ar  
    13    7    8 ar  
    14    7   16 1   
    15    8    9 ar  
    16    8   17 1   
    17    9   10 ar  
    18    9   18 1   
    19   10   11 ar  
    20   10   19 1   
    21   11   20 1   
@<TRIPOS>SUBSTRUCTURE
     1 1Q8         1 TEMP              0 ****  ****    0 ROOT
