@<TRIPOS>MOLECULE
1Q8
   20    16     1     0     0
SMALL
bcc


@<TRIPOS>ATOM
      1 O6         -1.5160   -1.4200    0.4660 o         1 1Q8     -0.605500
      2 C2         -0.6640   -0.5710    0.5780 c1        1 1Q8      0.572500
      3 N5         -0.3040   -0.0930    1.8730 n3        1 1Q8     -0.426400
      4 C9         -0.8700   -0.7110    3.0500 c3        1 1Q8      0.229100
      5 O11        -2.2260   -0.2510    3.2350 oh        1 1Q8     -0.619800
      6 C1          0.0770   -0.0630   -0.6610 c1        1 1Q8     -0.120000
      7 C4          1.1490   -0.7890   -1.1800 c1        1 1Q8     -0.056750
      8 C8          1.7950   -0.3470   -2.3490 c1        1 1Q8     -0.056750
      9 C10         1.3650    0.8160   -2.9870 c1        1 1Q8     -0.056750
     10 C7          0.2900    1.5420   -2.4640 c1        1 1Q8     -0.056750
     11 C3         -0.3530    1.1030   -1.3030 c1        1 1Q8     -0.046500
     12 H1          0.2230    0.6600    1.9560 hn        1 1Q8      0.272700
     13 H2         -0.8700   -1.7070    2.9370 h2        1 1Q8      0.068200
     14 H3         -0.3320   -0.4690    3.8390 h2        1 1Q8      0.068200
     15 H4         -2.4520   -0.3280    4.1000 ho        1 1Q8      0.422000
     16 H5          1.4560   -1.6210   -0.7240 ha        1 1Q8      0.084250
     17 H6          2.5440   -0.8530   -2.7140 ha        1 1Q8      0.084250
     18 H7          1.8220    1.1290   -3.8120 ha        1 1Q8      0.084250
     19 H8         -0.0090    2.3490   -2.9070 ha        1 1Q8      0.084250
     20 H9         -1.1230    1.6240   -0.9310 ha        1 1Q8      0.075500
@<TRIPOS>BOND
     1    1    2 2   
     2    2    3 2   
     3    3    4 1   
     4    3   12 1   
     5    4    5 1   
     6    4   13 1   
     7    4   14 1   
     8    5   15 1   
     9    6   11 3   
    10    7    8 3   
    11    7   16 1   
    12    8   17 1   
    13    9   10 3   
    14    9   18 1   
    15   10   19 1   
    16   11   20 1   
@<TRIPOS>SUBSTRUCTURE
     1 1Q8         1 TEMP              0 ****  ****    0 ROOT
