@<TRIPOS>MOLECULE
1Q9
   35    36     1     0     0
SMALL
bcc


@<TRIPOS>ATOM
      1 C1          0.0000    0.0000    0.0000 c2        1 1Q9     -0.161000
      2 C2         -0.2360    0.0110   -2.4560 c3        1 1Q9     -0.024000
      3 N1          1.3530    0.0000    0.0000 na        1 1Q9      0.182000
      4 C3         -0.6150    3.1390   -3.7930 c3        1 1Q9      0.014000
      5 O1         -1.6390    2.3570   -3.1750 os        1 1Q9     -0.209000
      6 C4         -0.3570    4.3940   -2.9550 c3        1 1Q9     -0.124000
      7 N3         -0.3880    0.0010    1.2570 n2        1 1Q9     -0.221000
      8 N4          0.6300    0.0000    2.0410 n2        1 1Q9      0.056000
      9 N5          1.7220    0.0000    1.3570 n2        1 1Q9     -0.274000
     10 N6         -0.8220    0.0050   -1.1130 nu        1 1Q9      0.095000
     11 CG         -1.3370    0.0170   -3.4850 ca        1 1Q9      0.013000
     12 CD1        -1.7010   -1.1580   -4.1130 ca        1 1Q9     -0.335000
     13 CE1        -2.7110   -1.1540   -5.0580 ca        1 1Q9     -1.484000
     14 CZ         -3.3600    0.0250   -5.3740 ca        1 1Q9      0.108000
     15 CE2        -3.0000    1.2030   -4.7470 ca        1 1Q9     -1.824000
     16 CD2        -1.9910    1.2010   -3.7960 ca        1 1Q9      0.048000
     17 Cl1        -3.1060   -2.4370   -5.7430 cl        1 1Q9      4.274000
     18 Cl2        -3.7070    2.4870   -5.0930 cl        1 1Q9      4.272000
     19 H1          0.3760   -0.8730   -2.5870 h1        1 1Q9      0.046500
     20 H2          0.3770    0.8960   -2.5790 h1        1 1Q9      0.046500
     21 H3          1.9610   -0.0000   -0.7950 hn        1 1Q9      0.121000
     22 H4          0.2950    2.5560   -3.8600 h1        1 1Q9      0.030000
     23 H5         -0.9330    3.4290   -4.7880 h1        1 1Q9      0.030000
     24 H6         -0.4620    5.2730   -3.5790 hc        1 1Q9      0.049000
     25 H7         -1.0730    4.4390   -2.1430 hc        1 1Q9      0.049000
     26 H8          0.6470    4.3560   -2.5490 hc        1 1Q9      0.049000
     27 H9         -1.8160   -0.0290   -1.0010 hn        1 1Q9      0.121000
     28 H10        -1.1930   -2.0830   -3.8670 ha        1 1Q9      0.107000
     29 H11        -4.1500    0.0260   -6.1150 ha        1 1Q9      0.081000
     30 H12        -2.4870   -2.5840   -6.6190 ha        1 1Q9     -0.852333
     31 H13        -4.1460   -2.3830   -6.0400 ha        1 1Q9     -0.852333
     32 H14        -2.9690   -3.2680   -5.0600 ha        1 1Q9     -0.852333
     33 H15        -3.8900    3.0540   -4.1890 ha        1 1Q9     -0.859333
     34 H16        -4.6520    2.2610   -5.5740 ha        1 1Q9     -0.859333
     35 H17        -3.0900    3.0700   -5.7660 ha        1 1Q9     -0.859333
@<TRIPOS>BOND
     1    1    3 1   
     2    1    7 1   
     3    1   10 1   
     4    2   10 1   
     5    2   11 1   
     6    2   19 1   
     7    2   20 1   
     8    3    9 1   
     9    3   21 1   
    10    4    5 1   
    11    4    6 1   
    12    4   22 1   
    13    4   23 1   
    14    5   16 1   
    15    6   24 1   
    16    6   25 1   
    17    6   26 1   
    18    7    8 1   
    19    8    9 1   
    20   10   27 1   
    21   11   12 1   
    22   11   16 1   
    23   12   13 1   
    24   12   28 1   
    25   13   14 1   
    26   13   17 1   
    27   14   15 1   
    28   14   29 1   
    29   15   16 1   
    30   15   18 1   
    31   17   30 1   
    32   17   31 1   
    33   17   32 1   
    34   18   33 1   
    35   18   34 1   
    36   18   35 1   
@<TRIPOS>SUBSTRUCTURE
     1 1Q9         1 TEMP              0 ****  ****    0 ROOT
