@<TRIPOS>MOLECULE
1QA
   42    44     1     0     0
SMALL
bcc


@<TRIPOS>ATOM
      1 C1          2.1620    0.0540    1.7820 ca        1 1QA     -0.147000
      2 C2          1.9740    1.3660    1.3440 ca        1 1QA     -0.077300
      3 C3          0.9050    2.1160    1.8930 ca        1 1QA      0.409200
      4 C7         -0.6940   -0.1130    4.2830 cc        1 1QA      0.329400
      5 C9         -1.5070   -1.1390    6.0800 cd        1 1QA      0.325600
      6 C10        -2.6670   -0.5280    5.5980 cc        1 1QA     -0.262400
      7 C12        -1.4680   -1.9700    7.3110 c3        1 1QA     -0.194700
      8 C13        -0.2620   -2.8710    7.3200 c         1 1QA      0.590100
      9 C15         1.4820   -2.5030    9.0420 c3        1 1QA     -0.000200
     10 C16         0.5840   -1.6360   10.0470 c         1 1QA      0.928600
     11 O17         0.3980   -2.1390   11.1660 o         1 1QA     -0.766800
     12 C19         2.9300   -2.1750    9.1950 ca        1 1QA     -0.123300
     13 C20         3.8890   -3.1940    9.1580 ca        1 1QA     -0.103000
     14 C21         5.2380   -2.8880    9.3280 ca        1 1QA     -0.137000
     15 C22         5.6340   -1.5660    9.5320 ca        1 1QA     -0.111000
     16 C24         3.3290   -0.8500    9.4100 ca        1 1QA     -0.103000
     17 C27         2.8270    1.9410    0.3680 cg        1 1QA      0.223800
     18 N4          0.0710    1.6350    2.8200 nb        1 1QA     -0.635000
     19 C5          0.2470    0.3620    3.2660 ca        1 1QA      0.357300
     20 C6          1.2880   -0.4630    2.7560 ca        1 1QA      0.046800
     21 N8         -0.3690   -0.8960    5.3230 nd        1 1QA     -0.654000
     22 S11        -2.3450    0.3440    4.2300 ss        1 1QA      0.072700
     23 N14         1.0400   -2.2050    7.6270 n4        1 1QA     -0.646800
     24 O18         0.1370   -0.5600    9.5640 o         1 1QA     -0.766800
     25 C23         4.6800   -0.5490    9.5750 ca        1 1QA     -0.137000
     26 O25        -0.2440   -4.0770    7.1030 o         1 1QA     -0.466100
     27 O26         1.3980   -1.7460    3.2210 oh        1 1QA     -0.466100
     28 N28         3.5260    2.4140   -0.4320 n1        1 1QA     -0.327800
     29 H1          2.9750   -0.5670    1.3770 ha        1 1QA      0.159000
     30 H2          0.7160    3.1570    1.5690 h4        1 1QA      0.047100
     31 H3         -3.6470   -0.6080    6.0690 h4        1 1QA      0.195000
     32 H4         -2.3870   -2.6140    7.3680 hc        1 1QA      0.137700
     33 H5         -1.4420   -1.2960    8.2280 hc        1 1QA      0.137700
     34 H6          1.2920   -3.5940    9.2430 hx        1 1QA      0.101700
     35 H8          3.5770   -4.2400    9.0150 ha        1 1QA      0.152000
     36 H9          5.9890   -3.6910    9.3080 ha        1 1QA      0.137000
     37 H10         6.6990   -1.3270    9.6700 ha        1 1QA      0.134000
     38 H11         2.5610   -0.0580    9.4760 ha        1 1QA      0.152000
     39 H12         0.9110   -1.1760    7.5900 hn        1 1QA      0.462300
     40 H13         4.9900    0.4920    9.7520 ha        1 1QA      0.137000
     41 H14         2.1110   -2.1830    2.7280 ho        1 1QA      0.427000
     42 H142        1.7520   -2.4940    6.9550 hn        1 1QA      0.462300
@<TRIPOS>BOND
     1    1    2 ar  
     2    1   20 ar  
     3    1   29 1   
     4    2    3 ar  
     5    2   17 1   
     6    3   18 ar  
     7    3   30 1   
     8    4   19 1   
     9    4   21 2   
    10    4   22 1   
    11    5    6 2   
    12    5    7 1   
    13    5   21 1   
    14    6   22 1   
    15    6   31 1   
    16    7    8 1   
    17    7   32 1   
    18    7   33 1   
    19    8   23 1   
    20    8   26 2   
    21    9   10 1   
    22    9   12 1   
    23    9   23 1   
    24    9   34 1   
    25   10   11 1   
    26   10   24 1   
    27   12   13 ar  
    28   12   16 ar  
    29   13   14 ar  
    30   13   35 1   
    31   14   15 ar  
    32   14   36 1   
    33   15   25 ar  
    34   15   37 1   
    35   16   25 ar  
    36   16   38 1   
    37   17   28 3   
    38   18   19 ar  
    39   19   20 ar  
    40   20   27 1   
    41   23   39 1   
    42   23   42 1   
    43   25   40 1   
    44   27   41 1   
@<TRIPOS>SUBSTRUCTURE
     1 1QA         1 TEMP              0 ****  ****    0 ROOT
