@<TRIPOS>MOLECULE
1QA
   42    44     1     0     0
SMALL
bcc


@<TRIPOS>ATOM
      1 C1          1.6970    1.8150    2.9200 ca        1 1QA     -0.145000
      2 C2          1.4600    1.8320    1.5440 ca        1 1QA     -0.077300
      3 C3          0.6690    0.8000    0.9800 ca        1 1QA      0.408200
      4 C7         -0.2260   -1.3450    3.7810 cc        1 1QA      0.327400
      5 C9         -0.4820   -2.9860    5.2600 cd        1 1QA      0.324600
      6 C10        -1.7090   -3.0570    4.5960 cc        1 1QA     -0.260400
      7 C12        -0.1140   -3.8650    6.4000 c3        1 1QA     -0.193700
      8 C13         1.3360   -3.7080    6.7730 c         1 1QA      0.590100
      9 C15         1.9000   -2.5900    8.9120 c3        1 1QA     -0.000200
     10 C16         0.4650   -2.7600    9.6040 c         1 1QA      0.927600
     11 O17         0.4470   -3.4480   10.6360 o         1 1QA     -0.767300
     12 C19         2.6270   -1.4090    9.4650 ca        1 1QA     -0.122300
     13 C20         4.0070   -1.4780    9.6930 ca        1 1QA     -0.103000
     14 C21         4.6790   -0.3840   10.2340 ca        1 1QA     -0.138500
     15 C22         3.9800    0.7820   10.5480 ca        1 1QA     -0.112000
     16 C24         1.9260   -0.2410    9.7870 ca        1 1QA     -0.103000
     17 C27         1.9910    2.8580    0.7220 cg        1 1QA      0.223800
     18 N4          0.1440   -0.1990    1.6990 nb        1 1QA     -0.636000
     19 C5          0.3750   -0.2340    3.0380 ca        1 1QA      0.359300
     20 C6          1.1490    0.7690    3.6850 ca        1 1QA      0.047800
     21 N8          0.3750   -2.0040    4.7840 nd        1 1QA     -0.656000
     22 S11        -1.7940   -1.9180    3.3990 ss        1 1QA      0.073700
     23 N14         1.6980   -2.4120    7.4250 n4        1 1QA     -0.646800
     24 O18        -0.4890   -2.2040    8.9920 o         1 1QA     -0.767300
     25 C23         2.6040    0.8520   10.3260 ca        1 1QA     -0.138500
     26 O25         2.2310   -4.5270    6.6020 o         1 1QA     -0.465100
     27 O26         1.3310    0.6910    5.0400 oh        1 1QA     -0.471100
     28 N28         2.4270    3.6980    0.0460 n1        1 1QA     -0.327800
     29 H1          2.2990    2.6010    3.4000 ha        1 1QA      0.159000
     30 H2          0.4510    0.7790   -0.1040 h4        1 1QA      0.047100
     31 H3         -2.5040   -3.7610    4.8440 h4        1 1QA      0.196000
     32 H4         -0.7580   -3.6040    7.3010 hc        1 1QA      0.136700
     33 H5         -0.2920   -4.9410    6.1290 hc        1 1QA      0.136700
     34 H6          2.4880   -3.5360    9.0730 hx        1 1QA      0.102700
     35 H8          4.5580   -2.4030    9.4640 ha        1 1QA      0.153000
     36 H9          5.7610   -0.4440   10.4220 ha        1 1QA      0.137000
     37 H10         4.5120    1.6420   10.9800 ha        1 1QA      0.134000
     38 H11         0.8310   -0.2100    9.6390 ha        1 1QA      0.153000
     39 H12         0.9030   -1.7520    7.3300 hn        1 1QA      0.462300
     40 H13         2.0490    1.7640   10.5890 ha        1 1QA      0.137000
     41 H14         1.7830    1.5000    5.3290 ho        1 1QA      0.429000
     42 H142        2.5330   -2.0190    6.9880 hn        1 1QA      0.462300
@<TRIPOS>BOND
     1    1    2 ar  
     2    1   20 ar  
     3    1   29 1   
     4    2    3 ar  
     5    2   17 1   
     6    3   18 ar  
     7    3   30 1   
     8    4   19 1   
     9    4   21 2   
    10    4   22 1   
    11    5    6 2   
    12    5    7 1   
    13    5   21 1   
    14    6   22 1   
    15    6   31 1   
    16    7    8 1   
    17    7   32 1   
    18    7   33 1   
    19    8   23 1   
    20    8   26 2   
    21    9   10 1   
    22    9   12 1   
    23    9   23 1   
    24    9   34 1   
    25   10   11 1   
    26   10   24 1   
    27   12   13 ar  
    28   12   16 ar  
    29   13   14 ar  
    30   13   35 1   
    31   14   15 ar  
    32   14   36 1   
    33   15   25 ar  
    34   15   37 1   
    35   16   25 ar  
    36   16   38 1   
    37   17   28 3   
    38   18   19 ar  
    39   19   20 ar  
    40   20   27 1   
    41   23   39 1   
    42   23   42 1   
    43   25   40 1   
    44   27   41 1   
@<TRIPOS>SUBSTRUCTURE
     1 1QA         1 TEMP              0 ****  ****    0 ROOT
