@<TRIPOS>MOLECULE
1QA
   42    44     1     0     0
SMALL
bcc


@<TRIPOS>ATOM
      1 C1          0.0000    0.0000    0.0000 ca        1 1QA     -0.103000
      2 C2          1.4010    0.0000    0.0000 ca        1 1QA     -0.029300
      3 C3          2.0830    0.0000    1.2200 ca        1 1QA      0.384200
      4 C7         -0.5920    0.0010    3.7060 cc        1 1QA      0.402400
      5 C9         -0.7800    0.0110    5.9280 cd        1 1QA      0.324600
      6 C10        -2.0980    0.0010    5.6880 cc        1 1QA     -0.080400
      7 C12        -0.2220    0.0170    7.3280 c3        1 1QA     -0.087700
      8 C13         0.7210   -1.1450    7.4980 c         1 1QA      0.381100
      9 C15         2.2600   -2.4720    8.8440 c3        1 1QA     -0.102200
     10 C16         1.4770   -3.7040    9.2150 c         1 1QA      0.964600
     11 O17         2.1140   -4.8680    9.4200 o         1 1QA     -0.803800
     12 C19         3.2510   -2.1580    9.9350 ca        1 1QA     -0.135300
     13 C20         4.5770   -2.5230    9.7900 ca        1 1QA     -0.053500
     14 C21         5.4870   -2.2310   10.7870 ca        1 1QA     -0.092000
     15 C22         5.0700   -1.5830   11.9360 ca        1 1QA     -0.115000
     16 C24         2.8340   -1.5110   11.0830 ca        1 1QA     -0.053500
     17 C27         2.1260   -0.0020   -1.2350 cg        1 1QA      0.216800
     18 N4          1.4250    0.0010    2.3580 nb        1 1QA     -0.552000
     19 C5          0.0960    0.0010    2.4010 ca        1 1QA      0.323300
     20 C6         -0.6580    0.0050    1.2190 ca        1 1QA      0.022800
     21 N8         -0.0060    0.0060    4.8700 nd        1 1QA     -0.501000
     22 S11        -2.3380    0.0010    3.9410 ss        1 1QA     -0.272300
     23 N14         1.3430   -1.3420    8.6780 ny        1 1QA     -0.009800
     24 O18         0.2760   -3.6450    9.3310 o         1 1QA     -0.803800
     25 C23         3.7440   -1.2230   12.0830 ca        1 1QA     -0.092000
     26 O25         0.9210   -1.9040    6.5750 o         1 1QA     -0.416100
     27 O26        -2.0150    0.0120    1.2700 oh        1 1QA     -0.452100
     28 N28         2.7120    0.0130   -2.2090 n1        1 1QA     -0.345800
     29 H1         -0.3540   -0.2000   -1.0040 ha        1 1QA      0.143000
     30 H2          2.9710   -0.4380    1.6600 h4        1 1QA      0.029100
     31 H3         -2.9390    0.1440    6.3550 h4        1 1QA      0.164000
     32 H4          0.1640    0.9930    7.5930 hc        1 1QA      0.038700
     33 H5         -0.7200   -0.3230    8.2280 hc        1 1QA      0.038700
     34 H6          2.7890   -2.6470    7.9150 hx        1 1QA      0.094700
     35 H8          4.5990   -2.8530    8.7580 ha        1 1QA      0.104500
     36 H9          6.4760   -2.6680   10.8520 ha        1 1QA      0.115500
     37 H10         5.6040   -1.2310   12.8100 ha        1 1QA      0.112000
     38 H11         1.8350   -1.1010   11.1660 ha        1 1QA      0.104500
     39 H12         0.6240   -1.6980    9.2760 hn        1 1QA      0.303300
     40 H13         3.8690   -0.4180   12.7970 ha        1 1QA      0.115500
     41 H14        -1.9950    0.9390    1.1030 ho        1 1QA      0.412000
     42 H142        1.9600   -0.7320    9.1760 hn        1 1QA      0.303300
@<TRIPOS>BOND
     1    1    2 ar  
     2    1   20 ar  
     3    1   29 1   
     4    2    3 ar  
     5    2   17 1   
     6    3   18 ar  
     7    3   30 1   
     8    4   19 1   
     9    4   21 2   
    10    4   22 1   
    11    5    6 2   
    12    5    7 1   
    13    5   21 1   
    14    6   22 1   
    15    6   31 1   
    16    7    8 1   
    17    7   32 1   
    18    7   33 1   
    19    8   23 1   
    20    8   26 2   
    21    9   10 1   
    22    9   12 1   
    23    9   23 1   
    24    9   34 1   
    25   10   11 1   
    26   10   24 1   
    27   12   13 ar  
    28   12   16 ar  
    29   13   14 ar  
    30   13   35 1   
    31   14   15 ar  
    32   14   36 1   
    33   15   25 ar  
    34   15   37 1   
    35   16   25 ar  
    36   16   38 1   
    37   17   28 3   
    38   18   19 ar  
    39   19   20 ar  
    40   20   27 1   
    41   23   39 1   
    42   23   42 1   
    43   25   40 1   
    44   27   41 1   
@<TRIPOS>SUBSTRUCTURE
     1 1QA         1 TEMP              0 ****  ****    0 ROOT
