@<TRIPOS>MOLECULE
1QA
   41    34     1     0     0
SMALL
bcc


@<TRIPOS>ATOM
      1 C1         -2.3830    1.6450   -6.2870 c1        1 1QA     -0.155000
      2 C2         -3.5580    2.3350   -6.1960 c1        1 1QA     -0.045000
      3 C3         -3.9290    2.9130   -4.9940 c1        1 1QA     -0.058000
      4 C7         -1.0230    2.0330   -2.7950 c1        1 1QA     -0.322000
      5 C9         -0.1300    1.7070   -0.5540 c1        1 1QA     -0.103000
      6 C10         0.8790    2.4530   -1.2670 c1        1 1QA     -0.440000
      7 C12        -0.0550    1.2770    0.8970 c2        1 1QA     -0.116000
      8 C13         0.7770    0.0150    1.0080 c1        1 1QA      0.286000
      9 C15         1.4410   -1.8840    2.4270 c3        1 1QA     -0.055000
     10 C16         0.2260   -2.7340    2.1330 c1        1 1QA      0.326000
     11 O17        -0.9280   -2.2430    2.2470 os        1 1QA     -0.595000
     12 C19         1.9100   -2.1490    3.8420 c2        1 1QA     -0.032000
     13 C20         3.2350   -2.4740    4.0830 c2        1 1QA     -0.124000
     14 C21         3.6500   -2.7870    5.3680 c1        1 1QA     -0.154000
     15 C22         2.7380   -2.7760    6.4120 c1        1 1QA     -0.151000
     16 C24         0.9990   -2.1370    4.8870 c1        1 1QA     -0.100000
     17 C27        -4.4650    2.4460   -7.4030 c1        1 1QA     -0.083000
     18 N4         -3.1230    2.7950   -3.9020 n1        1 1QA     -0.113000
     19 C5         -1.9500    2.1070   -3.9910 c1        1 1QA      0.083000
     20 C6         -1.5760    1.5270   -5.1940 c2        1 1QA      0.055000
     21 N8         -1.3320    1.4450   -1.5300 n2        1 1QA     -0.076000
     22 S11         0.3710    2.6880   -2.6860 ss        1 1QA      0.605000
     23 N14         1.1040   -0.5110    2.2890 n2        1 1QA     -0.317000
     24 O18         0.3670   -3.9420    1.8030 o         1 1QA     -0.531000
     25 C23         1.4130   -2.4510    6.1710 c1        1 1QA     -0.151000
     26 O25         1.1670   -0.5450    0.0030 o         1 1QA     -0.391000
     27 O26        -0.3660    0.8060   -5.1640 oh        1 1QA     -0.205000
     28 N28        -5.1500    2.5300   -8.3130 n1        1 1QA     -0.048000
     29 H1         -2.1200    1.2370   -7.1350 ha        1 1QA      0.146000
     30 H2         -4.7730    3.4010   -4.9270 ha        1 1QA      0.171000
     31 H3          1.7570    2.7040   -0.9240 DU        1 1QA      0.260000
     32 H4          0.3590    1.9870    1.4270 ha        1 1QA      0.113500
     33 H5         -0.9570    1.1030    1.2330 ha        1 1QA      0.113500
     34 H6          2.1560   -2.1090    1.8000 h1        1 1QA      0.126000
     35 H8          3.8760   -2.4860    3.3470 ha        1 1QA      0.137000
     36 H9          4.5780   -3.0370    5.5340 ha        1 1QA      0.110000
     37 H10         3.0230   -3.0300    7.3100 ha        1 1QA      0.110500
     38 H11         0.0610   -1.9120    5.0470 ha        1 1QA      0.171000
     39 H12         1.0850    0.0300    3.0230 hn        1 1QA      0.226000
     40 H13         0.8270   -2.4790    6.9510 ha        1 1QA      0.110500
     41 H14        -0.1820    0.5040   -5.9790 ho        1 1QA      0.214000
@<TRIPOS>BOND
     1    1   20 1   
     2    1   29 1   
     3    2    3 1   
     4    2   17 1   
     5    3   30 1   
     6    4   21 1   
     7    4   22 1   
     8    5    6 1   
     9    5   21 1   
    10    6   22 1   
    11    7    8 1   
    12    7   32 1   
    13    7   33 1   
    14    8   26 1   
    15    9   10 1   
    16    9   12 1   
    17    9   23 1   
    18    9   34 1   
    19   10   24 1   
    20   12   13 1   
    21   12   16 1   
    22   13   14 1   
    23   13   35 1   
    24   14   36 1   
    25   15   25 1   
    26   15   37 1   
    27   16   38 1   
    28   17   28 1   
    29   18   19 1   
    30   19   20 1   
    31   20   27 1   
    32   23   39 1   
    33   25   40 1   
    34   27   41 1   
@<TRIPOS>SUBSTRUCTURE
     1 1QA         1 TEMP              0 ****  ****    0 ROOT
