@<TRIPOS>MOLECULE
1QA
   41    43     1     0     0
SMALL
bcc


@<TRIPOS>ATOM
      1 C1         -6.1660    0.8290    0.4940 ca        1 1QA     -0.100000
      2 C2         -6.7100   -0.2170   -0.2490 ca        1 1QA     -0.120300
      3 C3         -5.8270   -1.1490   -0.8510 ca        1 1QA      0.403200
      4 C7         -2.4860   -0.0470    0.0540 cc        1 1QA      0.238400
      5 C9         -0.4210    0.5390    0.6760 cd        1 1QA      0.337600
      6 C10        -0.1430   -0.4860   -0.2380 cc        1 1QA     -0.259400
      7 C12         0.5830    1.3160    1.4530 c3        1 1QA     -0.186700
      8 C13         1.8650    1.5560    0.6580 c         1 1QA      0.644100
      9 C15         3.7790    0.4220   -0.4180 c3        1 1QA     -0.027000
     10 C16         3.3860   -0.7250   -1.4270 c         1 1QA      0.905600
     11 O17         3.7720   -0.6060   -2.6130 o         1 1QA     -0.825300
     12 C19         5.1460    0.1380    0.1470 ca        1 1QA     -0.034300
     13 C20         5.4650   -1.1500    0.5960 ca        1 1QA     -0.115500
     14 C21         6.7300   -1.4170    1.1170 ca        1 1QA     -0.146500
     15 C22         7.6850   -0.4030    1.1920 ca        1 1QA     -0.151000
     16 C24         6.1070    1.1510    0.2230 ca        1 1QA     -0.115500
     17 C27        -8.1120   -0.3540   -0.4060 cg        1 1QA      0.249800
     18 N4         -4.4990   -1.0780   -0.7410 nb        1 1QA     -0.652000
     19 C5         -3.9460   -0.0640   -0.0170 ca        1 1QA      0.345300
     20 C6         -4.7630    0.9150    0.6190 ca        1 1QA      0.056800
     21 N8         -1.7740    0.7850    0.8400 nd        1 1QA     -0.671000
     22 S11        -1.5260   -1.1160   -0.8730 ss        1 1QA      0.097700
     23 N14         2.7990    0.5380    0.6530 n         1 1QA     -0.502900
     24 O18         2.6860   -1.6840   -0.9780 o         1 1QA     -0.825300
     25 C23         7.3730    0.8790    0.7420 ca        1 1QA     -0.146500
     26 O25         2.0700    2.6760    0.1450 o         1 1QA     -0.621100
     27 O26        -4.3250    1.9700    1.3660 oh        1 1QA     -0.501100
     28 N28        -9.2630   -0.4690   -0.5350 n1        1 1QA     -0.376800
     29 H1         -6.7980    1.5840    0.9840 ha        1 1QA      0.162000
     30 H2         -6.2160   -1.9920   -1.4500 h4        1 1QA      0.032100
     31 H3          0.8630   -0.8490   -0.5280 h4        1 1QA      0.263000
     32 H4          0.1720    2.3250    1.7300 hc        1 1QA      0.073700
     33 H5          0.8070    0.7650    2.4060 hc        1 1QA      0.073700
     34 H6          3.8060    1.3910   -0.9960 h1        1 1QA      0.087700
     35 H8          4.7060   -1.9460    0.5040 ha        1 1QA      0.147500
     36 H9          6.9760   -2.4300    1.4620 ha        1 1QA      0.112500
     37 H10         8.6820   -0.6150    1.6010 ha        1 1QA      0.109000
     38 H11         5.8620    2.1630   -0.1320 ha        1 1QA      0.147500
     39 H12         2.4620   -0.3620    0.9420 hn        1 1QA      0.304500
     40 H13         8.1260    1.6780    0.7950 ha        1 1QA      0.112500
     41 H14        -3.3510    1.9740    1.3960 ho        1 1QA      0.474000
@<TRIPOS>BOND
     1    1    2 ar  
     2    1   20 ar  
     3    1   29 1   
     4    2    3 ar  
     5    2   17 1   
     6    3   18 ar  
     7    3   30 1   
     8    4   19 1   
     9    4   21 2   
    10    4   22 1   
    11    5    6 2   
    12    5    7 1   
    13    5   21 1   
    14    6   22 1   
    15    6   31 1   
    16    7    8 1   
    17    7   32 1   
    18    7   33 1   
    19    8   23 1   
    20    8   26 2   
    21    9   10 1   
    22    9   12 1   
    23    9   23 1   
    24    9   34 1   
    25   10   11 1   
    26   10   24 1   
    27   12   13 ar  
    28   12   16 ar  
    29   13   14 ar  
    30   13   35 1   
    31   14   15 ar  
    32   14   36 1   
    33   15   25 ar  
    34   15   37 1   
    35   16   25 ar  
    36   16   38 1   
    37   17   28 3   
    38   18   19 ar  
    39   19   20 ar  
    40   20   27 1   
    41   23   39 1   
    42   25   40 1   
    43   27   41 1   
@<TRIPOS>SUBSTRUCTURE
     1 1QA         1 TEMP              0 ****  ****    0 ROOT
