@<TRIPOS>MOLECULE
1QB
   26    22     1     0     0
SMALL
bcc


@<TRIPOS>ATOM
      1 O13        -0.9990   -0.2560    3.2120 o         1 1QB     -0.353000
      2 C11         0.2160   -0.2560    3.2120 c1        1 1QB      0.304000
      3 C12         0.9720   -0.2560    4.5230 c3        1 1QB     -0.247000
      4 N10         0.9250   -0.2650    1.9840 n2        1 1QB     -0.330000
      5 C7          0.2160   -0.2740    0.7550 c1        1 1QB      0.012000
      6 C3          0.0480    1.0020   -0.0270 c2        1 1QB     -0.094000
      7 C9         -0.3240   -1.5650    0.2100 c1        1 1QB     -0.202000
      8 C5         -1.1560   -1.5360   -1.0970 c2        1 1QB     -0.069000
      9 C2         -0.6620   -0.4500   -2.0620 c1        1 1QB     -0.083000
     10 C6         -0.6720   -0.4280   -3.4620 c1        1 1QB     -0.156000
     11 C8         -0.0910    0.8300   -3.9610 c1        1 1QB     -0.156000
     12 C4          0.3050    1.8040   -2.7340 c2        1 1QB     -0.094000
     13 C1         -0.0720    0.7940   -1.5340 c2        1 1QB     -0.142000
     14 H1          1.5750   -1.0230    4.5500 hc        1 1QB      0.106000
     15 H2          0.3390   -0.3120    5.2640 hc        1 1QB      0.106000
     16 H3          1.4900    0.5680    4.5990 hc        1 1QB      0.106000
     17 H4          1.8370   -0.2910    1.9840 hn        1 1QB      0.223000
     18 H5         -0.6270    1.6430    0.2680 ha        1 1QB      0.104500
     19 H6          0.8560    1.5130    0.1670 ha        1 1QB      0.104500
     20 H7         -0.3020   -2.3730    0.7570 ha        1 1QB      0.166000
     21 H8         -2.0940   -1.5860   -0.8320 ha        1 1QB      0.101000
     22 H9         -1.0760   -2.3640   -1.6080 ha        1 1QB      0.101000
     23 H10        -1.3990   -0.8580   -3.9520 ha        1 1QB      0.143000
     24 H11        -0.4000    1.2100   -4.8050 ha        1 1QB      0.143000
     25 H12        -0.1470    2.6610   -2.6110 ha        1 1QB      0.104500
     26 H13         1.2430    2.0660   -2.7980 ha        1 1QB      0.104500
@<TRIPOS>BOND
     1    1    2 1   
     2    2    3 1   
     3    3   14 1   
     4    3   15 1   
     5    3   16 1   
     6    4    5 1   
     7    4   17 1   
     8    5    7 1   
     9    6   13 1   
    10    6   18 1   
    11    6   19 1   
    12    7   20 1   
    13    8    9 1   
    14    8   21 1   
    15    8   22 1   
    16    9   13 1   
    17   10   11 1   
    18   10   23 1   
    19   11   24 1   
    20   12   13 1   
    21   12   25 1   
    22   12   26 1   
@<TRIPOS>SUBSTRUCTURE
     1 1QB         1 TEMP              0 ****  ****    0 ROOT
