@<TRIPOS>MOLECULE
1QB
   27    28     1     0     0
SMALL
bcc


@<TRIPOS>ATOM
      1 O13         0.0680    0.3710    0.9410 o         1 1QB     -0.399100
      2 C11         1.0380    0.0470    0.2790 c         1 1QB      0.560100
      3 C12         1.8590   -1.1920    0.3580 c3        1 1QB     -0.184100
      4 N10         1.4780    1.0730   -0.7620 ny        1 1QB     -0.564600
      5 C7          1.0430    0.6810   -2.1120 c2        1 1QB     -0.094200
      6 C3         -0.4280    0.8780   -2.3740 c3        1 1QB      0.028000
      7 C9          1.9340    0.2100   -3.0120 c2        1 1QB     -0.055200
      8 C5          1.5620   -0.2000   -4.3910 c3        1 1QB     -0.009000
      9 C2          0.1160   -0.0920   -4.6310 ce        1 1QB     -0.086200
     10 C6         -0.6010   -0.4720   -5.8540 ce        1 1QB     -0.145000
     11 C8         -1.9260   -0.2150   -5.6760 c2        1 1QB     -0.138200
     12 C4         -2.1650    0.3590   -4.2990 c3        1 1QB     -0.030000
     13 C1         -0.7770    0.3920   -3.7160 c2        1 1QB     -0.167400
     14 H1          2.0750   -1.6100   -0.6570 hc        1 1QB      0.115033
     15 H2          1.2910   -1.9580    0.9530 hc        1 1QB      0.115033
     16 H3          2.8240   -0.9770    0.8860 hc        1 1QB      0.115033
     17 H4          2.4970    1.1700   -0.7320 hn        1 1QB      0.459800
     18 H5         -0.6840    1.9730   -2.2920 hc        1 1QB      0.076200
     19 H6         -1.0350    0.3320   -1.5970 hc        1 1QB      0.076200
     20 H7          3.0100    0.1000   -2.7780 ha        1 1QB      0.143000
     21 H8          2.1260    0.4480   -5.1240 hc        1 1QB      0.102200
     22 H9          1.9080   -1.2600   -4.5610 hc        1 1QB      0.102200
     23 H10        -0.1070   -0.8850   -6.7330 ha        1 1QB      0.162000
     24 H11        -2.7440   -0.3760   -6.3780 ha        1 1QB      0.166000
     25 H12        -2.8480   -0.2940   -3.7010 hc        1 1QB      0.095700
     26 H13        -2.6090    1.3850   -4.3620 hc        1 1QB      0.095700
     27 H102        1.0460    1.9830   -0.5410 hn        1 1QB      0.459800
@<TRIPOS>BOND
     1    1    2 2   
     2    2    3 1   
     3    2    4 1   
     4    3   14 1   
     5    3   15 1   
     6    3   16 1   
     7    4    5 1   
     8    4   17 1   
     9    4   27 1   
    10    5    6 1   
    11    5    7 2   
    12    6   13 1   
    13    6   18 1   
    14    6   19 1   
    15    7    8 1   
    16    7   20 1   
    17    8    9 1   
    18    8   21 1   
    19    8   22 1   
    20    9   10 1   
    21    9   13 2   
    22   10   11 2   
    23   10   23 1   
    24   11   12 1   
    25   11   24 1   
    26   12   13 1   
    27   12   25 1   
    28   12   26 1   
@<TRIPOS>SUBSTRUCTURE
     1 1QB         1 TEMP              0 ****  ****    0 ROOT
