@<TRIPOS>MOLECULE
1QB
   27    28     1     0     0
SMALL
bcc


@<TRIPOS>ATOM
      1 O13         3.3600   -1.1690   -0.3330 o         1 1QB     -0.405100
      2 C11         2.3220   -0.5340   -0.2500 c         1 1QB      0.559100
      3 C12         1.1460   -0.7660    0.6310 c3        1 1QB     -0.183100
      4 N10         2.2350    0.6710   -1.1800 n4        1 1QB     -0.562600
      5 C7          1.4010    0.3850   -2.3590 c2        1 1QB     -0.109200
      6 C3          0.0440    1.0390   -2.3510 c3        1 1QB      0.032000
      7 C9          1.8790   -0.3940   -3.3570 c2        1 1QB     -0.039200
      8 C5          1.1030   -0.7220   -4.5800 c3        1 1QB     -0.014000
      9 C2         -0.2380   -0.1190   -4.5670 ce        1 1QB     -0.078200
     10 C6         -1.2700   -0.2540   -5.6010 ce        1 1QB     -0.144000
     11 C8         -2.3640    0.4580   -5.2160 c2        1 1QB     -0.137200
     12 C4         -2.1110    1.1180   -3.8800 c3        1 1QB     -0.030000
     13 C1         -0.7090    0.6730   -3.5580 c2        1 1QB     -0.174400
     14 H1          1.0380    0.0690    1.3710 hc        1 1QB      0.115700
     15 H2          0.2050   -0.8500    0.0290 hc        1 1QB      0.115700
     16 H3          1.3060   -1.7250    1.1930 hc        1 1QB      0.115700
     17 H4          1.8300    1.4650   -0.6730 hn        1 1QB      0.461300
     18 H5          0.1610    2.1590   -2.3060 hc        1 1QB      0.066700
     19 H6         -0.5320    0.7220   -1.4350 hc        1 1QB      0.066700
     20 H7          2.8900   -0.8420   -3.3190 ha        1 1QB      0.156000
     21 H8          1.6820   -0.3630   -5.4810 hc        1 1QB      0.105700
     22 H9          1.0260   -1.8450   -4.6700 hc        1 1QB      0.105700
     23 H10        -1.1320   -0.8400   -6.5110 ha        1 1QB      0.163000
     24 H11        -3.3100    0.5780   -5.7430 ha        1 1QB      0.166000
     25 H12        -2.1810    2.2320   -3.9620 hc        1 1QB      0.094200
     26 H13        -2.8440    0.7650   -3.1110 hc        1 1QB      0.094200
     27 H102        3.1830    0.9240   -1.4930 hn        1 1QB      0.461300
@<TRIPOS>BOND
     1    1    2 2   
     2    2    3 1   
     3    2    4 1   
     4    3   14 1   
     5    3   15 1   
     6    3   16 1   
     7    4    5 1   
     8    4   17 1   
     9    4   27 1   
    10    5    6 1   
    11    5    7 2   
    12    6   13 1   
    13    6   18 1   
    14    6   19 1   
    15    7    8 1   
    16    7   20 1   
    17    8    9 1   
    18    8   21 1   
    19    8   22 1   
    20    9   10 1   
    21    9   13 2   
    22   10   11 2   
    23   10   23 1   
    24   11   12 1   
    25   11   24 1   
    26   12   13 1   
    27   12   25 1   
    28   12   26 1   
@<TRIPOS>SUBSTRUCTURE
     1 1QB         1 TEMP              0 ****  ****    0 ROOT
