@<TRIPOS>MOLECULE
1QB
   27    28     1     0     0
SMALL
bcc


@<TRIPOS>ATOM
      1 O13         0.1470    0.4540    0.9380 o         1 1QB     -0.399100
      2 C11         1.0880    0.0640    0.2680 c         1 1QB      0.560100
      3 C12         1.8410   -1.2150    0.3590 c3        1 1QB     -0.184100
      4 N10         1.5650    1.0450   -0.8000 n4        1 1QB     -0.564600
      5 C7          1.0860    0.6520   -2.1350 c2        1 1QB     -0.094200
      6 C3         -0.3760    0.9290   -2.3780 c3        1 1QB      0.028000
      7 C9          1.9330    0.1120   -3.0390 c2        1 1QB     -0.055200
      8 C5          1.5140   -0.3020   -4.4040 c3        1 1QB     -0.009000
      9 C2          0.0730   -0.1150   -4.6230 ce        1 1QB     -0.086200
     10 C6         -0.6850   -0.4760   -5.8270 ce        1 1QB     -0.145000
     11 C8         -1.9900   -0.1390   -5.6330 c2        1 1QB     -0.138200
     12 C4         -2.1720    0.4750   -4.2640 c3        1 1QB     -0.030000
     13 C1         -0.7740    0.4380   -3.7040 c2        1 1QB     -0.167400
     14 H1          1.2410   -1.9390    0.9740 hc        1 1QB      0.115033
     15 H2          2.0220   -1.6620   -0.6510 hc        1 1QB      0.115033
     16 H3          2.8230   -1.0430    0.8720 hc        1 1QB      0.115033
     17 H4          2.5890    1.0860   -0.7890 hn        1 1QB      0.459800
     18 H5         -1.0000    0.4340   -1.5810 hc        1 1QB      0.076200
     19 H6         -0.5680    2.0380   -2.3140 hc        1 1QB      0.076200
     20 H7          3.0040   -0.0550   -2.8200 ha        1 1QB      0.143000
     21 H8          1.7950   -1.3840   -4.5570 hc        1 1QB      0.102200
     22 H9          2.1030    0.2960   -5.1590 hc        1 1QB      0.102200
     23 H10        -0.2310   -0.9340   -6.7050 ha        1 1QB      0.162000
     24 H11        -2.8270   -0.2650   -6.3200 ha        1 1QB      0.166000
     25 H12        -2.8820   -0.1260   -3.6430 hc        1 1QB      0.095700
     26 H13        -2.5560    1.5240   -4.3410 hc        1 1QB      0.095700
     27 H102        1.1880    1.9810   -0.5900 hn        1 1QB      0.459800
@<TRIPOS>BOND
     1    1    2 2   
     2    2    3 1   
     3    2    4 1   
     4    3   14 1   
     5    3   15 1   
     6    3   16 1   
     7    4    5 1   
     8    4   17 1   
     9    4   27 1   
    10    5    6 1   
    11    5    7 2   
    12    6   13 1   
    13    6   18 1   
    14    6   19 1   
    15    7    8 1   
    16    7   20 1   
    17    8    9 1   
    18    8   21 1   
    19    8   22 1   
    20    9   10 1   
    21    9   13 2   
    22   10   11 2   
    23   10   23 1   
    24   11   12 1   
    25   11   24 1   
    26   12   13 1   
    27   12   25 1   
    28   12   26 1   
@<TRIPOS>SUBSTRUCTURE
     1 1QB         1 TEMP              0 ****  ****    0 ROOT
