@<TRIPOS>MOLECULE
1QB
   26    27     1     0     0
SMALL
bcc


@<TRIPOS>ATOM
      1 O13         2.5990    1.6250   -0.0180 o         1 1QB     -0.595100
      2 C11         3.0170    0.4520   -0.0360 c         1 1QB      0.664100
      3 C12         4.4990    0.1530   -0.0530 c3        1 1QB     -0.179100
      4 N10         2.1730   -0.6500   -0.0430 n         1 1QB     -0.490100
      5 C7          0.7650   -0.6400   -0.0310 c2        1 1QB      0.048400
      6 C3          0.0710    0.6990   -0.0080 c3        1 1QB      0.016000
      7 C9          0.0870   -1.8180   -0.0400 c2        1 1QB     -0.255200
      8 C5         -1.3920   -1.9460   -0.0290 c3        1 1QB      0.033000
      9 C2         -2.0610   -0.6360   -0.0070 ce        1 1QB     -0.106200
     10 C6         -3.5060   -0.3750    0.0090 ce        1 1QB     -0.131000
     11 C8         -3.7070    0.9700    0.0270 c2        1 1QB     -0.188200
     12 C4         -2.3780    1.6900    0.0250 c3        1 1QB     -0.029000
     13 C1         -1.3900    0.5530    0.0020 c2        1 1QB     -0.135400
     14 H1          5.0560    1.1220   -0.0450 hc        1 1QB      0.068367
     15 H2          4.7900   -0.4390    0.8470 hc        1 1QB      0.068367
     16 H3          4.7750   -0.4160   -0.9730 hc        1 1QB      0.068367
     17 H4          2.6010   -1.5480   -0.0580 hn        1 1QB      0.312500
     18 H5          0.4060    1.2780    0.8990 hc        1 1QB      0.082700
     19 H6          0.3900    1.3010   -0.9060 hc        1 1QB      0.082700
     20 H7          0.6160   -2.7850   -0.0570 ha        1 1QB      0.118000
     21 H8         -1.7190   -2.5250   -0.9390 hc        1 1QB      0.053700
     22 H9         -1.7030   -2.5480    0.8700 hc        1 1QB      0.053700
     23 H10        -4.2530   -1.1670    0.0050 ha        1 1QB      0.141000
     24 H11        -4.6510    1.5100    0.0420 ha        1 1QB      0.141000
     25 H12        -2.2710    2.3420   -0.8770 hc        1 1QB      0.079700
     26 H13        -2.2560    2.3190    0.9420 hc        1 1QB      0.079700
@<TRIPOS>BOND
     1    1    2 2   
     2    2    3 1   
     3    2    4 1   
     4    3   14 1   
     5    3   15 1   
     6    3   16 1   
     7    4    5 1   
     8    4   17 1   
     9    5    6 1   
    10    5    7 2   
    11    6   13 1   
    12    6   18 1   
    13    6   19 1   
    14    7    8 1   
    15    7   20 1   
    16    8    9 1   
    17    8   21 1   
    18    8   22 1   
    19    9   10 1   
    20    9   13 2   
    21   10   11 2   
    22   10   23 1   
    23   11   12 1   
    24   11   24 1   
    25   12   13 1   
    26   12   25 1   
    27   12   26 1   
@<TRIPOS>SUBSTRUCTURE
     1 1QB         1 TEMP              0 ****  ****    0 ROOT
