@<TRIPOS>MOLECULE
1QC
   63    65     1     0     0
SMALL
bcc


@<TRIPOS>ATOM
      1 CAC         1.6200    0.6530   -3.2090 c3        1 1QC     -0.469300
      2 SBH         1.5930    0.3480   -1.5950 s6        1 1QC      1.415900
      3 OAF         0.3200    0.2780   -1.0690 o         1 1QC     -0.562800
      4 OAG         2.5920   -0.5140   -1.1890 o         1 1QC     -0.562800
      5 NAT         2.2500    1.9840   -0.9880 n4        1 1QC     -0.723900
      6 CAM         1.6110    2.4580    0.2640 c3        1 1QC      0.073800
      7 CAN         1.8550    3.9480    0.5460 c3        1 1QC      0.103400
      8 OAV         1.4120    4.7130   -0.5740 os        1 1QC     -0.331900
      9 CBD         2.4310    5.2120   -1.3810 ca        1 1QC      0.031100
     10 CAK         3.4030    6.0810   -0.8800 ca        1 1QC     -0.107000
     11 CBC         2.3910    4.8990   -2.7550 ca        1 1QC      0.043100
     12 OAU         1.4940    3.9450   -3.2240 os        1 1QC     -0.412900
     13 CAB         0.1930    4.4830   -3.5100 c3        1 1QC      0.116700
     14 CAI         3.3080    5.4870   -3.6310 ca        1 1QC     -0.108000
     15 CAH         4.2880    6.3400   -3.1280 ca        1 1QC     -0.115000
     16 CBA         4.3500    6.6330   -1.7560 ca        1 1QC     -0.071500
     17 CBG         5.4020    7.4950   -1.2410 cc        1 1QC      0.374900
     18 NAS         5.8380    7.4490    0.0290 nd        1 1QC     -0.603000
     19 SAX         6.2040    8.6510   -2.2190 ss        1 1QC     -0.023300
     20 CBF         7.1780    9.1150   -0.9410 cc        1 1QC     -0.147700
     21 CAO         8.2060   10.1630   -1.0480 c3        1 1QC     -0.018100
     22 CAL         9.6110    9.5850   -1.1070 c3        1 1QC     -0.086400
     23 CAA        10.6450   10.6790   -1.1210 c3        1 1QC     -0.094100
     24 CBE         6.8590    8.3710    0.2070 cd        1 1QC      0.339600
     25 CAP         7.5200    8.5300    1.5220 c3        1 1QC     -0.055600
     26 SAW         8.7760    7.2730    1.5860 ss        1 1QC     -0.220400
     27 C2          9.4540    7.4050    3.1800 ca        1 1QC      0.797300
     28 N3         10.4170    6.4820    3.4460 nb        1 1QC     -0.803000
     29 N1          8.9940    8.3900    3.9970 nb        1 1QC     -0.803000
     30 C6          9.5590    8.4480    5.2540 ca        1 1QC      0.717700
     31 NAD         9.0760    9.3740    6.1680 nh        1 1QC     -0.945500
     32 C5         10.5860    7.5420    5.6410 ca        1 1QC     -0.504600
     33 C4         10.9820    6.5460    4.7020 ca        1 1QC      0.717700
     34 NAE        11.9140    5.5870    5.0700 nh        1 1QC     -0.945500
     35 H1          2.6340    0.5550   -3.6900 h1        1 1QC      0.178367
     36 H2          1.2380    1.6600   -3.5500 h1        1 1QC      0.178367
     37 H3          0.9720   -0.0730   -3.7870 h1        1 1QC      0.178367
     38 H4          3.2580    1.9210   -0.8300 hn        1 1QC      0.469300
     39 H5          2.0030    1.8520    1.1290 hx        1 1QC      0.120200
     40 H6          0.4970    2.2880    0.1670 hx        1 1QC      0.120200
     41 H7          2.9260    4.1500    0.8040 h1        1 1QC      0.098700
     42 H8          1.1880    4.2590    1.3980 h1        1 1QC      0.098700
     43 H9          3.4180    6.3320    0.1930 ha        1 1QC      0.178000
     44 H10        -0.2580    4.8920   -2.5720 h1        1 1QC      0.059033
     45 H11        -0.3810    3.6030   -3.8910 h1        1 1QC      0.059033
     46 H12         0.2730    5.2760   -4.2910 h1        1 1QC      0.059033
     47 H13         3.2550    5.2640   -4.7070 ha        1 1QC      0.163000
     48 H14         5.0240    6.7860   -3.8170 ha        1 1QC      0.159000
     49 H19         8.1280   10.8530   -0.1610 hc        1 1QC      0.062700
     50 H20         8.0240   10.7880   -1.9640 hc        1 1QC      0.062700
     51 H21         9.7710    8.9120   -0.2190 hc        1 1QC      0.055200
     52 H22         9.7170    8.9520   -2.0270 hc        1 1QC      0.055200
     53 H23        10.5030   11.3490   -2.0040 hc        1 1QC      0.039367
     54 H24        10.5780   11.3000   -0.1950 hc        1 1QC      0.039367
     55 H25        11.6690   10.2370   -1.1750 hc        1 1QC      0.039367
     56 H26         6.7910    8.4120    2.3640 h1        1 1QC      0.097700
     57 H27         7.9740    9.5490    1.6060 h1        1 1QC      0.097700
     58 H28         8.5040   10.1130    5.8340 hn        1 1QC      0.425300
     59 H29         9.6720    9.5830    6.9340 hn        1 1QC      0.425300
     60 H30        11.0370    7.5920    6.6370 ha        1 1QC      0.151000
     61 H31        12.4980    5.8140    5.8380 hn        1 1QC      0.425300
     62 H32        12.3070    5.0140    4.3610 hn        1 1QC      0.425300
     63 HAT2        2.1050    2.7190   -1.6950 hn        1 1QC      0.469300
@<TRIPOS>BOND
     1    1    2 1   
     2    1   35 1   
     3    1   36 1   
     4    1   37 1   
     5    2    3 2   
     6    2    4 2   
     7    2    5 1   
     8    5    6 1   
     9    5   38 1   
    10    5   63 1   
    11    6    7 1   
    12    6   39 1   
    13    6   40 1   
    14    7    8 1   
    15    7   41 1   
    16    7   42 1   
    17    8    9 1   
    18    9   10 ar  
    19    9   11 ar  
    20   10   16 ar  
    21   10   43 1   
    22   11   12 1   
    23   11   14 ar  
    24   12   13 1   
    25   13   44 1   
    26   13   45 1   
    27   13   46 1   
    28   14   15 ar  
    29   14   47 1   
    30   15   16 ar  
    31   15   48 1   
    32   16   17 1   
    33   17   18 2   
    34   17   19 1   
    35   18   24 1   
    36   19   20 1   
    37   20   21 1   
    38   20   24 2   
    39   21   22 1   
    40   21   49 1   
    41   21   50 1   
    42   22   23 1   
    43   22   51 1   
    44   22   52 1   
    45   23   53 1   
    46   23   54 1   
    47   23   55 1   
    48   24   25 1   
    49   25   26 1   
    50   25   56 1   
    51   25   57 1   
    52   26   27 1   
    53   27   28 ar  
    54   27   29 ar  
    55   28   33 ar  
    56   29   30 ar  
    57   30   31 1   
    58   30   32 ar  
    59   31   58 1   
    60   31   59 1   
    61   32   33 ar  
    62   32   60 1   
    63   33   34 1   
    64   34   61 1   
    65   34   62 1   
@<TRIPOS>SUBSTRUCTURE
     1 1QC         1 TEMP              0 ****  ****    0 ROOT
