@<TRIPOS>MOLECULE
1QC
   63    65     1     0     0
SMALL
bcc


@<TRIPOS>ATOM
      1 CAC         1.6070    0.6560   -3.1970 c3        1 1QC     -0.469300
      2 SBH         1.5740    0.3580   -1.5810 s6        1 1QC      1.415900
      3 OAF         0.2990    0.2950   -1.0590 o         1 1QC     -0.562800
      4 OAG         2.5690   -0.5060   -1.1690 o         1 1QC     -0.562800
      5 NAT         2.2360    1.9950   -0.9780 ny        1 1QC     -0.723900
      6 CAM         1.5940    2.4760    0.2690 c3        1 1QC      0.073800
      7 CAN         1.8430    3.9660    0.5470 c3        1 1QC      0.103400
      8 OAV         1.4050    4.7280   -0.5780 os        1 1QC     -0.331900
      9 CBD         2.4280    5.2200   -1.3850 ca        1 1QC      0.031100
     10 CAK         3.4020    6.0870   -0.8850 ca        1 1QC     -0.107000
     11 CBC         2.3910    4.9010   -2.7570 ca        1 1QC      0.043100
     12 OAU         1.4900    3.9490   -3.2250 os        1 1QC     -0.412900
     13 CAB         0.1930    4.4900   -3.5150 c3        1 1QC      0.116700
     14 CAI         3.3120    5.4820   -3.6330 ca        1 1QC     -0.108000
     15 CAH         4.2940    6.3320   -3.1310 ca        1 1QC     -0.115000
     16 CBA         4.3540    6.6310   -1.7610 ca        1 1QC     -0.071500
     17 CBG         5.4090    7.4900   -1.2460 cc        1 1QC      0.374900
     18 NAS         5.8420    7.4470    0.0240 nd        1 1QC     -0.603000
     19 SAX         6.2160    8.6410   -2.2270 ss        1 1QC     -0.023300
     20 CBF         7.1900    9.1050   -0.9480 cc        1 1QC     -0.147700
     21 CAO         8.2230   10.1490   -1.0560 c3        1 1QC     -0.018100
     22 CAL         9.6250    9.5640   -1.1120 c3        1 1QC     -0.086400
     23 CAA        10.6640   10.6550   -1.1270 c3        1 1QC     -0.094100
     24 CBE         6.8660    8.3660    0.2020 cd        1 1QC      0.339600
     25 CAP         7.5250    8.5260    1.5170 c3        1 1QC     -0.055600
     26 SAW         8.7760    7.2650    1.5880 ss        1 1QC     -0.220400
     27 C2          9.4520    7.3980    3.1820 ca        1 1QC      0.797300
     28 N3         10.4110    6.4730    3.4530 nb        1 1QC     -0.803000
     29 N1          8.9940    8.3870    3.9950 nb        1 1QC     -0.803000
     30 C6          9.5570    8.4470    5.2530 ca        1 1QC      0.717700
     31 NAD         9.0760    9.3770    6.1650 nv        1 1QC     -0.945500
     32 C5         10.5790    7.5380    5.6450 ca        1 1QC     -0.504600
     33 C4         10.9750    6.5390    4.7100 ca        1 1QC      0.717700
     34 NAE        11.9020    5.5770    5.0820 nv        1 1QC     -0.945500
     35 H1          2.6220    0.5530   -3.6740 h1        1 1QC      0.178367
     36 H2          1.2300    1.6640   -3.5420 h1        1 1QC      0.178367
     37 H3          0.9580   -0.0690   -3.7730 h1        1 1QC      0.178367
     38 H4          3.2430    1.9290   -0.8170 hn        1 1QC      0.469300
     39 H5          0.4800    2.3090    0.1700 hx        1 1QC      0.120200
     40 H6          1.9810    1.8720    1.1390 hx        1 1QC      0.120200
     41 H7          1.1740    4.2830    1.3950 h1        1 1QC      0.098700
     42 H8          2.9140    4.1650    0.8070 h1        1 1QC      0.098700
     43 H9          3.4170    6.3420    0.1880 ha        1 1QC      0.178000
     44 H10        -0.2590    4.9040   -2.5800 h1        1 1QC      0.059033
     45 H11         0.2770    5.2810   -4.2990 h1        1 1QC      0.059033
     46 H12        -0.3840    3.6110   -3.8950 h1        1 1QC      0.059033
     47 H13         3.2610    5.2540   -4.7090 ha        1 1QC      0.163000
     48 H14         5.0340    6.7730   -3.8210 ha        1 1QC      0.159000
     49 H19         8.1460   10.8410   -0.1720 hc        1 1QC      0.062700
     50 H20         8.0450   10.7710   -1.9750 hc        1 1QC      0.062700
     51 H21         9.7300    8.9280   -2.0300 hc        1 1QC      0.055200
     52 H22         9.7810    8.8940   -0.2210 hc        1 1QC      0.055200
     53 H23        10.5980   11.2780   -0.2030 hc        1 1QC      0.039367
     54 H24        11.6860   10.2080   -1.1780 hc        1 1QC      0.039367
     55 H25        10.5260   11.3230   -2.0120 hc        1 1QC      0.039367
     56 H26         7.9840    9.5440    1.5990 h1        1 1QC      0.097700
     57 H27         6.7950    8.4140    2.3580 h1        1 1QC      0.097700
     58 H28         8.5070   10.1170    5.8270 hn        1 1QC      0.425300
     59 H29         9.6700    9.5870    6.9300 hn        1 1QC      0.425300
     60 H30        11.0300    7.5890    6.6420 ha        1 1QC      0.151000
     61 H31        12.4860    5.8040    5.8510 hn        1 1QC      0.425300
     62 H32        12.2940    5.0010    4.3750 hn        1 1QC      0.425300
     63 HAT2        2.0950    2.7270   -1.6890 hn        1 1QC      0.469300
@<TRIPOS>BOND
     1    1    2 1   
     2    1   35 1   
     3    1   36 1   
     4    1   37 1   
     5    2    3 2   
     6    2    4 2   
     7    2    5 1   
     8    5    6 1   
     9    5   38 1   
    10    5   63 1   
    11    6    7 1   
    12    6   39 1   
    13    6   40 1   
    14    7    8 1   
    15    7   41 1   
    16    7   42 1   
    17    8    9 1   
    18    9   10 ar  
    19    9   11 ar  
    20   10   16 ar  
    21   10   43 1   
    22   11   12 1   
    23   11   14 ar  
    24   12   13 1   
    25   13   44 1   
    26   13   45 1   
    27   13   46 1   
    28   14   15 ar  
    29   14   47 1   
    30   15   16 ar  
    31   15   48 1   
    32   16   17 1   
    33   17   18 2   
    34   17   19 1   
    35   18   24 1   
    36   19   20 1   
    37   20   21 1   
    38   20   24 2   
    39   21   22 1   
    40   21   49 1   
    41   21   50 1   
    42   22   23 1   
    43   22   51 1   
    44   22   52 1   
    45   23   53 1   
    46   23   54 1   
    47   23   55 1   
    48   24   25 1   
    49   25   26 1   
    50   25   56 1   
    51   25   57 1   
    52   26   27 1   
    53   27   28 ar  
    54   27   29 ar  
    55   28   33 ar  
    56   29   30 ar  
    57   30   31 1   
    58   30   32 ar  
    59   31   58 1   
    60   31   59 1   
    61   32   33 ar  
    62   32   60 1   
    63   33   34 1   
    64   34   61 1   
    65   34   62 1   
@<TRIPOS>SUBSTRUCTURE
     1 1QC         1 TEMP              0 ****  ****    0 ROOT
