@<TRIPOS>MOLECULE
1QC
   65    67     1     0     0
SMALL
bcc


@<TRIPOS>ATOM
      1 CAC        -1.6080    0.2800   -1.8310 c3        1 1QC     -0.474300
      2 SBH        -0.3690    0.7790   -0.8770 s6        1 1QC      1.418900
      3 OAF        -0.7680    1.5620    0.1840 o         1 1QC     -0.557300
      4 OAG         0.6480   -0.1430   -0.7650 o         1 1QC     -0.557300
      5 NAT         0.4010    2.0250   -2.0610 n4        1 1QC     -0.712900
      6 CAM         0.2160    3.4490   -1.6830 c3        1 1QC      0.085800
      7 CAN         1.1350    3.8930   -0.5350 c3        1 1QC      0.099400
      8 OAV         2.4650    3.4250   -0.7440 os        1 1QC     -0.335900
      9 CBD         3.2900    4.2890   -1.4560 ca        1 1QC      0.031100
     10 CAK         4.0320    5.2520   -0.7640 ca        1 1QC     -0.054000
     11 CBC         3.4770    4.1000   -2.8440 ca        1 1QC      0.137100
     12 OAU         2.6810    3.1480   -3.4480 os        1 1QC     -0.383900
     13 CAB         3.0770    2.7450   -4.7650 c3        1 1QC      0.110700
     14 CAI         4.4180    4.8820   -3.5260 ca        1 1QC     -0.173000
     15 CAH         5.1510    5.8410   -2.8340 ca        1 1QC     -0.068000
     16 CBA         4.9630    6.0360   -1.4570 ca        1 1QC     -0.163500
     17 CBG         5.7310    7.0630   -0.7670 cc        1 1QC      0.432900
     18 NAS         6.3060    6.9280    0.4340 nd        1 1QC     -0.602000
     19 SAX         5.9510    8.6100   -1.4880 ss        1 1QC      0.063700
     20 CBF         6.8490    9.1380   -0.1940 cc        1 1QC     -0.146700
     21 CAO         7.4180   10.4930   -0.1010 c3        1 1QC     -0.032100
     22 CAL         8.9140   10.5100   -0.3670 c3        1 1QC     -0.071400
     23 CAA         9.4850   11.8900   -0.1650 c3        1 1QC     -0.102100
     24 CBE         6.9500    8.1180    0.7710 cd        1 1QC      0.248600
     25 CAP         7.6220    8.2680    2.0760 c3        1 1QC     -0.077600
     26 SAW         9.2320    7.6030    1.7380 ss        1 1QC      0.141600
     27 C2         10.1470    7.7140    3.1200 ca        1 1QC      0.719300
     28 N3         11.4540    7.2340    3.0180 nb        1 1QC     -0.690000
     29 N1          9.6290    8.2550    4.2890 nb        1 1QC     -0.690000
     30 C6         10.4490    8.3090    5.3560 ca        1 1QC      0.590200
     31 NAD         9.9010    8.8900    6.6060 n4        1 1QC     -0.834800
     32 C5         11.7910    7.8520    5.3600 ca        1 1QC     -0.429600
     33 C4         12.2220    7.3150    4.1120 ca        1 1QC      0.590200
     34 NAE        13.6110    6.8080    4.0060 n4        1 1QC     -0.834800
     35 H1         -2.3400    1.0710   -2.1540 h1        1 1QC      0.179033
     36 H2         -2.2720   -0.4720   -1.2990 h1        1 1QC      0.179033
     37 H3         -1.3170   -0.2660   -2.7710 h1        1 1QC      0.179033
     38 H4          1.4220    1.8630   -2.0950 hn        1 1QC      0.467300
     39 H5         -0.8570    3.6060   -1.3720 hx        1 1QC      0.108700
     40 H6          0.4370    4.0850   -2.5900 hx        1 1QC      0.108700
     41 H7          0.8250    3.4180    0.4390 h1        1 1QC      0.102700
     42 H8          1.0850    5.0090   -0.4500 h1        1 1QC      0.102700
     43 H9          3.8860    5.3720    0.3210 ha        1 1QC      0.168000
     44 H10         4.1490    2.4340   -4.7770 h1        1 1QC      0.063700
     45 H11         2.4090    1.8730   -4.9810 h1        1 1QC      0.063700
     46 H12         2.8900    3.5760   -5.4890 h1        1 1QC      0.063700
     47 H13         4.5870    4.7450   -4.6060 ha        1 1QC      0.167000
     48 H14         5.8920    6.4480   -3.3820 ha        1 1QC      0.155000
     49 H19         7.2130   10.9190    0.9200 hc        1 1QC      0.074700
     50 H20         6.9100   11.1750   -0.8390 hc        1 1QC      0.074700
     51 H21         9.1140   10.1700   -1.4170 hc        1 1QC      0.036200
     52 H22         9.4200    9.7770    0.3210 hc        1 1QC      0.036200
     53 H23         9.3260   12.2390    0.8830 hc        1 1QC      0.048700
     54 H24         8.9980   12.6230   -0.8550 hc        1 1QC      0.048700
     55 H25        10.5820   11.8880   -0.3780 hc        1 1QC      0.048700
     56 H26         7.6720    9.3450    2.3760 h1        1 1QC      0.113200
     57 H27         7.1000    7.6980    2.8870 h1        1 1QC      0.113200
     58 H28        10.4320    9.7400    6.8430 hn        1 1QC      0.493633
     59 H29         8.9040    9.1380    6.4980 hn        1 1QC      0.493633
     60 H30        12.4420    7.9060    6.2420 ha        1 1QC      0.195000
     61 H31        13.7500    6.0540    4.6930 hn        1 1QC      0.493633
     62 H32        14.2670    7.5780    4.2000 hn        1 1QC      0.493633
     63 HAT2        0.0630    1.9070   -3.0140 hn        1 1QC      0.467300
     64 HAD3        9.9950    8.2020    7.3660 hn        1 1QC      0.493633
     65 HAE3       13.8020    6.4370    3.0580 hn        1 1QC      0.493633
@<TRIPOS>BOND
     1    1    2 1   
     2    1   35 1   
     3    1   36 1   
     4    1   37 1   
     5    2    3 2   
     6    2    4 2   
     7    2    5 1   
     8    5    6 1   
     9    5   38 1   
    10    5   63 1   
    11    6    7 1   
    12    6   39 1   
    13    6   40 1   
    14    7    8 1   
    15    7   41 1   
    16    7   42 1   
    17    8    9 1   
    18    9   10 ar  
    19    9   11 ar  
    20   10   16 ar  
    21   10   43 1   
    22   11   12 1   
    23   11   14 ar  
    24   12   13 1   
    25   13   44 1   
    26   13   45 1   
    27   13   46 1   
    28   14   15 ar  
    29   14   47 1   
    30   15   16 ar  
    31   15   48 1   
    32   16   17 1   
    33   17   18 2   
    34   17   19 1   
    35   18   24 1   
    36   19   20 1   
    37   20   21 1   
    38   20   24 2   
    39   21   22 1   
    40   21   49 1   
    41   21   50 1   
    42   22   23 1   
    43   22   51 1   
    44   22   52 1   
    45   23   53 1   
    46   23   54 1   
    47   23   55 1   
    48   24   25 1   
    49   25   26 1   
    50   25   56 1   
    51   25   57 1   
    52   26   27 1   
    53   27   28 ar  
    54   27   29 ar  
    55   28   33 ar  
    56   29   30 ar  
    57   30   31 1   
    58   30   32 ar  
    59   31   58 1   
    60   31   59 1   
    61   31   64 1   
    62   32   33 ar  
    63   32   60 1   
    64   33   34 1   
    65   34   61 1   
    66   34   62 1   
    67   34   65 1   
@<TRIPOS>SUBSTRUCTURE
     1 1QC         1 TEMP              0 ****  ****    0 ROOT
