@<TRIPOS>MOLECULE
1QE
   52    55     1     0     0
SMALL
bcc


@<TRIPOS>ATOM
      1 N08        -0.1990   -0.2160    0.1150 n2        1 1QE     -0.804100
      2 C06         1.0980   -0.1900    0.0840 ce        1 1QE      0.684300
      3 C05         1.9550   -0.1550    1.2900 cc        1 1QE     -0.225000
      4 S01         3.3550   -1.0530    1.4860 ss        1 1QE      0.082700
      5 C02         3.6370   -0.4840    3.0210 cc        1 1QE     -0.174600
      6 C03         2.6660    0.4090    3.4290 cd        1 1QE     -0.162500
      7 C04         1.6790    0.6020    2.4180 cd        1 1QE     -0.117500
      8 N07         1.8560   -0.2410   -1.1230 nu        1 1QE     -0.712600
      9 C11         1.2190   -0.2790   -2.3880 ca        1 1QE      0.127100
     10 C16         1.6280    0.6120   -3.4050 ca        1 1QE     -0.171000
     11 C12         0.2510   -1.2590   -2.6900 ca        1 1QE     -0.137500
     12 C13        -0.2820   -1.3340   -3.9730 ca        1 1QE     -0.109000
     13 C14         0.1310   -0.4570   -4.9730 ca        1 1QE     -0.146500
     14 C15         1.0910    0.5200   -4.6900 ca        1 1QE     -0.057800
     15 C17         1.5400    1.4560   -5.7580 c3        1 1QE     -0.035100
     16 C37         0.4950    2.5270   -6.0300 c3        1 1QE     -0.035100
     17 C35         0.9410    3.4650   -7.0980 ca        1 1QE     -0.057800
     18 C34         1.9260    4.4210   -6.8250 ca        1 1QE     -0.146500
     19 C33         2.3300    5.3060   -7.8200 ca        1 1QE     -0.109000
     20 C32         1.7670    5.2560   -9.0920 ca        1 1QE     -0.137500
     21 C36         0.3770    3.3970   -8.3730 ca        1 1QE     -0.171000
     22 C31         0.7810    4.2910   -9.3900 ca        1 1QE      0.127100
     23 N27         0.1490    4.2660  -10.6500 nu        1 1QE     -0.712600
     24 C26         0.9200    4.1790  -11.8540 ce        1 1QE      0.684300
     25 N28         2.2080    4.1730  -11.9880 n2        1 1QE     -0.804100
     26 C25         0.0710    4.1370  -13.0620 cc        1 1QE     -0.225000
     27 S21        -1.3750    4.9820  -13.2230 ss        1 1QE      0.082700
     28 C22        -1.6420    4.4380  -14.7730 cc        1 1QE     -0.174600
     29 C23        -0.6330    3.6070  -15.2120 cd        1 1QE     -0.162500
     30 C24         0.3740    3.4320  -14.2140 cd        1 1QE     -0.117500
     31 H1         -0.5850   -0.2510    1.0340 hn        1 1QE      0.399400
     32 H2          4.4930   -0.7950    3.6200 h4        1 1QE      0.174000
     33 H3          2.6390    0.9140    4.3970 ha        1 1QE      0.157500
     34 H4          0.8230    1.2710    2.5330 ha        1 1QE      0.163500
     35 H5          2.6270    0.3990   -1.0950 hn        1 1QE      0.414300
     36 H6          2.3810    1.3880   -3.1950 ha        1 1QE      0.130000
     37 H7         -0.0920   -1.9640   -1.9180 ha        1 1QE      0.147500
     38 H8         -1.0400   -2.1010   -4.1970 ha        1 1QE      0.134000
     39 H9         -0.2950   -0.5290   -5.9840 ha        1 1QE      0.132500
     40 H10         2.5060    1.9480   -5.4660 hc        1 1QE      0.053700
     41 H11         1.7340    0.8780   -6.7020 hc        1 1QE      0.053700
     42 H12         0.3020    3.1060   -5.0870 hc        1 1QE      0.053700
     43 H13        -0.4710    2.0350   -6.3210 hc        1 1QE      0.053700
     44 H14         2.3740    4.4720   -5.8220 ha        1 1QE      0.132500
     45 H15         3.0990    6.0630   -7.6000 ha        1 1QE      0.134000
     46 H16         2.0800    5.9910   -9.8500 ha        1 1QE      0.147500
     47 H17        -0.3970    2.6400   -8.5770 ha        1 1QE      0.130000
     48 H18        -0.6890    3.7230  -10.6720 hn        1 1QE      0.414300
     49 H19         2.7500    4.1820  -11.1490 hn        1 1QE      0.399400
     50 H20        -2.5180    4.7240  -15.3540 h4        1 1QE      0.174000
     51 H21        -0.5870    3.1340  -16.1950 ha        1 1QE      0.157500
     52 H22         1.2700    2.8230  -14.3560 ha        1 1QE      0.163500
@<TRIPOS>BOND
     1    1    2 2   
     2    1   31 1   
     3    2    3 1   
     4    2    8 1   
     5    3    4 1   
     6    3    7 2   
     7    4    5 1   
     8    5    6 2   
     9    5   32 1   
    10    6    7 1   
    11    6   33 1   
    12    7   34 1   
    13    8    9 1   
    14    8   35 1   
    15    9   10 ar  
    16    9   11 ar  
    17   10   14 ar  
    18   10   36 1   
    19   11   12 ar  
    20   11   37 1   
    21   12   13 ar  
    22   12   38 1   
    23   13   14 ar  
    24   13   39 1   
    25   14   15 1   
    26   15   16 1   
    27   15   40 1   
    28   15   41 1   
    29   16   17 1   
    30   16   42 1   
    31   16   43 1   
    32   17   18 ar  
    33   17   21 ar  
    34   18   19 ar  
    35   18   44 1   
    36   19   20 ar  
    37   19   45 1   
    38   20   22 ar  
    39   20   46 1   
    40   21   22 ar  
    41   21   47 1   
    42   22   23 1   
    43   23   24 1   
    44   23   48 1   
    45   24   25 2   
    46   24   26 1   
    47   25   49 1   
    48   26   27 1   
    49   26   30 2   
    50   27   28 1   
    51   28   29 2   
    52   28   50 1   
    53   29   30 1   
    54   29   51 1   
    55   30   52 1   
@<TRIPOS>SUBSTRUCTURE
     1 1QE         1 TEMP              0 ****  ****    0 ROOT
