@<TRIPOS>MOLECULE
1QE
   52    55     1     0     0
SMALL
bcc


@<TRIPOS>ATOM
      1 N08        -0.2030   -0.2200    0.1100 n2        1 1QE     -0.804100
      2 C06         1.0940   -0.1880    0.0830 ce        1 1QE      0.684300
      3 C05         1.9470   -0.1440    1.2920 cc        1 1QE     -0.225000
      4 S01         3.3500   -1.0350    1.4960 ss        1 1QE      0.082700
      5 C02         3.6250   -0.4590    3.0300 cc        1 1QE     -0.174600
      6 C03         2.6490    0.4320    3.4310 cd        1 1QE     -0.162500
      7 C04         1.6640    0.6170    2.4160 cd        1 1QE     -0.117500
      8 N07         1.8560   -0.2400   -1.1210 nh        1 1QE     -0.712600
      9 C11         1.2240   -0.2840   -2.3870 ca        1 1QE      0.127100
     10 C16         1.6320    0.6060   -3.4060 ca        1 1QE     -0.171000
     11 C12         0.2600   -1.2680   -2.6900 ca        1 1QE     -0.138000
     12 C13        -0.2690   -1.3490   -3.9740 ca        1 1QE     -0.109000
     13 C14         0.1440   -0.4730   -4.9750 ca        1 1QE     -0.146500
     14 C15         1.0990    0.5080   -4.6920 ca        1 1QE     -0.057800
     15 C17         1.5480    1.4430   -5.7620 c3        1 1QE     -0.035100
     16 C37         0.5040    2.5150   -6.0330 c3        1 1QE     -0.035100
     17 C35         0.9500    3.4530   -7.1010 ca        1 1QE     -0.057800
     18 C34         1.9400    4.4040   -6.8280 ca        1 1QE     -0.146500
     19 C33         2.3440    5.2910   -7.8220 ca        1 1QE     -0.109000
     20 C32         1.7770    5.2460   -9.0920 ca        1 1QE     -0.138000
     21 C36         0.3820    3.3900   -8.3730 ca        1 1QE     -0.171000
     22 C31         0.7860    4.2860   -9.3890 ca        1 1QE      0.127100
     23 N27         0.1500    4.2670  -10.6480 nh        1 1QE     -0.712600
     24 C26         0.9160    4.1810  -11.8540 ce        1 1QE      0.684300
     25 N28         2.2040    4.1700  -11.9930 n2        1 1QE     -0.804100
     26 C25         0.0630    4.1480  -13.0600 cc        1 1QE     -0.225000
     27 S21        -1.3800    4.9990  -13.2120 ss        1 1QE      0.082700
     28 C22        -1.6550    4.4630  -14.7640 cc        1 1QE     -0.174600
     29 C23        -0.6500    3.6290  -15.2100 cd        1 1QE     -0.162500
     30 C24         0.3590    3.4460  -14.2160 cd        1 1QE     -0.117500
     31 H1         -0.5920   -0.2530    1.0280 hn        1 1QE      0.399400
     32 H2          4.4800   -0.7640    3.6330 h4        1 1QE      0.174000
     33 H3          2.6170    0.9400    4.3970 ha        1 1QE      0.157500
     34 H4          0.8050    1.2820    2.5250 ha        1 1QE      0.163500
     35 H5          2.6250    0.4030   -1.0920 hn        1 1QE      0.414300
     36 H6          2.3820    1.3840   -3.1960 ha        1 1QE      0.130000
     37 H7         -0.0820   -1.9720   -1.9170 ha        1 1QE      0.147500
     38 H8         -1.0230   -2.1190   -4.1990 ha        1 1QE      0.134000
     39 H9         -0.2790   -0.5490   -5.9870 ha        1 1QE      0.132500
     40 H10         2.5140    1.9340   -5.4700 hc        1 1QE      0.053700
     41 H11         1.7410    0.8640   -6.7050 hc        1 1QE      0.053700
     42 H12         0.3100    3.0920   -5.0900 hc        1 1QE      0.053700
     43 H13        -0.4620    2.0220   -6.3250 hc        1 1QE      0.053700
     44 H14         2.3910    4.4510   -5.8260 ha        1 1QE      0.132500
     45 H15         3.1160    6.0440   -7.6020 ha        1 1QE      0.134000
     46 H16         2.0900    5.9810   -9.8500 ha        1 1QE      0.147500
     47 H17        -0.3960    2.6380   -8.5770 ha        1 1QE      0.130000
     48 H18        -0.6910    3.7270  -10.6680 hn        1 1QE      0.414300
     49 H19         2.7490    4.1740  -11.1560 hn        1 1QE      0.399400
     50 H20        -2.5310    4.7550  -15.3410 h4        1 1QE      0.174000
     51 H21        -0.6100    3.1600  -16.1950 ha        1 1QE      0.157500
     52 H22         1.2530    2.8340  -14.3640 ha        1 1QE      0.163500
@<TRIPOS>BOND
     1    1    2 2   
     2    1   31 1   
     3    2    3 1   
     4    2    8 1   
     5    3    4 1   
     6    3    7 2   
     7    4    5 1   
     8    5    6 2   
     9    5   32 1   
    10    6    7 1   
    11    6   33 1   
    12    7   34 1   
    13    8    9 1   
    14    8   35 1   
    15    9   10 ar  
    16    9   11 ar  
    17   10   14 ar  
    18   10   36 1   
    19   11   12 ar  
    20   11   37 1   
    21   12   13 ar  
    22   12   38 1   
    23   13   14 ar  
    24   13   39 1   
    25   14   15 1   
    26   15   16 1   
    27   15   40 1   
    28   15   41 1   
    29   16   17 1   
    30   16   42 1   
    31   16   43 1   
    32   17   18 ar  
    33   17   21 ar  
    34   18   19 ar  
    35   18   44 1   
    36   19   20 ar  
    37   19   45 1   
    38   20   22 ar  
    39   20   46 1   
    40   21   22 ar  
    41   21   47 1   
    42   22   23 1   
    43   23   24 1   
    44   23   48 1   
    45   24   25 2   
    46   24   26 1   
    47   25   49 1   
    48   26   27 1   
    49   26   30 2   
    50   27   28 1   
    51   28   29 2   
    52   28   50 1   
    53   29   30 1   
    54   29   51 1   
    55   30   52 1   
@<TRIPOS>SUBSTRUCTURE
     1 1QE         1 TEMP              0 ****  ****    0 ROOT
