@<TRIPOS>MOLECULE
1QE
   54    57     1     0     0
SMALL
bcc


@<TRIPOS>ATOM
      1 N08         2.5930    2.0180   -0.6530 n2        1 1QE     -0.723600
      2 C06         2.3860    0.8460   -0.1820 ce        1 1QE      0.663300
      3 C05         2.0090    0.3920    1.1450 cc        1 1QE     -0.359500
      4 S01         2.8440    0.7680    2.5460 ss        1 1QE      0.247700
      5 C02         1.7890   -0.0290    3.5280 cc        1 1QE     -0.151600
      6 C03         0.7480   -0.6170    2.8200 cd        1 1QE     -0.143500
      7 C04         0.8730   -0.3730    1.4300 cd        1 1QE     -0.114000
      8 N07         2.5720   -0.3200   -1.1400 n4        1 1QE     -0.642400
      9 C11         1.7430   -0.2270   -2.3450 ca        1 1QE     -0.048900
     10 C16         2.1650    0.5700   -3.4240 ca        1 1QE     -0.091500
     11 C12         0.5400   -0.9510   -2.4110 ca        1 1QE     -0.104000
     12 C13        -0.2250   -0.8830   -3.5730 ca        1 1QE     -0.096500
     13 C14         0.1940   -0.1070   -4.6530 ca        1 1QE     -0.079500
     14 C15         1.3860    0.6250   -4.5850 ca        1 1QE     -0.060300
     15 C17         1.8420    1.4290   -5.7540 c3        1 1QE     -0.043100
     16 C37         0.8950    2.5800   -6.0580 c3        1 1QE     -0.043100
     17 C35         1.3610    3.3980   -7.2130 ca        1 1QE     -0.060300
     18 C34         2.5520    4.1310   -7.1230 ca        1 1QE     -0.079500
     19 C33         2.9780    4.9260   -8.1860 ca        1 1QE     -0.096500
     20 C32         2.2220    5.0120   -9.3530 ca        1 1QE     -0.104000
     21 C36         0.5930    3.4720   -8.3800 ca        1 1QE     -0.091500
     22 C31         1.0230    4.2840   -9.4460 ca        1 1QE     -0.048900
     23 N27         0.2070    4.3910  -10.6520 n4        1 1QE     -0.642400
     24 C26         0.6890    3.5180  -11.8230 ce        1 1QE      0.663300
     25 N28         1.7820    2.8680  -11.8360 n2        1 1QE     -0.723600
     26 C25        -0.2670    3.5300  -12.9160 cc        1 1QE     -0.359500
     27 S21        -0.1750    2.4350  -14.1800 ss        1 1QE      0.247700
     28 C22        -1.4660    3.0540  -14.9680 cc        1 1QE     -0.151600
     29 C23        -2.0280    4.1420  -14.3030 cd        1 1QE     -0.143500
     30 C24        -1.3300    4.4250  -13.1080 cd        1 1QE     -0.114000
     31 H1          2.4610    2.7930   -0.0370 hn        1 1QE      0.467400
     32 H2          1.9030   -0.0830    4.6160 h4        1 1QE      0.210000
     33 H3         -0.0700   -1.1900    3.2680 ha        1 1QE      0.188500
     34 H4          0.1460   -0.7230    0.6910 ha        1 1QE      0.151500
     35 H5          3.5610   -0.3650   -1.4200 hn        1 1QE      0.466550
     36 H6          3.0990    1.1540   -3.3660 ha        1 1QE      0.160000
     37 H7          0.1940   -1.5740   -1.5690 ha        1 1QE      0.162500
     38 H8         -1.1670   -1.4550   -3.6360 ha        1 1QE      0.176000
     39 H9         -0.4180   -0.0740   -5.5700 ha        1 1QE      0.161000
     40 H10         2.8730    1.8360   -5.5670 hc        1 1QE      0.068700
     41 H11         1.9110    0.7530   -6.6500 hc        1 1QE      0.068700
     42 H12         0.8150    3.2470   -5.1550 hc        1 1QE      0.068700
     43 H13        -0.1330    2.1720   -6.2590 hc        1 1QE      0.068700
     44 H14         3.1540    4.0860   -6.1990 ha        1 1QE      0.161000
     45 H15         3.9170    5.5010   -8.1050 ha        1 1QE      0.176000
     46 H16         2.5690    5.6580  -10.1780 ha        1 1QE      0.162500
     47 H17        -0.3470    2.8980   -8.4460 ha        1 1QE      0.160000
     48 H18        -0.7620    4.1200  -10.4430 hn        1 1QE      0.466550
     49 H19         2.4140    2.8690  -11.0660 hn        1 1QE      0.467400
     50 H20        -1.8460    2.6630  -15.9180 h4        1 1QE      0.210000
     51 H21        -2.8930    4.7130  -14.6550 ha        1 1QE      0.188500
     52 H22        -1.6090    5.2560  -12.4580 ha        1 1QE      0.151500
     53 H072        2.3280   -1.1790   -0.6250 hn        1 1QE      0.466550
     54 H272        0.2090    5.3670  -10.9750 hn        1 1QE      0.466550
@<TRIPOS>BOND
     1    1    2 2   
     2    1   31 1   
     3    2    3 1   
     4    2    8 1   
     5    3    4 1   
     6    3    7 2   
     7    4    5 1   
     8    5    6 2   
     9    5   32 1   
    10    6    7 1   
    11    6   33 1   
    12    7   34 1   
    13    8    9 1   
    14    8   35 1   
    15    8   53 1   
    16    9   10 ar  
    17    9   11 ar  
    18   10   14 ar  
    19   10   36 1   
    20   11   12 ar  
    21   11   37 1   
    22   12   13 ar  
    23   12   38 1   
    24   13   14 ar  
    25   13   39 1   
    26   14   15 1   
    27   15   16 1   
    28   15   40 1   
    29   15   41 1   
    30   16   17 1   
    31   16   42 1   
    32   16   43 1   
    33   17   18 ar  
    34   17   21 ar  
    35   18   19 ar  
    36   18   44 1   
    37   19   20 ar  
    38   19   45 1   
    39   20   22 ar  
    40   20   46 1   
    41   21   22 ar  
    42   21   47 1   
    43   22   23 1   
    44   23   24 1   
    45   23   48 1   
    46   23   54 1   
    47   24   25 2   
    48   24   26 1   
    49   25   49 1   
    50   26   27 1   
    51   26   30 2   
    52   27   28 1   
    53   28   29 2   
    54   28   50 1   
    55   29   30 1   
    56   29   51 1   
    57   30   52 1   
@<TRIPOS>SUBSTRUCTURE
     1 1QE         1 TEMP              0 ****  ****    0 ROOT
