@<TRIPOS>MOLECULE
1QF
   66    69     1     0     0
SMALL
bcc


@<TRIPOS>ATOM
      1 N06        -0.2530   -1.5120   -0.5080 n2        1 1QF     -0.755100
      2 C06        -0.0070   -1.0890    0.6720 ce        1 1QF      0.669800
      3 C05         0.2190   -1.7610    1.9340 cc        1 1QF     -0.403000
      4 S01         1.3180   -3.0040    2.1650 ss        1 1QF      0.215200
      5 C02         0.9020   -3.2380    3.7380 cc        1 1QF     -0.121100
      6 C03        -0.1040   -2.3730    4.1560 cd        1 1QF     -0.140000
      7 C04        -0.5060   -1.5120    3.1100 cd        1 1QF     -0.096000
      8 N07         0.0430    0.4330    0.8470 n4        1 1QF     -0.630400
      9 C11         0.8830    1.1190   -0.1360 ca        1 1QF     -0.018400
     10 C16         0.4040    1.3440   -1.4410 ca        1 1QF     -0.054000
     11 C12         2.1730    1.5410    0.2340 ca        1 1QF     -0.065000
     12 C13         2.9780    2.1810   -0.7090 ca        1 1QF     -0.087000
     13 C14         2.5180    2.3900   -2.0080 ca        1 1QF     -0.083000
     14 C15         1.2310    1.9770   -2.3760 ca        1 1QF     -0.145300
     15 C17         0.7790    2.0920   -3.7990 c3        1 1QF      0.165100
     16 N18         0.7310    3.5030   -4.3260 n4        1 1QF     -0.693400
     17 C19        -0.5390    4.2100   -3.9270 c3        1 1QF      0.110800
     18 C20        -0.5240    4.7350   -2.5080 c3        1 1QF     -0.134100
     19 C38         0.8870    3.5100   -5.8230 c3        1 1QF      0.107800
     20 C37         1.3730    4.8520   -6.3770 c3        1 1QF     -0.063100
     21 C34         1.4950    4.8000   -7.8630 ca        1 1QF     -0.071300
     22 C35         2.7550    4.6850   -8.4630 ca        1 1QF     -0.098000
     23 C33         0.3620    4.9450   -8.6730 ca        1 1QF     -0.098000
     24 C32         0.4770    4.9880  -10.0610 ca        1 1QF     -0.092500
     25 C31         1.7480    4.8840  -10.6570 ca        1 1QF     -0.032400
     26 C36         2.8910    4.7260   -9.8500 ca        1 1QF     -0.092500
     27 N27         1.8820    4.9400  -12.1080 n4        1 1QF     -0.687400
     28 C26         2.2470    6.3410  -12.6710 ce        1 1QF      0.697800
     29 N26         2.6070    7.3260  -11.9590 n2        1 1QF     -0.716100
     30 C25         2.1120    6.3560  -14.1130 cc        1 1QF     -0.361000
     31 S21         1.9370    7.7800  -14.9750 ss        1 1QF      0.318200
     32 C22         1.9020    7.0390  -16.4270 cc        1 1QF     -0.164100
     33 C23         2.0380    5.6530  -16.3270 cd        1 1QF     -0.135000
     34 C24         2.1650    5.2520  -14.9810 cd        1 1QF     -0.126000
     35 H1         -0.3440   -2.4990   -0.6430 hn        1 1QF      0.490400
     36 H2          1.3650   -3.9970    4.3800 h4        1 1QF      0.220000
     37 H3         -0.5410   -2.3600    5.1620 ha        1 1QF      0.200000
     38 H4         -1.3090   -0.7780    3.2160 ha        1 1QF      0.160000
     39 H5         -0.9180    0.7940    0.7850 hn        1 1QF      0.472800
     40 H6         -0.6020    0.9990   -1.7390 ha        1 1QF      0.173000
     41 H7          2.5680    1.3730    1.2520 ha        1 1QF      0.183000
     42 H8          3.9940    2.5100   -0.4210 ha        1 1QF      0.194000
     43 H9          3.1910    2.8600   -2.7440 ha        1 1QF      0.153000
     44 H10         1.5070    1.5050   -4.4380 hx        1 1QF      0.116700
     45 H11        -0.2450    1.6370   -3.9340 hx        1 1QF      0.116700
     46 H13        -1.3960    3.4930   -4.0740 hx        1 1QF      0.105700
     47 H14        -0.6830    5.0770   -4.6370 hx        1 1QF      0.105700
     48 H15         0.2880    5.4870   -2.3500 hc        1 1QF      0.081367
     49 H16        -1.5060    5.2420   -2.3180 hc        1 1QF      0.081367
     50 H17        -0.4030    3.9090   -1.7660 hc        1 1QF      0.081367
     51 H18         1.6350    2.7130   -6.1060 hx        1 1QF      0.109700
     52 H19        -0.1100    3.2400   -6.2750 hx        1 1QF      0.109700
     53 H20         2.3700    5.1130   -5.9270 hc        1 1QF      0.085200
     54 H21         0.6570    5.6770   -6.1060 hc        1 1QF      0.085200
     55 H22         3.6620    4.5770   -7.8440 ha        1 1QF      0.165500
     56 H23        -0.6380    5.0450   -8.2190 ha        1 1QF      0.165500
     57 H24        -0.4350    5.1110  -10.6720 ha        1 1QF      0.177500
     58 H25         3.8980    4.6350  -10.2930 ha        1 1QF      0.177500
     59 H26         1.0000    4.6550  -12.5520 hn        1 1QF      0.467300
     60 H27         2.6600    7.2970  -10.9660 hn        1 1QF      0.456400
     61 H28         1.7920    7.5670  -17.3830 h4        1 1QF      0.217000
     62 H29         2.0510    4.9640  -17.1770 ha        1 1QF      0.192000
     63 H30         2.3090    4.2070  -14.6970 ha        1 1QF      0.144000
     64 H072        0.4040    0.6110    1.7980 hn        1 1QF      0.472800
     65 H181        1.5200    4.0220   -3.9150 hn        1 1QF      0.447800
     66 H272        2.6200    4.2900  -12.4100 hn        1 1QF      0.467300
@<TRIPOS>BOND
     1    1    2 2   
     2    1   35 1   
     3    2    3 1   
     4    2    8 1   
     5    3    4 1   
     6    3    7 2   
     7    4    5 1   
     8    5    6 2   
     9    5   36 1   
    10    6    7 1   
    11    6   37 1   
    12    7   38 1   
    13    8    9 1   
    14    8   39 1   
    15    8   64 1   
    16    9   10 ar  
    17    9   11 ar  
    18   10   14 ar  
    19   10   40 1   
    20   11   12 ar  
    21   11   41 1   
    22   12   13 ar  
    23   12   42 1   
    24   13   14 ar  
    25   13   43 1   
    26   14   15 1   
    27   15   16 1   
    28   15   44 1   
    29   15   45 1   
    30   16   17 1   
    31   16   19 1   
    32   16   65 1   
    33   17   18 1   
    34   17   46 1   
    35   17   47 1   
    36   18   48 1   
    37   18   49 1   
    38   18   50 1   
    39   19   20 1   
    40   19   51 1   
    41   19   52 1   
    42   20   21 1   
    43   20   53 1   
    44   20   54 1   
    45   21   22 ar  
    46   21   23 ar  
    47   22   26 ar  
    48   22   55 1   
    49   23   24 ar  
    50   23   56 1   
    51   24   25 ar  
    52   24   57 1   
    53   25   26 ar  
    54   25   27 1   
    55   26   58 1   
    56   27   28 1   
    57   27   59 1   
    58   27   66 1   
    59   28   29 2   
    60   28   30 1   
    61   29   60 1   
    62   30   31 1   
    63   30   34 2   
    64   31   32 1   
    65   32   33 2   
    66   32   61 1   
    67   33   34 1   
    68   33   62 1   
    69   34   63 1   
@<TRIPOS>SUBSTRUCTURE
     1 1QF         1 TEMP              0 ****  ****    0 ROOT
