@<TRIPOS>MOLECULE
1QF
   64    67     1     0     0
SMALL
bcc


@<TRIPOS>ATOM
      1 N06         0.0660    0.9360    0.2990 n2        1 1QF     -0.839100
      2 C06         1.2980    0.5700    0.1130 ce        1 1QF      0.711800
      3 C05         2.2750    0.3640    1.2020 cc        1 1QF     -0.290000
      4 S01         3.8330    0.9810    1.2280 ss        1 1QF      0.087200
      5 C02         4.1780    0.3450    2.7250 cc        1 1QF     -0.151100
      6 C03         3.1100   -0.3550    3.2490 cd        1 1QF     -0.155000
      7 C04         1.9940   -0.3440    2.3610 cd        1 1QF     -0.111000
      8 N07         1.8590    0.3620   -1.1780 nh        1 1QF     -0.699600
      9 C11         1.1150    0.2680   -2.3630 ca        1 1QF      0.177600
     10 C16        -0.0070    1.0790   -2.6300 ca        1 1QF     -0.140000
     11 C12         1.5590   -0.6140   -3.3850 ca        1 1QF     -0.150000
     12 C13         0.9050   -0.6710   -4.6080 ca        1 1QF     -0.092000
     13 C14        -0.2080    0.1310   -4.8610 ca        1 1QF     -0.133000
     14 C15        -0.6600    0.9940   -3.8630 ca        1 1QF     -0.151300
     15 C17        -1.8870    1.8170   -4.0820 c3        1 1QF      0.172100
     16 N18        -1.5630    3.2850   -4.1940 n4        1 1QF     -0.691400
     17 C19        -2.7820    4.1230   -3.9500 c3        1 1QF      0.108800
     18 C20        -3.1290    4.2760   -2.4840 c3        1 1QF     -0.133100
     19 C38        -0.9500    3.5880   -5.5290 c3        1 1QF      0.101800
     20 C37        -0.1010    4.8590   -5.5380 c3        1 1QF     -0.036100
     21 C34         0.5280    5.0100   -6.8760 ca        1 1QF     -0.167300
     22 C35         1.6580    4.2570   -7.2140 ca        1 1QF     -0.080000
     23 C33         0.0160    5.9190   -7.8080 ca        1 1QF     -0.080000
     24 C32         0.6210    6.0840   -9.0450 ca        1 1QF     -0.180500
     25 C31         1.7700    5.3300   -9.3960 ca        1 1QF      0.182600
     26 C36         2.2700    4.4000   -8.4510 ca        1 1QF     -0.180500
     27 N27         2.3270    5.4540  -10.6690 nh        1 1QF     -0.759600
     28 C26         3.7410    5.4370  -10.9070 ce        1 1QF      0.708800
     29 N26         4.6970    5.5020  -10.0380 n2        1 1QF     -0.791100
     30 C25         4.0630    5.3300  -12.3410 cc        1 1QF     -0.211000
     31 S21         3.1290    4.4870  -13.4610 ss        1 1QF      0.046200
     32 C22         4.1530    4.8290  -14.7290 cc        1 1QF     -0.150100
     33 C23         5.2360    5.5860  -14.3330 cd        1 1QF     -0.163000
     34 C24         5.1890    5.8780  -12.9350 cd        1 1QF     -0.085000
     35 H1         -0.1740    1.0850    1.2560 hn        1 1QF      0.416400
     36 H2          5.1420    0.4800    3.2180 h4        1 1QF      0.187000
     37 H3          3.1000   -0.8610    4.2180 ha        1 1QF      0.170000
     38 H4          1.0460   -0.8430    2.5800 ha        1 1QF      0.163000
     39 H5          2.6630   -0.2370   -1.1550 hn        1 1QF      0.436800
     40 H6         -0.3960    1.7690   -1.8650 ha        1 1QF      0.160000
     41 H7          2.4310   -1.2680   -3.2140 ha        1 1QF      0.152000
     42 H8          1.2650   -1.3650   -5.3850 ha        1 1QF      0.156000
     43 H9         -0.7270    0.0630   -5.8280 ha        1 1QF      0.142000
     44 H10        -2.4220    1.5090   -5.0250 hx        1 1QF      0.103700
     45 H11        -2.5890    1.6900   -3.2070 hx        1 1QF      0.103700
     46 H13        -3.6400    3.6520   -4.5090 hx        1 1QF      0.098700
     47 H14        -2.5880    5.1430   -4.3950 hx        1 1QF      0.098700
     48 H15        -4.0260    4.9430   -2.4090 hc        1 1QF      0.076367
     49 H16        -3.3830    3.2980   -2.0080 hc        1 1QF      0.076367
     50 H17        -2.2950    4.7490   -1.9100 hc        1 1QF      0.076367
     51 H18        -1.7810    3.6710   -6.2840 hx        1 1QF      0.106200
     52 H19        -0.2960    2.7090   -5.8080 hx        1 1QF      0.106200
     53 H20        -0.7340    5.7570   -5.3070 hc        1 1QF      0.063700
     54 H21         0.7000    4.7950   -4.7520 hc        1 1QF      0.063700
     55 H22         2.0740    3.5390   -6.4900 ha        1 1QF      0.131500
     56 H23        -0.8690    6.5250   -7.5570 ha        1 1QF      0.131500
     57 H24         0.1980    6.8120   -9.7560 ha        1 1QF      0.152000
     58 H25         3.1320    3.7600   -8.6960 ha        1 1QF      0.152000
     59 H26         1.8020    6.0020  -11.3190 hn        1 1QF      0.436800
     60 H27         4.4400    5.6010   -9.0790 hn        1 1QF      0.397400
     61 H28         3.9680    4.4790  -15.7450 h4        1 1QF      0.180000
     62 H29         6.0400    5.9280  -14.9870 ha        1 1QF      0.165000
     63 H30         5.9550    6.4560  -12.4120 ha        1 1QF      0.174000
     64 H181       -0.8680    3.5060   -3.4660 hn        1 1QF      0.448800
@<TRIPOS>BOND
     1    1    2 2   
     2    1   35 1   
     3    2    3 1   
     4    2    8 1   
     5    3    4 1   
     6    3    7 2   
     7    4    5 1   
     8    5    6 2   
     9    5   36 1   
    10    6    7 1   
    11    6   37 1   
    12    7   38 1   
    13    8    9 1   
    14    8   39 1   
    15    9   10 ar  
    16    9   11 ar  
    17   10   14 ar  
    18   10   40 1   
    19   11   12 ar  
    20   11   41 1   
    21   12   13 ar  
    22   12   42 1   
    23   13   14 ar  
    24   13   43 1   
    25   14   15 1   
    26   15   16 1   
    27   15   44 1   
    28   15   45 1   
    29   16   17 1   
    30   16   19 1   
    31   16   64 1   
    32   17   18 1   
    33   17   46 1   
    34   17   47 1   
    35   18   48 1   
    36   18   49 1   
    37   18   50 1   
    38   19   20 1   
    39   19   51 1   
    40   19   52 1   
    41   20   21 1   
    42   20   53 1   
    43   20   54 1   
    44   21   22 ar  
    45   21   23 ar  
    46   22   26 ar  
    47   22   55 1   
    48   23   24 ar  
    49   23   56 1   
    50   24   25 ar  
    51   24   57 1   
    52   25   26 ar  
    53   25   27 1   
    54   26   58 1   
    55   27   28 1   
    56   27   59 1   
    57   28   29 2   
    58   28   30 1   
    59   29   60 1   
    60   30   31 1   
    61   30   34 2   
    62   31   32 1   
    63   32   33 2   
    64   32   61 1   
    65   33   34 1   
    66   33   62 1   
    67   34   63 1   
@<TRIPOS>SUBSTRUCTURE
     1 1QF         1 TEMP              0 ****  ****    0 ROOT
