@<TRIPOS>MOLECULE
1QF
   64    67     1     0     0
SMALL
bcc


@<TRIPOS>ATOM
      1 N06         0.0630    0.9310    0.2960 n2        1 1QF     -0.839100
      2 C06         1.2930    0.5610    0.1060 ce        1 1QF      0.711800
      3 C05         2.2710    0.3510    1.1940 cc        1 1QF     -0.290000
      4 S01         3.8320    0.9640    1.2170 ss        1 1QF      0.087200
      5 C02         4.1780    0.3250    2.7120 cc        1 1QF     -0.151100
      6 C03         3.1080   -0.3730    3.2380 cd        1 1QF     -0.155000
      7 C04         1.9910   -0.3580    2.3520 cd        1 1QF     -0.111000
      8 N07         1.8500    0.3530   -1.1860 nu        1 1QF     -0.699600
      9 C11         1.1040    0.2630   -2.3690 ca        1 1QF      0.176600
     10 C16        -0.0150    1.0810   -2.6320 ca        1 1QF     -0.140000
     11 C12         1.5410   -0.6200   -3.3930 ca        1 1QF     -0.150000
     12 C13         0.8840   -0.6720   -4.6140 ca        1 1QF     -0.092000
     13 C14        -0.2260    0.1360   -4.8640 ca        1 1QF     -0.133000
     14 C15        -0.6710    1.0000   -3.8650 ca        1 1QF     -0.151300
     15 C17        -1.8940    1.8300   -4.0810 c3        1 1QF      0.172100
     16 N18        -1.5630    3.2970   -4.1900 nx        1 1QF     -0.691400
     17 C19        -2.7770    4.1410   -3.9440 c3        1 1QF      0.108800
     18 C20        -3.1210    4.2930   -2.4770 c3        1 1QF     -0.133100
     19 C38        -0.9500    3.5990   -5.5250 c3        1 1QF      0.101800
     20 C37        -0.0930    4.8660   -5.5330 c3        1 1QF     -0.036100
     21 C34         0.5350    5.0140   -6.8720 ca        1 1QF     -0.167300
     22 C35         1.6610    4.2560   -7.2110 ca        1 1QF     -0.080000
     23 C33         0.0270    5.9280   -7.8020 ca        1 1QF     -0.080000
     24 C32         0.6320    6.0910   -9.0400 ca        1 1QF     -0.180500
     25 C31         1.7770    5.3310   -9.3920 ca        1 1QF      0.182600
     26 C36         2.2730    4.3980   -8.4490 ca        1 1QF     -0.180500
     27 N27         2.3340    5.4550  -10.6650 nu        1 1QF     -0.759600
     28 C26         3.7480    5.4300  -10.9040 ce        1 1QF      0.708800
     29 N26         4.7040    5.4890  -10.0350 n2        1 1QF     -0.791100
     30 C25         4.0690    5.3230  -12.3390 cc        1 1QF     -0.211000
     31 S21         3.1300    4.4860  -13.4590 ss        1 1QF      0.046200
     32 C22         4.1540    4.8240  -14.7270 cc        1 1QF     -0.150100
     33 C23         5.2410    5.5750  -14.3300 cd        1 1QF     -0.163000
     34 C24         5.1960    5.8660  -12.9330 cd        1 1QF     -0.085000
     35 H1         -0.1750    1.0800    1.2530 hn        1 1QF      0.416400
     36 H2          5.1430    0.4580    3.2040 h4        1 1QF      0.187000
     37 H3          3.1000   -0.8800    4.2060 ha        1 1QF      0.170000
     38 H4          1.0420   -0.8550    2.5730 ha        1 1QF      0.163000
     39 H5          2.6510   -0.2490   -1.1650 hn        1 1QF      0.436800
     40 H6         -0.3990    1.7720   -1.8670 ha        1 1QF      0.160000
     41 H7          2.4090   -1.2780   -3.2240 ha        1 1QF      0.152000
     42 H8          1.2380   -1.3680   -5.3930 ha        1 1QF      0.156000
     43 H9         -0.7470    0.0720   -5.8300 ha        1 1QF      0.142000
     44 H10        -2.4320    1.5270   -5.0230 hx        1 1QF      0.103700
     45 H11        -2.5960    1.7060   -3.2040 hx        1 1QF      0.103700
     46 H13        -2.5780    5.1600   -4.3870 hx        1 1QF      0.098700
     47 H14        -3.6380    3.6750   -4.5020 hx        1 1QF      0.098700
     48 H15        -4.0150    4.9640   -2.4000 hc        1 1QF      0.076367
     49 H16        -2.2840    4.7610   -1.9030 hc        1 1QF      0.076367
     50 H17        -3.3790    3.3150   -2.0020 hc        1 1QF      0.076367
     51 H18        -0.3000    2.7160   -5.8060 hx        1 1QF      0.106200
     52 H19        -1.7810    3.6870   -6.2790 hx        1 1QF      0.106200
     53 H20        -0.7220    5.7660   -5.3000 hc        1 1QF      0.063700
     54 H21         0.7080    4.7960   -4.7470 hc        1 1QF      0.063700
     55 H22         2.0740    3.5350   -6.4880 ha        1 1QF      0.131500
     56 H23        -0.8550    6.5380   -7.5500 ha        1 1QF      0.131500
     57 H24         0.2130    6.8220   -9.7490 ha        1 1QF      0.152000
     58 H25         3.1320    3.7530   -8.6950 ha        1 1QF      0.152000
     59 H26         1.8120    6.0060  -11.3130 hn        1 1QF      0.436800
     60 H27         4.4490    5.5890   -9.0760 hn        1 1QF      0.397400
     61 H28         3.9670    4.4770  -15.7430 h4        1 1QF      0.180000
     62 H29         6.0470    5.9140  -14.9850 ha        1 1QF      0.165000
     63 H30         5.9660    6.4400  -12.4090 ha        1 1QF      0.174000
     64 H181       -0.8650    3.5120   -3.4630 hn        1 1QF      0.448800
@<TRIPOS>BOND
     1    1    2 2   
     2    1   35 1   
     3    2    3 1   
     4    2    8 1   
     5    3    4 1   
     6    3    7 2   
     7    4    5 1   
     8    5    6 2   
     9    5   36 1   
    10    6    7 1   
    11    6   37 1   
    12    7   38 1   
    13    8    9 1   
    14    8   39 1   
    15    9   10 ar  
    16    9   11 ar  
    17   10   14 ar  
    18   10   40 1   
    19   11   12 ar  
    20   11   41 1   
    21   12   13 ar  
    22   12   42 1   
    23   13   14 ar  
    24   13   43 1   
    25   14   15 1   
    26   15   16 1   
    27   15   44 1   
    28   15   45 1   
    29   16   17 1   
    30   16   19 1   
    31   16   64 1   
    32   17   18 1   
    33   17   46 1   
    34   17   47 1   
    35   18   48 1   
    36   18   49 1   
    37   18   50 1   
    38   19   20 1   
    39   19   51 1   
    40   19   52 1   
    41   20   21 1   
    42   20   53 1   
    43   20   54 1   
    44   21   22 ar  
    45   21   23 ar  
    46   22   26 ar  
    47   22   55 1   
    48   23   24 ar  
    49   23   56 1   
    50   24   25 ar  
    51   24   57 1   
    52   25   26 ar  
    53   25   27 1   
    54   26   58 1   
    55   27   28 1   
    56   27   59 1   
    57   28   29 2   
    58   28   30 1   
    59   29   60 1   
    60   30   31 1   
    61   30   34 2   
    62   31   32 1   
    63   32   33 2   
    64   32   61 1   
    65   33   34 1   
    66   33   62 1   
    67   34   63 1   
@<TRIPOS>SUBSTRUCTURE
     1 1QF         1 TEMP              0 ****  ****    0 ROOT
