@<TRIPOS>MOLECULE
1QG
   44    41     1     0     0
SMALL
bcc


@<TRIPOS>ATOM
      1 N3          2.9660    1.7810   -0.9210 n1        1 1QG     -0.032000
      2 C4          2.7250   -0.9090    3.8980 c2        1 1QG      0.079000
      3 N2          3.5560   -0.3830    4.7610 n2        1 1QG     -0.135000
      4 C7          4.4960   -4.0250    2.7250 c1        1 1QG     -0.084000
      5 C6          4.1530   -2.8490    3.3470 c2        1 1QG     -0.097000
      6 C9          1.4430   -4.3030    3.3710 c1        1 1QG      0.182000
      7 C13         2.7630    1.5760    0.2050 c1        1 1QG     -0.143000
      8 C8          4.3120   -5.4240    3.0000 c3        1 1QG      0.018000
      9 C18        -4.8850    1.4960   -0.0890 c3        1 1QG     -0.079000
     10 C16        -1.9990    0.4710    0.0800 c3        1 1QG     -0.097000
     11 C19        -2.1280   -4.7900    1.6630 c1        1 1QG     -0.164000
     12 N1          3.4480    0.8920    5.2190 n3        1 1QG     -0.142000
     13 C2          0.5100    0.1630    4.0350 c1        1 1QG      0.275000
     14 C3          1.5620   -0.1920    3.3100 c2        1 1QG     -0.454000
     15 C5          2.9040   -2.3040    3.4580 c2        1 1QG     -0.075000
     16 C10         1.7030   -3.0370    3.1150 c2        1 1QG     -0.422000
     17 C11         1.6500    0.0890    1.8310 c3        1 1QG      0.106000
     18 C12         2.5190    1.3360    1.6090 c3        1 1QG     -0.072000
     19 C14        -0.7250    0.3470    0.7180 c1        1 1QG     -0.098000
     20 C15         0.3460    0.2430    1.2440 c1        1 1QG     -0.216000
     21 C17        -3.1480    0.3640    1.0800 c3        1 1QG     -0.020000
     22 O1         -4.3950    0.2620    0.4080 os        1 1QG     -0.274000
     23 N4         -1.1850   -4.1980    1.9870 n1        1 1QG     -0.079000
     24 H7          4.7180   -5.6920    4.0240 h1        1 1QG      0.144500
     25 H6          5.0470   -2.2490    3.6410 ha        1 1QG      0.198000
     26 H8          3.1770   -5.6120    3.0130 h1        1 1QG      0.144500
     27 H11         3.5050    1.1900    2.1330 hc        1 1QG      0.123500
     28 H15        -4.2060    1.9030   -0.8770 h1        1 1QG      0.075000
     29 H16        -4.9990    2.2400    0.7380 h1        1 1QG      0.075000
     30 H1         -3.1430    1.2370    1.7830 h1        1 1QG      0.096000
     31 H17        -5.8830    1.2420   -0.5270 h1        1 1QG      0.075000
     32 H18        -2.9980   -5.3370    1.3650 ha        1 1QG      0.244000
     33 H3          0.9590    2.6220    4.1140 ha        1 1QG      0.001500
     34 H4          1.2260    3.2320    4.2420 ha        1 1QG      0.001500
     35 H2          5.1180    0.9100    6.4770 ha        1 1QG      0.067000
     36 H5          2.6700    1.4460    4.8810 hn        1 1QG      0.231000
     37 H9          0.8970   -2.4570    2.6060 ha        1 1QG      0.214000
     38 H10         2.0160    2.2370    2.0590 hc        1 1QG      0.123500
     39 H12         2.1570   -0.8000    1.3430 hc        1 1QG      0.141000
     40 H14        -3.0770   -0.5930    1.6630 h1        1 1QG      0.096000
     41 H13        -2.1130   -0.3370   -0.6970 hc        1 1QG      0.115000
     42 H19        -2.0560    1.4590   -0.4580 hc        1 1QG      0.115000
     43 F1          4.8810   -6.2770    2.0730 f         1 1QG     -0.148000
     44 C1          4.2570    1.4790    6.0720 c1        1 1QG     -0.113000
@<TRIPOS>BOND
     1    1    7 1   
     2    2    3 1   
     3    2   14 1   
     4    2   15 1   
     5    3   12 1   
     6    4    5 1   
     7    4    8 1   
     8    5   15 1   
     9    5   25 1   
    10    6   16 1   
    11    7   18 1   
    12    8   24 1   
    13    8   26 1   
    14    8   43 1   
    15    9   22 1   
    16    9   28 1   
    17    9   29 1   
    18    9   31 1   
    19   10   19 1   
    20   10   21 1   
    21   10   41 1   
    22   10   42 1   
    23   11   23 1   
    24   11   32 1   
    25   12   36 1   
    26   12   44 1   
    27   13   14 1   
    28   14   17 1   
    29   15   16 1   
    30   16   37 1   
    31   17   18 1   
    32   17   20 1   
    33   17   39 1   
    34   18   27 1   
    35   18   38 1   
    36   19   20 1   
    37   21   22 1   
    38   21   30 1   
    39   21   40 1   
    40   33   34 1   
    41   35   44 1   
@<TRIPOS>SUBSTRUCTURE
     1 1QG         1 TEMP              0 ****  ****    0 ROOT
