@<TRIPOS>MOLECULE
1QG
   44    42     1     0     0
SMALL
bcc


@<TRIPOS>ATOM
      1 N3          2.4080    1.2520   -1.2490 n1        1 1QG     -0.038000
      2 C4          3.1880   -1.0720    3.9940 c2        1 1QG     -0.032000
      3 N2          3.2830   -0.8810    5.3210 n2        1 1QG      0.008000
      4 C7          6.0560   -3.0850    2.6480 ca        1 1QG     -0.169000
      5 C6          5.3320   -2.1300    3.3540 ca        1 1QG     -0.077500
      6 C9          3.9690   -3.9820    1.7530 ca        1 1QG     -0.169000
      7 C13         2.5270    1.2100   -0.0930 c1        1 1QG     -0.144000
      8 C8          5.3740   -4.0150    1.8410 ca        1 1QG      0.108000
      9 C18        -4.7020   -0.5550    0.0660 c1        1 1QG     -0.054000
     10 C16        -2.1120    0.4620    1.3640 c3        1 1QG     -0.078000
     11 C19        -6.3700    0.1540    1.8290 c1        1 1QG     -0.150000
     12 N1          2.4370    0.1490    5.6600 na        1 1QG     -0.110000
     13 C2          1.7730    0.6320    4.4720 c2        1 1QG     -0.118000
     14 C3          2.2260   -0.1080    3.4020 c2        1 1QG     -0.145000
     15 C5          3.9350   -2.0830    3.2550 ca        1 1QG     -0.053000
     16 C10         3.2600   -3.0190    2.4620 ca        1 1QG     -0.077500
     17 C11         1.8850    0.0100    1.9670 c3        1 1QG      0.082000
     18 C12         2.6820    1.1680    1.3430 c3        1 1QG     -0.066000
     19 C14        -0.7050    0.3060    1.5720 c1        1 1QG     -0.132000
     20 C15         0.4700    0.1830    1.7610 c1        1 1QG     -0.173000
     21 C17        -2.4810    0.3260   -0.1040 c3        1 1QG     -0.122000
     22 O1         -3.9290    0.4110   -0.2520 os        1 1QG     -0.090000
     23 N4         -5.6940    0.1650    2.7740 n1        1 1QG     -0.105000
     24 H7          7.1530   -3.1250    2.7190 ha        1 1QG      0.155500
     25 H6          5.8620   -1.4100    3.9980 ha        1 1QG      0.149500
     26 H8          3.4450   -4.7210    1.1290 ha        1 1QG      0.155500
     27 H11         3.7720    1.0360    1.5910 hc        1 1QG      0.123500
     28 H15        -3.9250   -1.7400   -1.9260 ha        1 1QG      0.004500
     29 H16        -4.5580   -1.5990   -2.1240 ha        1 1QG      0.004500
     30 H1         -2.4420    1.4730    1.7380 hc        1 1QG      0.120000
     31 H17        -4.2730   -1.4920    0.4870 ha        1 1QG      0.031000
     32 H18        -6.9760    0.1410    0.9440 ha        1 1QG      0.257000
     33 H3          0.9070   -0.8780    8.1600 ha        1 1QG      0.004500
     34 H4          0.3770   -0.5820    7.8560 ha        1 1QG      0.004500
     35 H2          1.5450    1.4340    6.9730 ha        1 1QG      0.032000
     36 H5          1.0490    1.4470    4.5300 h4        1 1QG      0.190000
     37 H9          2.1600   -3.0060    2.4090 ha        1 1QG      0.149500
     38 H10         2.3420    2.1460    1.7820 hc        1 1QG      0.123500
     39 H12         2.2010   -0.9490    1.4470 hc        1 1QG      0.132000
     40 H14        -2.1280   -0.6450   -0.5330 h1        1 1QG      0.113500
     41 H13        -2.0960    1.1840   -0.7120 h1        1 1QG      0.113500
     42 H19        -2.6720   -0.3110    1.9640 hc        1 1QG      0.120000
     43 F1          6.0710   -4.9470    1.1510 f         1 1QG     -0.099000
     44 C1          2.2830    0.5980    6.9120 c1        1 1QG      0.019000
@<TRIPOS>BOND
     1    1    7 1   
     2    2    3 1   
     3    2   14 1   
     4    2   15 1   
     5    3   12 1   
     6    4    5 1   
     7    4    8 1   
     8    4   24 1   
     9    5   15 1   
    10    5   25 1   
    11    6    8 1   
    12    6   16 1   
    13    6   26 1   
    14    7   18 1   
    15    8   43 1   
    16    9   22 1   
    17    9   31 1   
    18   10   19 1   
    19   10   21 1   
    20   10   30 1   
    21   10   42 1   
    22   11   23 1   
    23   11   32 1   
    24   12   13 1   
    25   12   44 1   
    26   13   14 1   
    27   13   36 1   
    28   14   17 1   
    29   15   16 1   
    30   16   37 1   
    31   17   18 1   
    32   17   20 1   
    33   17   39 1   
    34   18   27 1   
    35   18   38 1   
    36   19   20 1   
    37   21   22 1   
    38   21   40 1   
    39   21   41 1   
    40   28   29 1   
    41   33   34 1   
    42   35   44 1   
@<TRIPOS>SUBSTRUCTURE
     1 1QG         1 TEMP              0 ****  ****    0 ROOT
