@<TRIPOS>MOLECULE
1QG
   44    47     1     0     0
SMALL
bcc


@<TRIPOS>ATOM
      1 N3         -2.1640    1.2840    1.0120 nb        1 1QG     -0.675000
      2 C4          2.4470   -1.1530   -0.1210 cc        1 1QG      0.381800
      3 N2          3.0820   -2.3370   -0.3830 nd        1 1QG     -0.500800
      4 C7          5.0730    1.4230    0.6360 ca        1 1QG     -0.172000
      5 C6          4.3870    0.2140    0.5920 ca        1 1QG     -0.082500
      6 C9          3.2840    2.4680   -0.6520 ca        1 1QG     -0.172000
      7 C13        -0.9170    1.4850    1.4710 ca        1 1QG      0.400200
      8 C8          4.5220    2.5570    0.0120 ca        1 1QG      0.130900
      9 C18        -6.5700    0.4260   -0.2790 c3        1 1QG      0.088400
     10 C16        -3.7670   -0.0670   -0.3090 c3        1 1QG      0.089200
     11 C19        -5.6780    0.8350   -1.4570 c3        1 1QG      0.118800
     12 N1          2.1440   -3.2960   -0.3900 na        1 1QG      0.100400
     13 C2          0.8710   -2.7810   -0.1440 cd        1 1QG     -0.126300
     14 C3          1.0190   -1.3920    0.0440 cc        1 1QG     -0.212300
     15 C5          3.1510    0.1190   -0.0620 ca        1 1QG     -0.137500
     16 C10         2.6100    1.2530   -0.6840 ca        1 1QG     -0.082500
     17 C11        -0.0410   -0.4720    0.3620 ca        1 1QG      0.045000
     18 C12         0.1720    0.6460    1.1820 ca        1 1QG     -0.238300
     19 C14        -2.3700    0.2030    0.2210 ca        1 1QG      0.409600
     20 C15        -1.3400   -0.6920   -0.1290 ca        1 1QG     -0.234300
     21 C17        -4.6880   -0.4350    0.8760 c3        1 1QG      0.095400
     22 O1         -6.0170   -0.6810    0.4270 os        1 1QG     -0.414600
     23 N4         -4.2770    1.0290   -1.1310 n3        1 1QG     -0.791200
     24 H7          6.0420    1.5010    1.1490 ha        1 1QG      0.151000
     25 H6          4.8240   -0.6750    1.0740 ha        1 1QG      0.150000
     26 H8          2.8630    3.3580   -1.1420 ha        1 1QG      0.151000
     27 H11        -0.7840    2.3750    2.1130 h4        1 1QG      0.024100
     28 H15        -6.7180    1.2840    0.4290 h1        1 1QG      0.052200
     29 H16        -7.5630    0.0530   -0.6420 h1        1 1QG      0.052200
     30 H1         -3.7190   -0.9670   -0.9950 h1        1 1QG      0.073700
     31 H17        -5.7290    0.0270   -2.2410 h1        1 1QG      0.061200
     32 H18        -6.0770    1.7850   -1.9070 h1        1 1QG      0.061200
     33 H3          3.1960   -5.0660    0.0770 h1        1 1QG      0.062367
     34 H4          1.4790   -5.2730   -0.5340 h1        1 1QG      0.062367
     35 H2          2.8220   -4.8110   -1.6940 h1        1 1QG      0.062367
     36 H5         -0.0200   -3.4080   -0.1080 h4        1 1QG      0.180000
     37 H9          1.6390    1.1790   -1.2010 ha        1 1QG      0.150000
     38 H10         1.1710    0.8630    1.5850 ha        1 1QG      0.156000
     39 H12        -1.5470   -1.5470   -0.7860 ha        1 1QG      0.144000
     40 H14        -4.3680   -1.4050    1.3370 h1        1 1QG      0.060700
     41 H13        -4.6970    0.3770    1.6490 h1        1 1QG      0.060700
     42 H19        -4.1500    1.9070   -0.6590 hn        1 1QG      0.368800
     43 F1          5.1850    3.7370    0.0490 f         1 1QG     -0.139900
     44 C1          2.4280   -4.6870   -0.6500 c3        1 1QG      0.037600
@<TRIPOS>BOND
     1    1    7 ar  
     2    1   19 ar  
     3    2    3 2   
     4    2   14 1   
     5    2   15 1   
     6    3   12 1   
     7    4    5 ar  
     8    4    8 ar  
     9    4   24 1   
    10    5   15 ar  
    11    5   25 1   
    12    6    8 ar  
    13    6   16 ar  
    14    6   26 1   
    15    7   18 ar  
    16    7   27 1   
    17    8   43 1   
    18    9   11 1   
    19    9   22 1   
    20    9   28 1   
    21    9   29 1   
    22   10   19 1   
    23   10   21 1   
    24   10   23 1   
    25   10   30 1   
    26   11   23 1   
    27   11   31 1   
    28   11   32 1   
    29   12   13 1   
    30   12   44 1   
    31   13   14 2   
    32   13   36 1   
    33   14   17 1   
    34   15   16 ar  
    35   16   37 1   
    36   17   18 ar  
    37   17   20 ar  
    38   18   38 1   
    39   19   20 ar  
    40   20   39 1   
    41   21   22 1   
    42   21   40 1   
    43   21   41 1   
    44   23   42 1   
    45   33   44 1   
    46   34   44 1   
    47   35   44 1   
@<TRIPOS>SUBSTRUCTURE
     1 1QG         1 TEMP              0 ****  ****    0 ROOT
