@<TRIPOS>MOLECULE
1QG
   44    39     1     0     0
SMALL
bcc


@<TRIPOS>ATOM
      1 N3         -0.5310    0.4960   -2.4780 n1        1 1QG     -0.143000
      2 C4          2.1680   -0.0410    1.9660 c1        1 1QG     -0.053000
      3 N2          2.6380    0.5300    3.0900 n2        1 1QG     -0.068000
      4 C7          4.0310   -2.9030    0.2590 c1        1 1QG     -0.173000
      5 C6          3.6620   -1.6410    0.6370 c1        1 1QG     -0.079000
      6 C9          2.1510   -3.8170    1.4850 c1        1 1QG     -0.128500
      7 C13         0.8390    0.5410   -2.3910 c1        1 1QG     -0.064000
      8 C8          3.2850   -4.0010    0.6750 c1        1 1QG      0.096000
      9 C18        -5.1260    0.6340   -2.1510 c3        1 1QG     -0.053000
     10 C16        -2.6520    0.5510   -1.4450 c3        1 1QG     -0.010000
     11 C19        -4.5790   -0.5270   -2.5520 c3        1 1QG     -0.116000
     12 C1          2.3690    2.7520    4.2260 c3        1 1QG     -0.061000
     13 N1          2.1240    1.8020    3.1670 n3        1 1QG     -0.114000
     14 C2          1.3370    2.0030    2.0840 c1        1 1QG     -0.103000
     15 C3          1.3550    0.8730    1.3340 c1        1 1QG     -0.146000
     16 C5          2.5190   -1.4510    1.4530 c1        1 1QG     -0.030000
     17 C10         1.7750   -2.5460    1.8680 c1        1 1QG     -0.128500
     18 F1          3.7250   -5.2160    0.4890 f         1 1QG     -0.105000
     19 C11         0.6980    0.6980   -0.0160 c1        1 1QG      0.045000
     20 C12         1.4550    0.6430   -1.1420 c1        1 1QG     -0.173000
     21 C14        -1.2830    0.5510   -1.3560 c1        1 1QG     -0.009000
     22 C15        -0.6680    0.6530   -0.1080 c2        1 1QG     -0.172000
     23 C17        -3.1900    1.7830   -2.2320 c3        1 1QG     -0.056000
     24 O1         -4.6320    1.7860   -2.3610 os        1 1QG     -0.269000
     25 N4         -3.1520   -0.5090   -2.4100 n3        1 1QG     -0.265000
     26 H7          4.8070   -3.0300   -0.2950 ha        1 1QG      0.150000
     27 H6          4.1860   -0.8710    0.3440 ha        1 1QG      0.150000
     28 H8          1.6180   -4.6040    1.7810 ha        1 1QG      0.151000
     29 H11         1.3810    0.5010   -3.2000 ha        1 1QG      0.162000
     30 H15        -6.0620    0.6560   -2.5490 h1        1 1QG      0.090000
     31 H16        -5.2350    0.5590   -1.1820 h1        1 1QG      0.090000
     32 H1         -3.0570    0.4730   -0.6080 h1        1 1QG      0.103000
     33 H17        -4.9360   -1.2400   -2.0170 h1        1 1QG      0.093000
     34 H18        -4.8280   -0.6990   -3.5710 h1        1 1QG      0.093000
     35 H3          2.7460    3.5160    3.8730 h1        1 1QG      0.101333
     36 H4          1.5200    2.9800    4.6670 h1        1 1QG      0.101333
     37 H2          2.9790    2.3610    4.8780 h1        1 1QG      0.101333
     38 H5          0.8420    2.8200    1.8780 DU        1 1QG      0.180000
     39 H9          0.9670   -2.4150    2.4460 ha        1 1QG      0.151000
     40 H10         2.4260    0.6750   -1.0780 ha        1 1QG      0.156000
     41 H12        -1.2040    0.6930    0.6910 ha        1 1QG      0.142000
     42 H14        -2.9250    2.5780   -1.7710 h1        1 1QG      0.096000
     43 H13        -2.7770    1.7870   -3.1550 h1        1 1QG      0.096000
     44 H19        -2.7670   -0.3840   -3.2240 hn        1 1QG      0.171000
@<TRIPOS>BOND
     1    1    7 1   
     2    2    3 1   
     3    2   15 1   
     4    3   13 1   
     5    4    8 1   
     6    4   26 1   
     7    5   16 1   
     8    5   27 1   
     9    6   17 1   
    10    6   28 1   
    11    7   29 1   
    12    8   18 1   
    13    9   11 1   
    14    9   24 1   
    15    9   30 1   
    16    9   31 1   
    17   10   21 1   
    18   10   23 1   
    19   10   25 1   
    20   10   32 1   
    21   11   25 1   
    22   11   33 1   
    23   11   34 1   
    24   12   13 1   
    25   12   35 1   
    26   12   36 1   
    27   12   37 1   
    28   13   14 1   
    29   14   15 1   
    30   17   39 1   
    31   19   20 1   
    32   19   22 1   
    33   20   40 1   
    34   21   22 1   
    35   22   41 1   
    36   23   24 1   
    37   23   42 1   
    38   23   43 1   
    39   25   44 1   
@<TRIPOS>SUBSTRUCTURE
     1 1QG         1 TEMP              0 ****  ****    0 ROOT
