@<TRIPOS>MOLECULE
1QJ
   32    26     1     0     0
SMALL
bcc


@<TRIPOS>ATOM
      1 N3         -0.5620   -0.9010   -3.4990 n1        1 1QJ     -0.149000
      2 C4         -1.3810    1.8790    3.4270 c1        1 1QJ     -0.174000
      3 N2          2.3900   -0.1660    2.1920 n2        1 1QJ     -0.113000
      4 C7          1.3390    0.2300    1.4440 c1        1 1QJ     -0.078000
      5 C6          0.3080    1.2650    1.8360 c1        1 1QJ      0.005500
      6 C9          2.4040   -1.3590    0.3420 c1        1 1QJ     -0.078000
      7 C13        -0.9080   -1.7300   -2.4740 c1        1 1QJ     -0.054000
      8 C8          1.3410   -0.5060    0.2940 c1        1 1QJ     -0.144000
      9 C1          0.4330    2.5920    1.4560 c2        1 1QJ     -0.135000
     10 C2         -0.3500    3.5630    2.0620 c1        1 1QJ     -0.115500
     11 C3         -1.2570    3.2060    3.0470 c1        1 1QJ      0.098000
     12 C5         -0.5990    0.9080    2.8210 c1        1 1QJ     -0.121000
     13 N1          3.0520   -1.1530    1.5070 n2        1 1QJ     -0.113000
     14 C10         0.6390   -0.6220   -1.0410 c1        1 1QJ      0.005500
     15 C11         0.9850    0.2070   -2.0690 c2        1 1QJ     -0.135000
     16 C12         0.3790    0.0660   -3.3070 c1        1 1QJ     -0.115500
     17 C14        -0.3030   -1.5900   -1.2350 c1        1 1QJ     -0.121000
     18 C15        -1.9950   -2.7630   -2.6720 c3        1 1QJ      0.031000
     19 O1         -2.6390   -2.5380   -3.9070 oh        1 1QJ     -0.318000
     20 F1         -1.9970    4.1470    3.6480 f         1 1QJ     -0.104000
     21 H4         -2.0200    1.6270    4.1220 ha        1 1QJ      0.150000
     22 H6          2.6530   -2.0050   -0.3470 DU        1 1QJ      0.230000
     23 H2          1.0720    2.8430    0.7620 ha        1 1QJ      0.145500
     24 H3         -0.2620    4.4980    1.7940 ha        1 1QJ      0.156500
     25 H5         -0.6860   -0.0270    3.0890 ha        1 1QJ      0.153000
     26 H1          3.7990   -1.5930    1.7900 DU        1 1QJ      0.230000
     27 H7          1.6590    0.9000   -1.9310 ha        1 1QJ      0.145500
     28 H8          0.6260    0.6590   -4.0420 ha        1 1QJ      0.156500
     29 H9         -0.5520   -2.1840   -0.5010 ha        1 1QJ      0.153000
     30 H10        -1.5990   -3.6590   -2.6690 h1        1 1QJ      0.096500
     31 H11        -2.6490   -2.6920   -1.9460 h1        1 1QJ      0.096500
     32 H12        -3.3200   -3.1020   -3.9940 ho        1 1QJ      0.215000
@<TRIPOS>BOND
     1    1    7 1   
     2    2   11 1   
     3    2   21 1   
     4    3    4 1   
     5    3   13 1   
     6    4    8 1   
     7    5    9 1   
     8    5   12 1   
     9    6    8 1   
    10    6   13 1   
    11    7   18 1   
    12    9   10 1   
    13    9   23 1   
    14   10   24 1   
    15   11   20 1   
    16   12   25 1   
    17   14   15 1   
    18   14   17 1   
    19   15   16 1   
    20   15   27 1   
    21   16   28 1   
    22   17   29 1   
    23   18   19 1   
    24   18   30 1   
    25   18   31 1   
    26   19   32 1   
@<TRIPOS>SUBSTRUCTURE
     1 1QJ         1 TEMP              0 ****  ****    0 ROOT
