@<TRIPOS>MOLECULE
1QJ
   32    34     1     0     0
SMALL
bcc


@<TRIPOS>ATOM
      1 N3          0.0560    0.0310   -0.2440 nb        1 1QJ     -0.672000
      2 C4         -0.9860    2.9930    6.3220 ca        1 1QJ     -0.172000
      3 N2          2.6810    0.6860    5.6980 nc        1 1QJ     -0.507800
      4 C7          1.7710    1.0050    4.7240 cd        1 1QJ      0.377800
      5 C6          0.7220    1.9940    4.9180 ca        1 1QJ     -0.135500
      6 C9          3.1910   -0.5400    3.8630 cc        1 1QJ     -0.125300
      7 C13         1.3990   -0.1550   -0.1460 ca        1 1QJ      0.397600
      8 C8          2.0620    0.2320    3.5220 cd        1 1QJ     -0.205300
      9 C1          0.4390    2.9300    3.9130 ca        1 1QJ     -0.083000
     10 C2         -0.5460    3.8930    4.0970 ca        1 1QJ     -0.172000
     11 C3         -1.2640    3.9260    5.3070 ca        1 1QJ      0.129900
     12 C5          0.0050    2.0380    6.1230 ca        1 1QJ     -0.083000
     13 N1          3.5030   -0.2220    5.1810 na        1 1QJ     -0.008600
     14 C10         1.3760    0.1910    2.2570 ca        1 1QJ      0.037000
     15 C11        -0.0090    0.3860    2.1580 ca        1 1QJ     -0.239300
     16 C12        -0.6110    0.2960    0.8910 ca        1 1QJ      0.397200
     17 C14         2.0900   -0.0820    1.0770 ca        1 1QJ     -0.219300
     18 C15         2.1540   -0.4320   -1.4230 c3        1 1QJ      0.080100
     19 O1          3.4520   -0.9010   -1.0860 oh        1 1QJ     -0.607800
     20 F1         -2.2270    4.8610    5.4950 f         1 1QJ     -0.140900
     21 H6          3.7560   -1.2670    3.2790 h4        1 1QJ      0.186000
     22 H2          1.0030    2.8970    2.9670 ha        1 1QJ      0.149500
     23 H3         -0.7670    4.6290    3.3110 ha        1 1QJ      0.150500
     24 H5          0.2280    1.3120    6.9210 ha        1 1QJ      0.149500
     25 H1          4.2500   -0.5850    5.7260 hn        1 1QJ      0.326700
     26 H7         -0.6110    0.6050    3.0500 ha        1 1QJ      0.154000
     27 H8         -1.7010    0.4420    0.7770 h4        1 1QJ      0.023100
     28 H9          3.1780   -0.2400    1.1010 ha        1 1QJ      0.160000
     29 H10         1.6180   -1.2060   -2.0390 h1        1 1QJ      0.047700
     30 H11         2.2380    0.5200   -2.0180 h1        1 1QJ      0.047700
     31 H12         3.8850   -1.1110   -1.9220 ho        1 1QJ      0.407000
     32 H4         -1.5500    3.0280    7.2650 ha        1 1QJ      0.150500
@<TRIPOS>BOND
     1    1    7 ar  
     2    1   16 ar  
     3    2   11 ar  
     4    2   12 ar  
     5    2   32 1   
     6    3    4 2   
     7    3   13 1   
     8    4    5 1   
     9    4    8 1   
    10    5    9 ar  
    11    5   12 ar  
    12    6    8 2   
    13    6   13 1   
    14    6   21 1   
    15    7   17 ar  
    16    7   18 1   
    17    8   14 1   
    18    9   10 ar  
    19    9   22 1   
    20   10   11 ar  
    21   10   23 1   
    22   11   20 1   
    23   12   24 1   
    24   13   25 1   
    25   14   15 ar  
    26   14   17 ar  
    27   15   16 ar  
    28   15   26 1   
    29   16   27 1   
    30   17   28 1   
    31   18   19 1   
    32   18   29 1   
    33   18   30 1   
    34   19   31 1   
@<TRIPOS>SUBSTRUCTURE
     1 1QJ         1 TEMP              0 ****  ****    0 ROOT
