@<TRIPOS>MOLECULE
1QJ
   32    34     1     0     0
SMALL
bcc


@<TRIPOS>ATOM
      1 N3         -2.7900    2.1680    0.8810 nb        1 1QJ     -0.672000
      2 C4          4.1560    0.0200    0.5490 ca        1 1QJ     -0.172000
      3 N2          1.0710   -2.9540   -0.3380 nc        1 1QJ     -0.507800
      4 C7          0.8450   -1.6190   -0.1270 cd        1 1QJ      0.377800
      5 C6          1.9140   -0.6320   -0.1080 ca        1 1QJ     -0.135500
      6 C9         -1.1650   -2.6700   -0.1030 cc        1 1QJ     -0.125300
      7 C13        -3.3240    1.1660    0.1350 ca        1 1QJ      0.397600
      8 C8         -0.5870   -1.3910    0.0340 cd        1 1QJ     -0.205300
      9 C1          1.7530    0.5950   -0.7680 ca        1 1QJ     -0.083000
     10 C2          2.7760    1.5350   -0.7750 ca        1 1QJ     -0.172000
     11 C3          3.9850    1.2490   -0.1130 ca        1 1QJ      0.129900
     12 C5          3.1230   -0.9120    0.5440 ca        1 1QJ     -0.083000
     13 N1         -0.1150   -3.5570   -0.3180 na        1 1QJ     -0.008600
     14 C10        -1.3080   -0.1760    0.3070 ca        1 1QJ      0.037000
     15 C11        -0.7540    0.8580    1.0750 ca        1 1QJ     -0.239300
     16 C12        -1.5350    1.9990    1.3280 ca        1 1QJ      0.397200
     17 C14        -2.6190   -0.0120   -0.1730 ca        1 1QJ     -0.219300
     18 C15        -4.7260    1.3640   -0.3870 c3        1 1QJ      0.080100
     19 O1         -5.2120    0.1140   -0.8580 oh        1 1QJ     -0.607800
     20 F1          4.9870    2.1610   -0.1150 f         1 1QJ     -0.140900
     21 H6         -2.2070   -2.9860   -0.0540 h4        1 1QJ      0.186000
     22 H2          0.8030    0.8150   -1.2820 ha        1 1QJ      0.149500
     23 H3          2.6530    2.4970   -1.2940 ha        1 1QJ      0.150500
     24 H5          3.2610   -1.8770    1.0560 ha        1 1QJ      0.149500
     25 H1         -0.1770   -4.5380   -0.4630 hn        1 1QJ      0.326700
     26 H7          0.2680    0.7790    1.4710 ha        1 1QJ      0.154000
     27 H8         -1.1300    2.8320    1.9310 h4        1 1QJ      0.023100
     28 H9         -3.0980   -0.7930   -0.7820 ha        1 1QJ      0.160000
     29 H10        -5.3990    1.7500    0.4270 h1        1 1QJ      0.047700
     30 H11        -4.7060    2.1040   -1.2340 h1        1 1QJ      0.047700
     31 H12        -6.1220    0.2700   -1.1370 ho        1 1QJ      0.407000
     32 H4          5.1050   -0.1960    1.0610 ha        1 1QJ      0.150500
@<TRIPOS>BOND
     1    1    7 ar  
     2    1   16 ar  
     3    2   11 ar  
     4    2   12 ar  
     5    2   32 1   
     6    3    4 2   
     7    3   13 1   
     8    4    5 1   
     9    4    8 1   
    10    5    9 ar  
    11    5   12 ar  
    12    6    8 2   
    13    6   13 1   
    14    6   21 1   
    15    7   17 ar  
    16    7   18 1   
    17    8   14 1   
    18    9   10 ar  
    19    9   22 1   
    20   10   11 ar  
    21   10   23 1   
    22   11   20 1   
    23   12   24 1   
    24   13   25 1   
    25   14   15 ar  
    26   14   17 ar  
    27   15   16 ar  
    28   15   26 1   
    29   16   27 1   
    30   17   28 1   
    31   18   19 1   
    32   18   29 1   
    33   18   30 1   
    34   19   31 1   
@<TRIPOS>SUBSTRUCTURE
     1 1QJ         1 TEMP              0 ****  ****    0 ROOT
