@<TRIPOS>MOLECULE
1QJ
   32    34     1     0     0
SMALL
bcc


@<TRIPOS>ATOM
      1 N3          0.0490    0.0020   -0.2320 nb        1 1QJ     -0.672000
      2 C4         -0.9840    3.0020    6.3190 ca        1 1QJ     -0.172000
      3 N2          2.6970    0.7180    5.6930 nc        1 1QJ     -0.507800
      4 C7          1.7800    1.0230    4.7200 cd        1 1QJ      0.377800
      5 C6          0.7240    2.0050    4.9130 ca        1 1QJ     -0.135500
      6 C9          3.2080   -0.5180    3.8640 cc        1 1QJ     -0.125300
      7 C13         1.3930   -0.1730   -0.1400 ca        1 1QJ      0.397600
      8 C8          2.0700    0.2440    3.5220 cd        1 1QJ     -0.205300
      9 C1          0.4300    2.9320    3.9020 ca        1 1QJ     -0.083000
     10 C2         -0.5620    3.8890    4.0850 ca        1 1QJ     -0.172000
     11 C3         -1.2740    3.9260    5.2980 ca        1 1QJ      0.129900
     12 C5          0.0140    2.0520    6.1210 ca        1 1QJ     -0.083000
     13 N1          3.5230   -0.1880    5.1770 na        1 1QJ     -0.008600
     14 C10         1.3790    0.1890    2.2610 ca        1 1QJ      0.037000
     15 C11        -0.0070    0.3720    2.1680 ca        1 1QJ     -0.239300
     16 C12        -0.6150    0.2690    0.9040 ca        1 1QJ      0.397200
     17 C14         2.0900   -0.0860    1.0800 ca        1 1QJ     -0.219300
     18 C15         2.1440   -0.4520   -1.4190 c3        1 1QJ      0.080100
     19 O1          3.4480   -0.9080   -1.0850 oh        1 1QJ     -0.607800
     20 F1         -2.2420    4.8540    5.4840 f         1 1QJ     -0.140900
     21 H6          3.7750   -1.2440    3.2820 h4        1 1QJ      0.186000
     22 H2          0.9890    2.8960    2.9540 ha        1 1QJ      0.149500
     23 H3         -0.7920    4.6170    3.2950 ha        1 1QJ      0.150500
     24 H5          0.2460    1.3350    6.9230 ha        1 1QJ      0.149500
     25 H1          4.2760   -0.5420    5.7210 hn        1 1QJ      0.326700
     26 H7         -0.6070    0.5930    3.0610 ha        1 1QJ      0.154000
     27 H8         -1.7060    0.4060    0.7950 h4        1 1QJ      0.023100
     28 H9          3.1790   -0.2360    1.0990 ha        1 1QJ      0.160000
     29 H10         1.6120   -1.2350   -2.0260 h1        1 1QJ      0.047700
     30 H11         2.2180    0.4960   -2.0200 h1        1 1QJ      0.047700
     31 H12         3.8780   -1.1200   -1.9220 ho        1 1QJ      0.407000
     32 H4         -1.5430    3.0400    7.2640 ha        1 1QJ      0.150500
@<TRIPOS>BOND
     1    1    7 ar  
     2    1   16 ar  
     3    2   11 ar  
     4    2   12 ar  
     5    2   32 1   
     6    3    4 2   
     7    3   13 1   
     8    4    5 1   
     9    4    8 1   
    10    5    9 ar  
    11    5   12 ar  
    12    6    8 2   
    13    6   13 1   
    14    6   21 1   
    15    7   17 ar  
    16    7   18 1   
    17    8   14 1   
    18    9   10 ar  
    19    9   22 1   
    20   10   11 ar  
    21   10   23 1   
    22   11   20 1   
    23   12   24 1   
    24   13   25 1   
    25   14   15 ar  
    26   14   17 ar  
    27   15   16 ar  
    28   15   26 1   
    29   16   27 1   
    30   17   28 1   
    31   18   19 1   
    32   18   29 1   
    33   18   30 1   
    34   19   31 1   
@<TRIPOS>SUBSTRUCTURE
     1 1QJ         1 TEMP              0 ****  ****    0 ROOT
