@<TRIPOS>MOLECULE
1QK
   58    55     1     0     0
SMALL
bcc


@<TRIPOS>ATOM
      1 C10        -0.3150   -0.0170   -0.8780 c1        1 1QK     -0.179000
      2 N12        -2.4600    0.0640    0.5590 n3        1 1QK     -0.269000
      3 C13        -3.2560   -1.1530    0.4220 c3        1 1QK     -0.038000
      4 C15        -5.4490   -0.4600   -0.5670 c1        1 1QK      0.017000
      5 C17        -7.4150   -0.3090    0.7670 c1        1 1QK     -0.067000
      6 C22         0.7910   -0.5730   -3.1950 c3        1 1QK     -0.060000
      7 C24         2.2050    1.2540   -4.0920 c3        1 1QK     -0.158000
      8 C26         3.0180   -0.2050   -2.2530 c3        1 1QK     -0.003000
      9 C28         5.2990   -0.5060   -1.1640 c3        1 1QK     -0.022000
     10 C01         2.9180    1.4060    4.5540 c3        1 1QK     -0.209000
     11 C02         2.7200    0.2220    3.6610 c3        1 1QK     -0.090000
     12 C03         1.4720    0.4350    2.8030 c2        1 1QK     -0.148000
     13 C04         0.3710    0.3560    3.6190 c1        1 1QK     -0.038000
     14 N05        -0.7370    0.2100    2.8230 n2        1 1QK     -0.132000
     15 N06        -0.3180    0.1980    1.4970 n2        1 1QK     -0.132000
     16 C07         1.0370    0.3360    1.4830 c1        1 1QK     -0.038000
     17 N08         1.7280    0.2980    0.2770 n1        1 1QK     -0.138000
     18 C09         1.0520    0.1220   -0.8910 c1        1 1QK      0.119000
     19 C11        -1.0020    0.0220    0.3230 c1        1 1QK      0.108000
     20 C14        -4.7290   -0.8130    0.5500 c2        1 1QK     -0.072000
     21 C16        -6.7830   -0.2090   -0.4640 c1        1 1QK     -0.067000
     22 N18        -6.6980   -0.6600    1.8810 n2        1 1QK      0.054000
     23 C19        -5.3610   -0.9120    1.7800 c2        1 1QK     -0.003000
     24 O20        -7.3130   -0.7000    3.1070 oh        1 1QK     -0.156000
     25 N21         1.6510   -0.6620   -2.0030 n3        1 1QK     -0.208000
     26 C23         0.8270    0.7910   -3.8320 c3        1 1QK     -0.188000
     27 C25         3.0630    1.1650   -2.8890 c3        1 1QK     -0.187000
     28 C27         3.7850   -0.1630   -0.9140 c3        1 1QK     -0.156000
     29 O29         5.6810   -1.6270   -0.3370 oh        1 1QK     -0.334000
     30 H1         -0.8000   -0.1420   -1.7110 ha        1 1QK      0.171000
     31 H2         -2.8620    0.8520    0.8410 hn        1 1QK      0.203000
     32 H3         -3.0910   -1.5550   -0.4560 h1        1 1QK      0.130000
     33 H4         -3.0060   -1.7870    1.1220 h1        1 1QK      0.130000
     34 H5         -5.0030   -0.3910   -1.4390 ha        1 1QK      0.210000
     35 H6         -8.3740   -0.1280    0.8390 ha        1 1QK      0.214500
     36 H7         -0.1190   -0.7740   -2.9380 h1        1 1QK      0.096500
     37 H8          1.0940   -1.2470   -3.8620 h1        1 1QK      0.096500
     38 H9          2.5990    0.6980   -4.8070 hc        1 1QK      0.088000
     39 H10         2.1760    2.1840   -4.3930 hc        1 1QK      0.088000
     40 H11         3.4580   -0.8410   -2.8470 h1        1 1QK      0.121000
     41 H12         5.4290   -0.7380   -2.1110 h1        1 1QK      0.067000
     42 H13         5.8550    0.2740   -0.9370 h1        1 1QK      0.067000
     43 H14         3.2980    2.1460    4.0350 hc        1 1QK      0.078000
     44 H15         2.0640    1.6770    4.9270 hc        1 1QK      0.078000
     45 H16         3.5330    1.1670    5.2830 hc        1 1QK      0.078000
     46 H17         2.6080   -0.5790    4.2040 hc        1 1QK      0.097500
     47 H18         3.5010    0.1170    3.0810 hc        1 1QK      0.097500
     48 H19         0.3700    0.4500    4.5980 DU        1 1QK      0.190000
     49 H20        -7.2920    0.0400   -1.2530 ha        1 1QK      0.214500
     50 H21        -4.8540   -1.1610    2.5670 h4        1 1QK      0.223000
     51 H22        -7.4420   -1.5390    3.3430 ho        1 1QK      0.264000
     52 H23         0.3310    0.7560   -4.6940 hc        1 1QK      0.093500
     53 H24         0.3880    1.4250   -3.2420 hc        1 1QK      0.093500
     54 H25         3.9770    1.3630   -3.1410 hc        1 1QK      0.098000
     55 H26         2.7630    1.8290   -2.2340 hc        1 1QK      0.098000
     56 H27         3.3990   -0.8220   -0.2950 hc        1 1QK      0.102500
     57 H28         3.7130    0.7330   -0.5230 hc        1 1QK      0.102500
     58 H29         6.5030   -1.9180   -0.5830 ho        1 1QK      0.203000
@<TRIPOS>BOND
     1    1   19 1   
     2    1   30 1   
     3    2    3 1   
     4    2   19 1   
     5    2   31 1   
     6    3   20 1   
     7    3   32 1   
     8    3   33 1   
     9    4   20 1   
    10    4   34 1   
    11    5   21 1   
    12    5   35 1   
    13    6   25 1   
    14    6   26 1   
    15    6   36 1   
    16    6   37 1   
    17    7   26 1   
    18    7   27 1   
    19    7   38 1   
    20    7   39 1   
    21    8   25 1   
    22    8   27 1   
    23    8   28 1   
    24    8   40 1   
    25    9   28 1   
    26    9   29 1   
    27    9   41 1   
    28    9   42 1   
    29   10   11 1   
    30   10   43 1   
    31   10   44 1   
    32   10   45 1   
    33   11   12 1   
    34   11   46 1   
    35   11   47 1   
    36   12   13 1   
    37   12   16 1   
    38   13   14 1   
    39   14   15 1   
    40   15   16 1   
    41   17   18 1   
    42   18   25 1   
    43   20   23 1   
    44   21   49 1   
    45   22   23 1   
    46   22   24 1   
    47   23   50 1   
    48   24   51 1   
    49   26   52 1   
    50   26   53 1   
    51   27   54 1   
    52   27   55 1   
    53   28   56 1   
    54   28   57 1   
    55   29   58 1   
@<TRIPOS>SUBSTRUCTURE
     1 1QK         1 TEMP              0 ****  ****    0 ROOT
