@<TRIPOS>MOLECULE
1QK
   58    61     1     0     0
SMALL
bcc


@<TRIPOS>ATOM
      1 C10         0.0960   -0.5640   -0.0210 cc        1 1QK     -0.242300
      2 N12        -1.9320   -0.8720    1.3060 nu        1 1QK     -0.720600
      3 C13        -2.9190    0.0740    1.7920 c3        1 1QK      0.202100
      4 C15        -5.4230    0.2140    1.9700 ca        1 1QK     -0.012000
      5 C17        -6.8560   -0.6260    0.2070 ca        1 1QK     -0.021300
      6 C22         1.6780    0.3630   -2.5160 c3        1 1QK      0.175800
      7 C24         3.9230    1.4450   -2.7340 c3        1 1QK     -0.079400
      8 C26         3.5730   -0.6460   -1.3830 c3        1 1QK      0.194500
      9 C28         5.2620   -2.3270   -0.6150 c3        1 1QK      0.133400
     10 C01         2.9000    3.4580    4.0750 c3        1 1QK     -0.091100
     11 C02         3.0490    2.0540    3.5360 c3        1 1QK     -0.010200
     12 C03         1.7610    1.4400    3.1980 cc        1 1QK     -0.228800
     13 C04         0.5910    1.3350    4.0290 cc        1 1QK      0.393500
     14 N05        -0.4260    0.6800    3.4010 nd        1 1QK     -0.607100
     15 N06         0.0340    0.3520    2.1870 na        1 1QK     -0.001800
     16 C07         1.4030    0.7950    1.9830 cd        1 1QK      0.379500
     17 N08         2.0950    0.5800    0.8190 nd        1 1QK     -0.651000
     18 C09         1.4770   -0.0950   -0.1560 cc        1 1QK      0.631200
     19 C11        -0.6070   -0.3540    1.1520 cd        1 1QK      0.166300
     20 C14        -4.2940   -0.1910    1.2390 ca        1 1QK     -0.081300
     21 C16        -6.7020   -0.0040    1.4480 ca        1 1QK     -0.135000
     22 N18        -5.7390   -1.0010   -0.5070 na        1 1QK      0.121800
     23 C19        -4.4700   -0.8120   -0.0070 ca        1 1QK     -0.003300
     24 O20        -5.8990   -1.7130   -1.6150 oh        1 1QK     -0.376200
     25 N21         2.1150   -0.4560   -1.3870 nh        1 1QK     -0.718300
     26 C23         2.4280    1.6810   -2.6990 c3        1 1QK     -0.109400
     27 C25         4.3830    0.6510   -1.5290 c3        1 1QK     -0.108400
     28 C27         4.0900   -1.4550   -0.1890 c3        1 1QK     -0.085400
     29 O29         5.6750   -3.0380    0.5410 oh        1 1QK     -0.599800
     30 H1         -0.3610   -1.1200   -0.8530 ha        1 1QK      0.170000
     31 H2         -1.9100   -1.6990    1.8800 hn        1 1QK      0.406800
     32 H3         -2.6340    1.1240    1.4810 h1        1 1QK      0.095700
     33 H4         -2.9950    0.0700    2.9210 h1        1 1QK      0.095700
     34 H5         -5.3010    0.6990    2.9570 ha        1 1QK      0.197000
     35 H6         -7.8440   -0.8460   -0.2490 h4        1 1QK      0.224000
     36 H7          0.5770    0.5690   -2.4120 h1        1 1QK      0.052700
     37 H8          1.8290   -0.2750   -3.4350 h1        1 1QK      0.052700
     38 H9          4.1910    0.8920   -3.6730 hc        1 1QK      0.048200
     39 H10         4.4590    2.4300   -2.7610 hc        1 1QK      0.048200
     40 H11         3.7470   -1.2600   -2.3230 h1        1 1QK      0.062700
     41 H12         4.9520   -3.0510   -1.4160 h1        1 1QK      0.023200
     42 H13         6.1070   -1.6970   -1.0030 h1        1 1QK      0.023200
     43 H14         2.4480    4.1310    3.3080 hc        1 1QK      0.038033
     44 H15         3.9010    3.8640    4.3570 hc        1 1QK      0.038033
     45 H16         2.2460    3.4670    4.9810 hc        1 1QK      0.038033
     46 H17         3.7120    2.0720    2.6280 hc        1 1QK      0.062700
     47 H18         3.5640    1.4130    4.3060 hc        1 1QK      0.062700
     48 H19         0.4770    1.7140    5.0480 h4        1 1QK      0.061800
     49 H20        -7.6060    0.3020    2.0060 ha        1 1QK      0.206000
     50 H21        -3.6240   -1.1750   -0.6310 h4        1 1QK      0.237000
     51 H22        -5.8570   -1.0930   -2.3820 ho        1 1QK      0.464000
     52 H23         2.0910    2.1560   -3.6550 hc        1 1QK      0.052700
     53 H24         2.1760    2.3820   -1.8610 hc        1 1QK      0.052700
     54 H25         5.4640    0.3790   -1.6450 hc        1 1QK      0.062200
     55 H26         4.2890    1.2740   -0.6020 hc        1 1QK      0.062200
     56 H27         3.2900   -2.1190    0.2320 hc        1 1QK      0.069200
     57 H28         4.4260   -0.7710    0.6330 hc        1 1QK      0.069200
     58 H29         6.4490   -3.5530    0.2860 ho        1 1QK      0.406000
@<TRIPOS>BOND
     1    1   18 1   
     2    1   19 2   
     3    1   30 1   
     4    2    3 1   
     5    2   19 1   
     6    2   31 1   
     7    3   20 1   
     8    3   32 1   
     9    3   33 1   
    10    4   20 ar  
    11    4   21 ar  
    12    4   34 1   
    13    5   21 ar  
    14    5   22 2   
    15    5   35 1   
    16    6   25 1   
    17    6   26 1   
    18    6   36 1   
    19    6   37 1   
    20    7   26 1   
    21    7   27 1   
    22    7   38 1   
    23    7   39 1   
    24    8   25 1   
    25    8   27 1   
    26    8   28 1   
    27    8   40 1   
    28    9   28 1   
    29    9   29 1   
    30    9   41 1   
    31    9   42 1   
    32   10   11 1   
    33   10   43 1   
    34   10   44 1   
    35   10   45 1   
    36   11   12 1   
    37   11   46 1   
    38   11   47 1   
    39   12   13 1   
    40   12   16 2   
    41   13   14 2   
    42   13   48 1   
    43   14   15 1   
    44   15   16 1   
    45   15   19 1   
    46   16   17 1   
    47   17   18 2   
    48   18   25 1   
    49   20   23 ar  
    50   21   49 1   
    51   22   23 1   
    52   22   24 1   
    53   23   50 1   
    54   24   51 1   
    55   26   52 1   
    56   26   53 1   
    57   27   54 1   
    58   27   55 1   
    59   28   56 1   
    60   28   57 1   
    61   29   58 1   
@<TRIPOS>SUBSTRUCTURE
     1 1QK         1 TEMP              0 ****  ****    0 ROOT
