@<TRIPOS>MOLECULE
1QK
   58    61     1     0     0
SMALL
bcc


@<TRIPOS>ATOM
      1 C10         0.0940   -0.5690   -0.0130 cc        1 1QK     -0.242300
      2 N12        -1.9420   -0.8430    1.3090 nh        1 1QK     -0.720600
      3 C13        -2.9240    0.1160    1.7790 c3        1 1QK      0.202100
      4 C15        -5.4280    0.2720    1.9470 ca        1 1QK     -0.012000
      5 C17        -6.8590   -0.5770    0.1860 ca        1 1QK     -0.021300
      6 C22         1.6950    0.3110   -2.5140 c3        1 1QK      0.175800
      7 C24         3.9500    1.3720   -2.7370 c3        1 1QK     -0.079400
      8 C26         3.5760   -0.6970   -1.3580 c3        1 1QK      0.194500
      9 C28         5.2480   -2.3800   -0.5570 c3        1 1QK      0.133400
     10 C01         2.9090    3.4920    4.0360 c3        1 1QK     -0.091100
     11 C02         3.0510    2.0790    3.5190 c3        1 1QK     -0.010200
     12 C03         1.7600    1.4700    3.1840 cc        1 1QK     -0.228800
     13 C04         0.5850    1.3840    4.0110 cc        1 1QK      0.393500
     14 N05        -0.4330    0.7280    3.3890 nd        1 1QK     -0.607100
     15 N06         0.0300    0.3800    2.1810 na        1 1QK     -0.001800
     16 C07         1.4030    0.8090    1.9770 cd        1 1QK      0.379500
     17 N08         2.0970    0.5730    0.8190 nd        1 1QK     -0.651000
     18 C09         1.4790   -0.1110   -0.1490 cc        1 1QK      0.631200
     19 C11        -0.6120   -0.3370    1.1540 cd        1 1QK      0.166300
     20 C14        -4.2990   -0.1470    1.2240 ca        1 1QK     -0.081300
     21 C16        -6.7060    0.0570    1.4210 ca        1 1QK     -0.135000
     22 N18        -5.7420   -0.9660   -0.5190 na        1 1QK      0.121800
     23 C19        -4.4740   -0.7790   -0.0170 ca        1 1QK     -0.003300
     24 O20        -5.9010   -1.6870   -1.6210 oh        1 1QK     -0.376200
     25 N21         2.1200   -0.4950   -1.3720 nh        1 1QK     -0.718300
     26 C23         2.4570    1.6200   -2.7120 c3        1 1QK     -0.109400
     27 C25         4.3970    0.5920   -1.5190 c3        1 1QK     -0.108400
     28 C27         4.0810   -1.4920   -0.1500 c3        1 1QK     -0.085400
     29 O29         5.6490   -3.0790    0.6100 oh        1 1QK     -0.599800
     30 H1         -0.3630   -1.1330   -0.8390 ha        1 1QK      0.170000
     31 H2         -1.9270   -1.6630    1.8930 hn        1 1QK      0.406800
     32 H3         -3.0040    0.1270    2.9080 h1        1 1QK      0.095700
     33 H4         -2.6300    1.1600    1.4560 h1        1 1QK      0.095700
     34 H5         -5.3070    0.7660    2.9290 ha        1 1QK      0.197000
     35 H6         -7.8470   -0.7950   -0.2710 h4        1 1QK      0.224000
     36 H7          0.5950    0.5280   -2.4180 h1        1 1QK      0.052700
     37 H8          1.8440   -0.3400   -3.4230 h1        1 1QK      0.052700
     38 H9          4.2180    0.8030   -3.6670 hc        1 1QK      0.048200
     39 H10         4.4940    2.3520   -2.7760 hc        1 1QK      0.048200
     40 H11         3.7490   -1.3260   -2.2880 h1        1 1QK      0.062700
     41 H12         4.9360   -3.1120   -1.3500 h1        1 1QK      0.023200
     42 H13         6.1000   -1.7620   -0.9500 h1        1 1QK      0.023200
     43 H14         2.4660    4.1570    3.2560 hc        1 1QK      0.038033
     44 H15         2.2510    3.5200    4.9380 hc        1 1QK      0.038033
     45 H16         3.9120    3.8950    4.3170 hc        1 1QK      0.038033
     46 H17         3.7180    2.0780    2.6140 hc        1 1QK      0.062700
     47 H18         3.5570    1.4460    4.3020 hc        1 1QK      0.062700
     48 H19         0.4700    1.7780    5.0250 h4        1 1QK      0.061800
     49 H20        -7.6100    0.3730    1.9740 ha        1 1QK      0.206000
     50 H21        -3.6270   -1.1530   -0.6340 h4        1 1QK      0.237000
     51 H22        -5.8550   -1.0750   -2.3940 ho        1 1QK      0.464000
     52 H23         2.1280    2.0840   -3.6770 hc        1 1QK      0.052700
     53 H24         2.2070    2.3360   -1.8860 hc        1 1QK      0.052700
     54 H25         5.4770    0.3090   -1.6250 hc        1 1QK      0.062200
     55 H26         4.3040    1.2280   -0.6010 hc        1 1QK      0.062200
     56 H27         4.4180   -0.8000    0.6640 hc        1 1QK      0.069200
     57 H28         3.2740   -2.1440    0.2760 hc        1 1QK      0.069200
     58 H29         6.4210   -3.6030    0.3670 ho        1 1QK      0.406000
@<TRIPOS>BOND
     1    1   18 1   
     2    1   19 2   
     3    1   30 1   
     4    2    3 1   
     5    2   19 1   
     6    2   31 1   
     7    3   20 1   
     8    3   32 1   
     9    3   33 1   
    10    4   20 ar  
    11    4   21 ar  
    12    4   34 1   
    13    5   21 ar  
    14    5   22 2   
    15    5   35 1   
    16    6   25 1   
    17    6   26 1   
    18    6   36 1   
    19    6   37 1   
    20    7   26 1   
    21    7   27 1   
    22    7   38 1   
    23    7   39 1   
    24    8   25 1   
    25    8   27 1   
    26    8   28 1   
    27    8   40 1   
    28    9   28 1   
    29    9   29 1   
    30    9   41 1   
    31    9   42 1   
    32   10   11 1   
    33   10   43 1   
    34   10   44 1   
    35   10   45 1   
    36   11   12 1   
    37   11   46 1   
    38   11   47 1   
    39   12   13 1   
    40   12   16 2   
    41   13   14 2   
    42   13   48 1   
    43   14   15 1   
    44   15   16 1   
    45   15   19 1   
    46   16   17 1   
    47   17   18 2   
    48   18   25 1   
    49   20   23 ar  
    50   21   49 1   
    51   22   23 1   
    52   22   24 1   
    53   23   50 1   
    54   24   51 1   
    55   26   52 1   
    56   26   53 1   
    57   27   54 1   
    58   27   55 1   
    59   28   56 1   
    60   28   57 1   
    61   29   58 1   
@<TRIPOS>SUBSTRUCTURE
     1 1QK         1 TEMP              0 ****  ****    0 ROOT
