@<TRIPOS>MOLECULE
1QK
   58    61     1     0     0
SMALL
bcc


@<TRIPOS>ATOM
      1 C10         0.0020   -0.6370    0.6750 cc        1 1QK     -0.242300
      2 N12        -2.0880    0.6260    0.6790 nh        1 1QK     -0.720600
      3 C13        -3.0160    0.9580   -0.3860 c3        1 1QK      0.202100
      4 C15        -5.5070    1.0090   -0.7290 ca        1 1QK     -0.012000
      5 C17        -6.9380   -0.7100    0.2040 ca        1 1QK     -0.021300
      6 C22         1.7380   -3.1490    0.1620 c3        1 1QK      0.175800
      7 C24         4.0660   -3.3900   -0.7230 c3        1 1QK     -0.079400
      8 C26         3.5090   -1.8270    1.1660 c3        1 1QK      0.194500
      9 C28         5.0360   -0.8010    2.8640 c3        1 1QK      0.133400
     10 C01         2.9630    3.0990   -3.5790 c3        1 1QK     -0.091100
     11 C02         3.0220    2.7290   -2.1150 c3        1 1QK     -0.010200
     12 C03         1.7030    2.4050   -1.5620 cc        1 1QK     -0.228800
     13 C04         0.5000    3.1910   -1.6390 cc        1 1QK      0.393500
     14 N05        -0.5410    2.5970   -0.9910 nd        1 1QK     -0.607100
     15 N06        -0.0660    1.4480   -0.4930 na        1 1QK     -0.001800
     16 C07         1.3400    1.2570   -0.8080 cd        1 1QK      0.379500
     17 N08         2.0530    0.1550   -0.4100 nd        1 1QK     -0.651000
     18 C09         1.4200   -0.7630    0.3260 cc        1 1QK      0.631200
     19 C11        -0.7220    0.4730    0.2810 cd        1 1QK      0.166300
     20 C14        -4.3870    0.3790   -0.1600 ca        1 1QK     -0.081300
     21 C16        -6.7790    0.4580   -0.5470 ca        1 1QK     -0.135000
     22 N18        -5.8280   -1.3250    0.7400 na        1 1QK      0.121800
     23 C19        -4.5670   -0.7950    0.5880 ca        1 1QK     -0.003300
     24 O20        -6.0040   -2.3520    1.5630 oh        1 1QK     -0.376200
     25 N21         2.0710   -1.9170    0.8730 nh        1 1QK     -0.718300
     26 C23         2.5930   -3.4470   -1.0690 c3        1 1QK     -0.109400
     27 C25         4.4200   -2.0840   -0.0440 c3        1 1QK     -0.108400
     28 C27         3.9200   -0.5280    1.8660 c3        1 1QK     -0.085400
     29 O29         5.3530    0.4440    3.4650 oh        1 1QK     -0.599800
     30 H1         -0.4670   -1.4200    1.2890 ha        1 1QK      0.170000
     31 H2         -2.1510    1.2900    1.4330 hn        1 1QK      0.406800
     32 H3         -3.1320    2.0760   -0.5190 h1        1 1QK      0.095700
     33 H4         -2.6390    0.5430   -1.3700 h1        1 1QK      0.095700
     34 H5         -5.3820    1.9390   -1.3160 ha        1 1QK      0.197000
     35 H6         -7.9230   -1.1800    0.4020 h4        1 1QK      0.224000
     36 H7          1.8710   -3.9820    0.9110 h1        1 1QK      0.052700
     37 H8          0.6530   -3.1170   -0.1350 h1        1 1QK      0.052700
     38 H9          4.3240   -4.2480   -0.0470 hc        1 1QK      0.048200
     39 H10         4.6760   -3.5050   -1.6570 hc        1 1QK      0.048200
     40 H11         3.6680   -2.6830    1.8960 h1        1 1QK      0.062700
     41 H12         4.6990   -1.5280    3.6520 h1        1 1QK      0.023200
     42 H13         5.9400   -1.2220    2.3460 h1        1 1QK      0.023200
     43 H14         2.2800    3.9680   -3.7400 hc        1 1QK      0.038033
     44 H15         3.9820    3.3770   -3.9410 hc        1 1QK      0.038033
     45 H16         2.5920    2.2410   -4.1900 hc        1 1QK      0.038033
     46 H17         3.7160    1.8540   -1.9790 hc        1 1QK      0.062700
     47 H18         3.4580    3.5880   -1.5320 hc        1 1QK      0.062700
     48 H19         0.3800    4.1550   -2.1400 h4        1 1QK      0.061800
     49 H20        -7.6750    0.9380   -0.9800 ha        1 1QK      0.206000
     50 H21        -3.7300   -1.3370    1.0820 h4        1 1QK      0.237000
     51 H22        -5.8870   -3.1810    1.0410 ho        1 1QK      0.464000
     52 H23         2.3270   -4.4650   -1.4520 hc        1 1QK      0.052700
     53 H24         2.3660   -2.7060   -1.8790 hc        1 1QK      0.052700
     54 H25         5.4810   -2.1210    0.3170 hc        1 1QK      0.062200
     55 H26         4.3430   -1.2380   -0.7750 hc        1 1QK      0.062200
     56 H27         4.2790    0.2250    1.1180 hc        1 1QK      0.069200
     57 H28         3.0580   -0.0700    2.4170 hc        1 1QK      0.069200
     58 H29         6.0940    0.2830    4.0600 ho        1 1QK      0.406000
@<TRIPOS>BOND
     1    1   18 1   
     2    1   19 2   
     3    1   30 1   
     4    2    3 1   
     5    2   19 1   
     6    2   31 1   
     7    3   20 1   
     8    3   32 1   
     9    3   33 1   
    10    4   20 ar  
    11    4   21 ar  
    12    4   34 1   
    13    5   21 ar  
    14    5   22 2   
    15    5   35 1   
    16    6   25 1   
    17    6   26 1   
    18    6   36 1   
    19    6   37 1   
    20    7   26 1   
    21    7   27 1   
    22    7   38 1   
    23    7   39 1   
    24    8   25 1   
    25    8   27 1   
    26    8   28 1   
    27    8   40 1   
    28    9   28 1   
    29    9   29 1   
    30    9   41 1   
    31    9   42 1   
    32   10   11 1   
    33   10   43 1   
    34   10   44 1   
    35   10   45 1   
    36   11   12 1   
    37   11   46 1   
    38   11   47 1   
    39   12   13 1   
    40   12   16 2   
    41   13   14 2   
    42   13   48 1   
    43   14   15 1   
    44   15   16 1   
    45   15   19 1   
    46   16   17 1   
    47   17   18 2   
    48   18   25 1   
    49   20   23 ar  
    50   21   49 1   
    51   22   23 1   
    52   22   24 1   
    53   23   50 1   
    54   24   51 1   
    55   26   52 1   
    56   26   53 1   
    57   27   54 1   
    58   27   55 1   
    59   28   56 1   
    60   28   57 1   
    61   29   58 1   
@<TRIPOS>SUBSTRUCTURE
     1 1QK         1 TEMP              0 ****  ****    0 ROOT
