@<TRIPOS>MOLECULE
1QK
   59    62     1     0     0
SMALL
bcc


@<TRIPOS>ATOM
      1 C10         0.5600   -0.2240   -0.5550 cc        1 1QK     -0.175300
      2 N12        -1.5250   -0.9320    0.6230 n4        1 1QK     -0.633400
      3 C13        -2.7980   -0.2370    0.2350 c3        1 1QK      0.158100
      4 C15        -4.1380   -0.3620    2.3720 ca        1 1QK      0.009000
      5 C17        -6.2980   -1.4660    2.3870 ca        1 1QK      0.019700
      6 C22         3.2240    1.6010   -2.3160 c3        1 1QK      0.168800
      7 C24         5.5030    0.8750   -1.5710 c3        1 1QK     -0.084400
      8 C26         3.5560   -0.7110   -1.6200 c3        1 1QK      0.181500
      9 C28         3.8690   -3.1610   -1.0690 c3        1 1QK      0.134400
     10 C01         1.6370    4.4350    4.0190 c3        1 1QK     -0.101100
     11 C02         1.9970    3.6780    2.7640 c3        1 1QK     -0.024200
     12 C03         1.0180    2.6400    2.4180 cc        1 1QK     -0.171800
     13 C04        -0.1960    2.2900    3.1110 cc        1 1QK      0.424500
     14 N05        -0.8680    1.2720    2.5000 nd        1 1QK     -0.648100
     15 N06        -0.1390    0.9480    1.4250 na        1 1QK     -0.001800
     16 C07         1.0780    1.7580    1.3050 cd        1 1QK      0.387500
     17 N08         1.9900    1.5700    0.3090 nd        1 1QK     -0.598000
     18 C09         1.7620    0.6260   -0.6120 cc        1 1QK      0.639200
     19 C11        -0.3410   -0.0530    0.4770 cd        1 1QK      0.026300
     20 C14        -3.9860   -0.7060    1.0170 ca        1 1QK     -0.175300
     21 C16        -5.2960   -0.7500    3.0530 ca        1 1QK     -0.125000
     22 N18        -6.1450   -1.7670    1.0500 na        1 1QK      0.132800
     23 C19        -5.0040   -1.4170    0.3640 ca        1 1QK      0.019700
     24 O20        -7.0120   -2.5660    0.4430 oh        1 1QK     -0.365200
     25 N21         2.5950    0.4060   -1.7510 nh        1 1QK     -0.717300
     26 C23         4.5420    2.0380   -1.6840 c3        1 1QK     -0.109400
     27 C25         4.8530   -0.3150   -0.8990 c3        1 1QK     -0.105400
     28 C27         2.9440   -1.9560   -0.9760 c3        1 1QK     -0.088400
     29 O29         3.0600   -4.2860   -0.7550 oh        1 1QK     -0.621800
     30 H1          0.4080   -0.9740   -1.3490 ha        1 1QK      0.193000
     31 H2         -1.3770   -1.7590    0.0270 hn        1 1QK      0.472800
     32 H3         -2.9500   -0.3940   -0.8740 hx        1 1QK      0.143700
     33 H4         -2.6740    0.8780    0.4100 hx        1 1QK      0.143700
     34 H5         -3.3560    0.2230    2.8990 ha        1 1QK      0.221000
     35 H6         -7.2340   -1.8120    2.8840 h4        1 1QK      0.248000
     36 H7          3.4050    1.3420   -3.4000 h1        1 1QK      0.071200
     37 H8          2.4900    2.4520   -2.2810 h1        1 1QK      0.071200
     38 H9          5.8580    0.5800   -2.5940 hc        1 1QK      0.061700
     39 H10         6.4050    1.1890   -0.9820 hc        1 1QK      0.061700
     40 H11         3.8160   -0.9640   -2.6950 h1        1 1QK      0.090700
     41 H12         4.2880   -3.2650   -2.1050 h1        1 1QK      0.043700
     42 H13         4.7130   -3.0810   -0.3330 h1        1 1QK      0.043700
     43 H14         1.5790    3.7480    4.8970 hc        1 1QK      0.049700
     44 H15         0.6550    4.9540    3.9060 hc        1 1QK      0.049700
     45 H16         2.4200    5.2050    4.2260 hc        1 1QK      0.049700
     46 H17         3.0080    3.1980    2.8890 hc        1 1QK      0.080200
     47 H18         2.0860    4.3970    1.9010 hc        1 1QK      0.080200
     48 H19        -0.5760    2.7590    4.0260 h4        1 1QK      0.083800
     49 H20        -5.4420   -0.4980    4.1230 ha        1 1QK      0.231000
     50 H21        -4.9580   -1.7210   -0.7060 h4        1 1QK      0.233000
     51 H22        -7.8230   -2.0420    0.2230 ho        1 1QK      0.486000
     52 H23         4.9890    2.8410   -2.3270 hc        1 1QK      0.067200
     53 H24         4.3600    2.4830   -0.6720 hc        1 1QK      0.067200
     54 H25         5.5570   -1.1870   -0.9260 hc        1 1QK      0.060200
     55 H26         4.6380   -0.0820    0.1760 hc        1 1QK      0.060200
     56 H27         1.9910   -2.2310   -1.5020 hc        1 1QK      0.040200
     57 H28         2.7050   -1.7620    0.1010 hc        1 1QK      0.040200
     58 H29         3.6290   -5.0640   -0.8140 ho        1 1QK      0.424000
     59 H122       -1.5820   -1.2450    1.6050 hn        1 1QK      0.472800
@<TRIPOS>BOND
     1    1   18 1   
     2    1   19 2   
     3    1   30 1   
     4    2    3 1   
     5    2   19 1   
     6    2   31 1   
     7    2   59 1   
     8    3   20 1   
     9    3   32 1   
    10    3   33 1   
    11    4   20 ar  
    12    4   21 ar  
    13    4   34 1   
    14    5   21 ar  
    15    5   22 2   
    16    5   35 1   
    17    6   25 1   
    18    6   26 1   
    19    6   36 1   
    20    6   37 1   
    21    7   26 1   
    22    7   27 1   
    23    7   38 1   
    24    7   39 1   
    25    8   25 1   
    26    8   27 1   
    27    8   28 1   
    28    8   40 1   
    29    9   28 1   
    30    9   29 1   
    31    9   41 1   
    32    9   42 1   
    33   10   11 1   
    34   10   43 1   
    35   10   44 1   
    36   10   45 1   
    37   11   12 1   
    38   11   46 1   
    39   11   47 1   
    40   12   13 1   
    41   12   16 2   
    42   13   14 2   
    43   13   48 1   
    44   14   15 1   
    45   15   16 1   
    46   15   19 1   
    47   16   17 1   
    48   17   18 2   
    49   18   25 1   
    50   20   23 ar  
    51   21   49 1   
    52   22   23 1   
    53   22   24 1   
    54   23   50 1   
    55   24   51 1   
    56   26   52 1   
    57   26   53 1   
    58   27   54 1   
    59   27   55 1   
    60   28   56 1   
    61   28   57 1   
    62   29   58 1   
@<TRIPOS>SUBSTRUCTURE
     1 1QK         1 TEMP              0 ****  ****    0 ROOT
