@<TRIPOS>MOLECULE
1QM
   41    44     1     0     0
SMALL
bcc


@<TRIPOS>ATOM
      1 N3          0.1390   -0.1980    0.0350 na        1 1QM      0.094400
      2 C4          0.8200   -0.0910    2.1770 cc        1 1QM     -0.201300
      3 N2          1.4700   -0.0600   -0.0370 nd        1 1QM     -0.504800
      4 C7          4.3290   -0.4740    0.8020 ca        1 1QM     -0.082500
      5 C6          3.3470    0.1580    1.5780 ca        1 1QM     -0.123500
      6 C9          6.0560    0.4600    2.2120 ca        1 1QM      0.126900
      7 C13        -0.7200   -0.2740   -1.1220 c3        1 1QM      0.039600
      8 C8          5.6770   -0.3300    1.1110 ca        1 1QM     -0.170500
      9 C18         1.3400   -2.4000    6.6300 c3        1 1QM      0.114500
     10 C16         0.4460   -3.4740    3.8900 c3        1 1QM      0.131400
     11 C1          0.8330   -0.0770    3.6210 ca        1 1QM      0.025000
     12 C2          0.6060    1.1210    4.3140 ca        1 1QM     -0.233300
     13 C3          0.6040    1.1050    5.7180 ca        1 1QM      0.381200
     14 N1          0.8140    0.0010    6.4560 nb        1 1QM     -0.652000
     15 C5          1.9380    0.0080    1.2480 cc        1 1QM      0.387800
     16 C10         5.0770    1.1000    2.9940 ca        1 1QM     -0.170500
     17 C11         3.7350    0.9450    2.6710 ca        1 1QM     -0.082500
     18 F1          7.3680    0.6050    2.5200 f         1 1QM     -0.142900
     19 C12        -0.3140   -0.2190    1.3570 cd        1 1QM     -0.131300
     20 C14         1.0460   -1.1610    5.8050 ca        1 1QM      0.394600
     21 C15         1.0570   -1.2400    4.3870 ca        1 1QM      0.009800
     22 O1          1.3930   -2.4130    3.7330 os        1 1QM     -0.324900
     23 N4          0.4070   -3.4770    6.3760 n7        1 1QM     -0.826200
     24 C17         0.6840   -4.2520    5.1870 c3        1 1QM      0.132800
     25 H8         -0.3770   -1.0970   -1.8040 h1        1 1QM      0.059700
     26 H10        -0.6960    0.6980   -1.6850 h1        1 1QM      0.059700
     27 H9         -1.7660   -0.4830   -0.7790 h1        1 1QM      0.059700
     28 H4          6.4490   -0.8270    0.5060 ha        1 1QM      0.148000
     29 H17         1.2890   -2.1460    7.7290 h1        1 1QM      0.056700
     30 H16         2.4080   -2.6900    6.3910 h1        1 1QM      0.056700
     31 H11         0.6640   -4.1410    3.0120 h1        1 1QM      0.060700
     32 H12        -0.6010   -3.0860    3.8310 h1        1 1QM      0.060700
     33 H1          0.4290    2.0560    3.7660 ha        1 1QM      0.149000
     34 H2          0.4220    2.0310    6.2920 h4        1 1QM      0.024100
     35 H5          5.3820    1.7150    3.8530 ha        1 1QM      0.148000
     36 H6          2.9640    1.4420    3.2840 ha        1 1QM      0.146500
     37 H7         -1.3680   -0.3240    1.6140 h4        1 1QM      0.179000
     38 H13         0.3590   -4.0810    7.1750 hn        1 1QM      0.372800
     39 H14        -0.0090   -5.1400    5.1830 h1        1 1QM      0.039700
     40 H15         1.7460   -4.6390    5.1670 h1        1 1QM      0.039700
     41 H3          4.0350   -1.0930   -0.0610 ha        1 1QM      0.146500
@<TRIPOS>BOND
     1    1    3 1   
     2    1    7 1   
     3    1   19 1   
     4    2   11 1   
     5    2   15 1   
     6    2   19 2   
     7    3   15 2   
     8    4    5 ar  
     9    4    8 ar  
    10    4   41 1   
    11    5   15 1   
    12    5   17 ar  
    13    6    8 ar  
    14    6   16 ar  
    15    6   18 1   
    16    7   25 1   
    17    7   26 1   
    18    7   27 1   
    19    8   28 1   
    20    9   20 1   
    21    9   23 1   
    22    9   29 1   
    23    9   30 1   
    24   10   22 1   
    25   10   24 1   
    26   10   31 1   
    27   10   32 1   
    28   11   12 ar  
    29   11   21 ar  
    30   12   13 ar  
    31   12   33 1   
    32   13   14 ar  
    33   13   34 1   
    34   14   20 ar  
    35   16   17 ar  
    36   16   35 1   
    37   17   36 1   
    38   19   37 1   
    39   20   21 ar  
    40   21   22 1   
    41   23   24 1   
    42   23   38 1   
    43   24   39 1   
    44   24   40 1   
@<TRIPOS>SUBSTRUCTURE
     1 1QM         1 TEMP              0 ****  ****    0 ROOT
