@<TRIPOS>MOLECULE
1QM
   41    44     1     0     0
SMALL
bcc


@<TRIPOS>ATOM
      1 N3          0.1310   -0.1880    0.0410 na        1 1QM      0.094400
      2 C4          0.8210   -0.0860    2.1800 cc        1 1QM     -0.201300
      3 N2          1.4630   -0.0580   -0.0360 nd        1 1QM     -0.504800
      4 C7          4.3220   -0.4910    0.7920 ca        1 1QM     -0.082500
      5 C6          3.3470    0.1480    1.5720 ca        1 1QM     -0.123500
      6 C9          6.0610    0.4320    2.1960 ca        1 1QM      0.126900
      7 C13        -0.7330   -0.2570   -1.1130 c3        1 1QM      0.039600
      8 C8          5.6720   -0.3550    1.0970 ca        1 1QM     -0.170500
      9 C18         1.3450   -2.3990    6.6310 c3        1 1QM      0.114500
     10 C16         0.4350   -3.4670    3.8940 c3        1 1QM      0.131400
     11 C1          0.8400   -0.0720    3.6240 ca        1 1QM      0.025000
     12 C2          0.6220    1.1270    4.3190 ca        1 1QM     -0.233300
     13 C3          0.6250    1.1100    5.7220 ca        1 1QM      0.381200
     14 N1          0.8320    0.0050    6.4600 nb        1 1QM     -0.652000
     15 C5          1.9360    0.0060    1.2470 cc        1 1QM      0.387800
     16 C10         5.0890    1.0780    2.9820 ca        1 1QM     -0.170500
     17 C11         3.7440    0.9320    2.6640 ca        1 1QM     -0.082500
     18 F1          7.3740    0.5690    2.4980 f         1 1QM     -0.142900
     19 C12        -0.3170   -0.2060    1.3650 cd        1 1QM     -0.131300
     20 C14         1.0550   -1.1580    5.8070 ca        1 1QM      0.394600
     21 C15         1.0600   -1.2370    4.3890 ca        1 1QM      0.009800
     22 O1          1.3870   -2.4110    3.7340 os        1 1QM     -0.324900
     23 N4          0.4050   -3.4700    6.3800 n3        1 1QM     -0.826200
     24 C17         0.6730   -4.2460    5.1900 c3        1 1QM      0.132800
     25 H8         -0.7090    0.7170   -1.6720 h1        1 1QM      0.059700
     26 H10        -0.3950   -1.0780   -1.7990 h1        1 1QM      0.059700
     27 H9         -1.7780   -0.4640   -0.7650 h1        1 1QM      0.059700
     28 H4          6.4380   -0.8570    0.4880 ha        1 1QM      0.148000
     29 H17         2.4100   -2.6950    6.3870 h1        1 1QM      0.056700
     30 H16         1.3000   -2.1450    7.7300 h1        1 1QM      0.056700
     31 H11         0.6450   -4.1350    3.0150 h1        1 1QM      0.060700
     32 H12        -0.6110   -3.0720    3.8390 h1        1 1QM      0.060700
     33 H1          0.4490    2.0630    3.7720 ha        1 1QM      0.149000
     34 H2          0.4510    2.0380    6.2980 h4        1 1QM      0.024100
     35 H5          5.4010    1.6920    3.8390 ha        1 1QM      0.148000
     36 H6          2.9790    1.4340    3.2790 ha        1 1QM      0.146500
     37 H7         -1.3700   -0.3040    1.6260 h4        1 1QM      0.179000
     38 H13         0.3570   -4.0740    7.1790 hn        1 1QM      0.372800
     39 H14        -0.0260   -5.1300    5.1890 h1        1 1QM      0.039700
     40 H15         1.7330   -4.6390    5.1660 h1        1 1QM      0.039700
     41 H3          4.0210   -1.1070   -0.0690 ha        1 1QM      0.146500
@<TRIPOS>BOND
     1    1    3 1   
     2    1    7 1   
     3    1   19 1   
     4    2   11 1   
     5    2   15 1   
     6    2   19 2   
     7    3   15 2   
     8    4    5 ar  
     9    4    8 ar  
    10    4   41 1   
    11    5   15 1   
    12    5   17 ar  
    13    6    8 ar  
    14    6   16 ar  
    15    6   18 1   
    16    7   25 1   
    17    7   26 1   
    18    7   27 1   
    19    8   28 1   
    20    9   20 1   
    21    9   23 1   
    22    9   29 1   
    23    9   30 1   
    24   10   22 1   
    25   10   24 1   
    26   10   31 1   
    27   10   32 1   
    28   11   12 ar  
    29   11   21 ar  
    30   12   13 ar  
    31   12   33 1   
    32   13   14 ar  
    33   13   34 1   
    34   14   20 ar  
    35   16   17 ar  
    36   16   35 1   
    37   17   36 1   
    38   19   37 1   
    39   20   21 ar  
    40   21   22 1   
    41   23   24 1   
    42   23   38 1   
    43   24   39 1   
    44   24   40 1   
@<TRIPOS>SUBSTRUCTURE
     1 1QM         1 TEMP              0 ****  ****    0 ROOT
