@<TRIPOS>MOLECULE
1QM
   41    35     1     0     0
SMALL
bcc


@<TRIPOS>ATOM
      1 N3         -1.2640    0.8190   -2.7390 n2        1 1QM     -0.119000
      2 C4         -0.6570    0.7760   -0.6310 c1        1 1QM     -0.138000
      3 N2          0.1210    0.7720   -2.6950 n2        1 1QM     -0.070000
      4 C7          2.7540    1.9630   -1.6360 c1        1 1QM     -0.126500
      5 C6          2.0420    0.7780   -1.7630 c1        1 1QM     -0.028000
      6 C9          4.7860    0.8150   -2.2880 c1        1 1QM      0.094000
      7 C13        -2.0770    0.8090   -3.9380 c2        1 1QM     -0.059000
      8 C8          4.1280    1.9850   -1.8980 c1        1 1QM     -0.126500
      9 C18        -0.5940   -1.7160    3.5510 c3        1 1QM     -0.027000
     10 C16        -2.4600   -2.0010    1.4590 c3        1 1QM     -0.023000
     11 C1         -0.6960    0.8490    0.8380 c1        1 1QM      0.039000
     12 C2         -0.4320    2.0610    1.4800 c2        1 1QM     -0.170000
     13 C3         -0.2840    2.0950    2.8280 c1        1 1QM     -0.077000
     14 N1         -0.3960    0.9130    3.5790 n1        1 1QM     -0.131000
     15 C5          0.4940    0.7460   -1.4170 c2        1 1QM     -0.059000
     16 C10         4.0590   -0.3970   -2.4190 c1        1 1QM     -0.171000
     17 C11         2.7140   -0.4210   -2.1620 c1        1 1QM     -0.086000
     18 F1          6.0330    0.9680   -2.6320 f         1 1QM     -0.106000
     19 C12        -1.7260    0.8210   -1.4600 c1        1 1QM     -0.085000
     20 C14        -0.6550   -0.2780    2.9540 c1        1 1QM     -0.025000
     21 C15        -0.8070   -0.3180    1.5820 c1        1 1QM      0.007000
     22 O1         -1.1410   -1.6730    1.1280 o         1 1QM     -0.221000
     23 N4         -1.9200   -2.2070    3.8490 n3        1 1QM     -0.304000
     24 C17        -2.4930   -2.8950    2.7040 c3        1 1QM     -0.100000
     25 H3          2.3430    2.6950   -1.3920 ha        1 1QM      0.149500
     26 H8         -2.6710    1.6370   -3.9510 ha        1 1QM      0.100000
     27 H10        -1.4680    0.8100   -4.7660 ha        1 1QM      0.100000
     28 H9         -2.6290    0.0160   -3.9450 ha        1 1QM      0.100000
     29 H4          4.6340    2.8290   -1.8070 ha        1 1QM      0.149500
     30 H17        -0.0990   -1.7000    4.3230 h1        1 1QM      0.095000
     31 H16        -0.1320   -2.3620    2.8550 h1        1 1QM      0.095000
     32 H11        -2.8670   -2.4970    0.7020 h1        1 1QM      0.097000
     33 H12        -2.9600   -1.1510    1.6560 h1        1 1QM      0.097000
     34 H1         -0.3510    2.9090    0.9440 ha        1 1QM      0.156000
     35 H2         -0.1010    2.9260    3.2690 ha        1 1QM      0.162000
     36 H5          4.5560   -1.2840   -2.7140 ha        1 1QM      0.151000
     37 H6          2.1860   -1.3040   -2.2570 ha        1 1QM      0.150000
     38 H7         -2.6340    0.8480   -1.1960 DU        1 1QM      0.183000
     39 H13        -1.8800   -2.7790    4.5580 hn        1 1QM      0.169000
     40 H14        -3.4730   -3.1500    2.9170 h1        1 1QM      0.079000
     41 H15        -1.9820   -3.7070    2.5280 h1        1 1QM      0.079000
@<TRIPOS>BOND
     1    1    3 1   
     2    1   19 1   
     3    2   15 1   
     4    2   19 1   
     5    3   15 1   
     6    4    8 1   
     7    4   25 1   
     8    5   15 1   
     9    5   17 1   
    10    6   16 1   
    11    6   18 1   
    12    7   26 1   
    13    7   27 1   
    14    7   28 1   
    15    8   29 1   
    16    9   20 1   
    17    9   23 1   
    18    9   30 1   
    19    9   31 1   
    20   10   22 1   
    21   10   24 1   
    22   10   32 1   
    23   10   33 1   
    24   11   12 1   
    25   11   21 1   
    26   12   13 1   
    27   12   34 1   
    28   13   35 1   
    29   14   20 1   
    30   16   36 1   
    31   17   37 1   
    32   23   24 1   
    33   23   39 1   
    34   24   40 1   
    35   24   41 1   
@<TRIPOS>SUBSTRUCTURE
     1 1QM         1 TEMP              0 ****  ****    0 ROOT
