@<TRIPOS>MOLECULE
1QM
   41    44     1     0     0
SMALL
bcc


@<TRIPOS>ATOM
      1 N3          1.1430   -3.4190    0.4290 na        1 1QM      0.095400
      2 C4          0.0810   -1.5920   -0.3450 cc        1 1QM     -0.204300
      3 N2          2.0700   -2.4510    0.4470 nd        1 1QM     -0.503800
      4 C7          3.1260    0.3440    0.8070 ca        1 1QM     -0.081500
      5 C6          2.1660   -0.0380   -0.1420 ca        1 1QM     -0.125500
      6 C9          3.5070    2.4050   -0.3980 ca        1 1QM      0.128900
      7 C13         1.4040   -4.7830    0.8190 c3        1 1QM      0.039600
      8 C8          3.7960    1.5570    0.6870 ca        1 1QM     -0.170500
      9 C18        -3.4640    1.9390    0.3250 c3        1 1QM      0.110500
     10 C16        -2.4280   -0.2760    2.2050 c3        1 1QM      0.090400
     11 C1         -0.9310   -0.6970   -0.8540 ca        1 1QM      0.027000
     12 C2         -1.1920   -0.6400   -2.2300 ca        1 1QM     -0.231300
     13 C3         -2.1940    0.2250   -2.6980 ca        1 1QM      0.381200
     14 N1         -2.9270    1.0230   -1.9020 nb        1 1QM     -0.649000
     15 C5          1.4710   -1.3100   -0.0150 cc        1 1QM      0.389800
     16 C10         2.5470    2.0290   -1.3550 ca        1 1QM     -0.170500
     17 C11         1.8870    0.8130   -1.2200 ca        1 1QM     -0.081500
     18 F1          4.1560    3.5880   -0.5210 f         1 1QM     -0.142900
     19 C12        -0.0870   -2.9550   -0.0480 cd        1 1QM     -0.132300
     20 C14        -2.6800    0.9960   -0.5740 ca        1 1QM      0.341600
     21 C15        -1.6950    0.1390   -0.0110 ca        1 1QM      0.000800
     22 O1         -1.3840    0.1810    1.3370 os        1 1QM     -0.318900
     23 N4         -4.2160    1.3230    1.3900 n3        1 1QM     -0.810200
     24 C17        -3.4330    0.8410    2.5000 c3        1 1QM      0.126800
     25 H8          2.1300   -5.2560    0.1030 h1        1 1QM      0.060033
     26 H10         1.8420   -4.8120    1.8520 h1        1 1QM      0.060033
     27 H9          0.4380   -5.3510    0.8040 h1        1 1QM      0.060033
     28 H4          4.5470    1.8600    1.4300 ha        1 1QM      0.148500
     29 H17        -2.7180    2.6590    0.7700 h1        1 1QM      0.079200
     30 H16        -4.2010    2.5330   -0.2900 h1        1 1QM      0.079200
     31 H11        -2.9290   -1.1820    1.7800 h1        1 1QM      0.057200
     32 H12        -1.8750   -0.5500    3.1430 h1        1 1QM      0.057200
     33 H1         -0.6230   -1.2660   -2.9310 ha        1 1QM      0.150000
     34 H2         -2.4280    0.2860   -3.7760 h4        1 1QM      0.025100
     35 H5          2.3270    2.6970   -2.1990 ha        1 1QM      0.148500
     36 H6          1.1320    0.5160   -1.9660 ha        1 1QM      0.146000
     37 H7         -0.9610   -3.6000   -0.1370 h4        1 1QM      0.177000
     38 H13        -4.8150    0.6020    1.0320 hn        1 1QM      0.364800
     39 H14        -4.1480    0.4640    3.2860 h1        1 1QM      0.064700
     40 H15        -2.8680    1.7160    2.9310 h1        1 1QM      0.064700
     41 H3          3.3540   -0.3180    1.6560 ha        1 1QM      0.146000
@<TRIPOS>BOND
     1    1    3 1   
     2    1    7 1   
     3    1   19 1   
     4    2   11 1   
     5    2   15 1   
     6    2   19 2   
     7    3   15 2   
     8    4    5 ar  
     9    4    8 ar  
    10    4   41 1   
    11    5   15 1   
    12    5   17 ar  
    13    6    8 ar  
    14    6   16 ar  
    15    6   18 1   
    16    7   25 1   
    17    7   26 1   
    18    7   27 1   
    19    8   28 1   
    20    9   20 1   
    21    9   23 1   
    22    9   29 1   
    23    9   30 1   
    24   10   22 1   
    25   10   24 1   
    26   10   31 1   
    27   10   32 1   
    28   11   12 ar  
    29   11   21 ar  
    30   12   13 ar  
    31   12   33 1   
    32   13   14 ar  
    33   13   34 1   
    34   14   20 ar  
    35   16   17 ar  
    36   16   35 1   
    37   17   36 1   
    38   19   37 1   
    39   20   21 ar  
    40   21   22 1   
    41   23   24 1   
    42   23   38 1   
    43   24   39 1   
    44   24   40 1   
@<TRIPOS>SUBSTRUCTURE
     1 1QM         1 TEMP              0 ****  ****    0 ROOT
