@<TRIPOS>MOLECULE
1QM
   41    44     1     0     0
SMALL
bcc


@<TRIPOS>ATOM
      1 N3          0.1230   -0.1860    0.0440 na        1 1QM      0.094400
      2 C4          0.8160   -0.0870    2.1820 cc        1 1QM     -0.201300
      3 N2          1.4550   -0.0530   -0.0350 nd        1 1QM     -0.504800
      4 C7          4.3170   -0.4740    0.7890 ca        1 1QM     -0.082500
      5 C6          3.3400    0.1590    1.5710 ca        1 1QM     -0.123500
      6 C9          6.0530    0.4540    2.1920 ca        1 1QM      0.126900
      7 C13        -0.7400   -0.2690   -1.1090 c3        1 1QM      0.040600
      8 C8          5.6670   -0.3330    1.0920 ca        1 1QM     -0.170500
      9 C18         1.3570   -2.4040    6.6290 c3        1 1QM      0.114500
     10 C16         0.4460   -3.4730    3.8920 c3        1 1QM      0.131400
     11 C1          0.8360   -0.0750    3.6260 ca        1 1QM      0.025000
     12 C2          0.6140    1.1210    4.3230 ca        1 1QM     -0.233300
     13 C3          0.6200    1.1030    5.7260 ca        1 1QM      0.381200
     14 N1          0.8320   -0.0030    6.4620 nb        1 1QM     -0.652000
     15 C5          1.9290    0.0110    1.2480 cc        1 1QM      0.387800
     16 C10         5.0800    1.0940    2.9810 ca        1 1QM     -0.170500
     17 C11         3.7350    0.9420    2.6640 ca        1 1QM     -0.082500
     18 F1          7.3670    0.5960    2.4940 f         1 1QM     -0.142900
     19 C12        -0.3230   -0.2110    1.3690 cd        1 1QM     -0.131300
     20 C14         1.0590   -1.1630    5.8080 ca        1 1QM      0.394600
     21 C15         1.0630   -1.2400    4.3890 ca        1 1QM      0.009800
     22 O1          1.3930   -2.4130    3.7320 os        1 1QM     -0.324900
     23 N4          0.4210   -3.4790    6.3780 n3        1 1QM     -0.826200
     24 C17         0.6900   -4.2530    5.1860 c3        1 1QM      0.132800
     25 H8         -1.7950   -0.4040   -0.7570 h1        1 1QM      0.060033
     26 H10        -0.4430   -1.1410   -1.7510 h1        1 1QM      0.060033
     27 H9         -0.6640    0.6720   -1.7170 h1        1 1QM      0.060033
     28 H4          6.4350   -0.8300    0.4810 ha        1 1QM      0.148000
     29 H17         1.3130   -2.1520    7.7280 h1        1 1QM      0.056700
     30 H16         2.4230   -2.6950    6.3830 h1        1 1QM      0.056700
     31 H11        -0.6020   -3.0820    3.8400 h1        1 1QM      0.060700
     32 H12         0.6570   -4.1390    3.0120 h1        1 1QM      0.060700
     33 H1          0.4360    2.0580    3.7780 ha        1 1QM      0.149000
     34 H2          0.4420    2.0280    6.3030 h4        1 1QM      0.024100
     35 H5          5.3900    1.7070    3.8390 ha        1 1QM      0.148000
     36 H6          2.9690    1.4390    3.2820 ha        1 1QM      0.146500
     37 H7         -1.3750   -0.3130    1.6310 h4        1 1QM      0.179000
     38 H13         0.3770   -4.0850    7.1760 hn        1 1QM      0.372800
     39 H14         1.7510   -4.6410    5.1600 h1        1 1QM      0.039700
     40 H15        -0.0050   -5.1400    5.1860 h1        1 1QM      0.039700
     41 H3          4.0180   -1.0900   -0.0730 ha        1 1QM      0.146500
@<TRIPOS>BOND
     1    1    3 1   
     2    1    7 1   
     3    1   19 1   
     4    2   11 1   
     5    2   15 1   
     6    2   19 2   
     7    3   15 2   
     8    4    5 ar  
     9    4    8 ar  
    10    4   41 1   
    11    5   15 1   
    12    5   17 ar  
    13    6    8 ar  
    14    6   16 ar  
    15    6   18 1   
    16    7   25 1   
    17    7   26 1   
    18    7   27 1   
    19    8   28 1   
    20    9   20 1   
    21    9   23 1   
    22    9   29 1   
    23    9   30 1   
    24   10   22 1   
    25   10   24 1   
    26   10   31 1   
    27   10   32 1   
    28   11   12 ar  
    29   11   21 ar  
    30   12   13 ar  
    31   12   33 1   
    32   13   14 ar  
    33   13   34 1   
    34   14   20 ar  
    35   16   17 ar  
    36   16   35 1   
    37   17   36 1   
    38   19   37 1   
    39   20   21 ar  
    40   21   22 1   
    41   23   24 1   
    42   23   38 1   
    43   24   39 1   
    44   24   40 1   
@<TRIPOS>SUBSTRUCTURE
     1 1QM         1 TEMP              0 ****  ****    0 ROOT
