@<TRIPOS>MOLECULE
1QN
   40    41     1     0     0
SMALL
bcc


@<TRIPOS>ATOM
      1 N3         -0.0570   -0.3980    0.2040 nc        1 1QN     -0.474800
      2 C4         -2.9560   -0.8160    1.5320 c1        1 1QN      0.019200
      3 N2          1.2490   -0.7400    0.3620 na        1 1QN      0.157400
      4 C7          0.3330   -0.6060    3.8520 ce        1 1QN      0.216800
      5 C6         -2.2610    1.5310    1.9230 c3        1 1QN      0.076900
      6 C9         -0.8460   -0.3590    5.9530 cf        1 1QN      0.252600
      7 C13         0.4200   -0.5760    2.4600 cd        1 1QN     -0.323300
      8 C8         -0.8410   -0.2930    4.5670 ce        1 1QN     -0.277000
      9 C16         2.1430   -0.9420   -0.7650 c3        1 1QN      0.013600
     10 C1         -3.2780    1.7580    2.9020 c1        1 1QN     -0.179100
     11 C2         -4.1410    1.9880    3.6970 c1        1 1QN      0.016100
     12 C3         -3.9090   -1.6860    1.4130 c2        1 1QN     -0.193100
     13 C5         -2.0050    0.0760    1.6570 cf        1 1QN     -0.241100
     14 N1          0.2320   -0.7230    6.7230 nf        1 1QN     -0.613300
     15 C10         1.3650   -1.0250    6.1170 c2        1 1QN      0.543300
     16 C11         1.5440   -0.9830    4.6310 c3        1 1QN     -0.217500
     17 C12        -0.6030   -0.2840    1.4390 cd        1 1QN      0.486100
     18 C14         1.5970   -0.8630    1.6790 cd        1 1QN     -0.041300
     19 C15         2.5500   -1.4700    6.9650 c3        1 1QN      0.101500
     20 N4          3.7930   -1.5100    6.2320 n3        1 1QN     -0.864200
     21 C17         4.6670   -0.3870    6.4540 c3        1 1QN      0.145100
     22 H3         -4.4130   -1.8700    0.4490 ha        1 1QN      0.159000
     23 H4         -2.5660    2.0180    0.9500 hc        1 1QN      0.081200
     24 H6         -1.7550    0.0100    4.0250 ha        1 1QN      0.199000
     25 H5         -1.7590   -0.1140    6.5400 h4        1 1QN      0.203000
     26 H13         2.2050    0.0050   -1.3680 h1        1 1QN      0.089700
     27 H12         1.7450   -1.7670   -1.4150 h1        1 1QN      0.089700
     28 H14         3.1580   -1.2160   -0.3750 h1        1 1QN      0.089700
     29 H1         -1.3080    2.0300    2.2610 hc        1 1QN      0.081200
     30 H2         -4.2750   -2.2870    2.2600 ha        1 1QN      0.159000
     31 H7          1.9190   -1.9940    4.2880 hc        1 1QN      0.151200
     32 H8          2.6030   -1.1310    2.0170 h4        1 1QN      0.201000
     33 H9          2.3780   -0.2510    4.3970 hc        1 1QN      0.151200
     34 H10         2.6080   -0.7860    7.8670 h1        1 1QN      0.094700
     35 H11         2.2860   -2.5020    7.3500 h1        1 1QN      0.094700
     36 H15         4.2680   -2.3780    6.3890 hn        1 1QN      0.393800
     37 H16         4.1600    0.5510    6.1060 h1        1 1QN      0.046367
     38 H17         5.6010   -0.5400    5.8510 h1        1 1QN      0.046367
     39 H42         4.9560   -0.2500    7.5320 h1        1 1QN      0.046367
     40 F1         -5.0650    2.2320    4.5680 f         1 1QN      0.018900
@<TRIPOS>BOND
     1    1    3 1   
     2    1   17 2   
     3    2   12 2   
     4    2   13 2   
     5    3    9 1   
     6    3   18 2   
     7    4    7 2   
     8    4    8 1   
     9    4   16 1   
    10    5   10 1   
    11    5   13 1   
    12    5   23 1   
    13    5   29 1   
    14    6    8 2   
    15    6   14 1   
    16    6   25 1   
    17    7   17 1   
    18    7   18 1   
    19    8   24 1   
    20    9   26 1   
    21    9   27 1   
    22    9   28 1   
    23   10   11 3   
    24   11   40 1   
    25   12   22 1   
    26   12   30 1   
    27   13   17 1   
    28   14   15 2   
    29   15   16 1   
    30   15   19 1   
    31   16   31 1   
    32   16   33 1   
    33   18   32 1   
    34   19   20 1   
    35   19   34 1   
    36   19   35 1   
    37   20   21 1   
    38   20   36 1   
    39   21   37 1   
    40   21   38 1   
    41   21   39 1   
@<TRIPOS>SUBSTRUCTURE
     1 1QN         1 TEMP              0 ****  ****    0 ROOT
