@<TRIPOS>MOLECULE
1QN
   40    40     1     0     0
SMALL
bcc


@<TRIPOS>ATOM
      1 N3          0.2520    0.1660    0.3120 n2        1 1QN     -0.049000
      2 C4         -2.2700   -1.1760    2.4370 c2        1 1QN     -0.424000
      3 N2          1.5960    0.0070    0.4140 na        1 1QN     -0.057000
      4 C7          0.7420   -0.5130    3.8870 c2        1 1QN      0.219000
      5 C6         -2.4810    1.0500    1.4330 c2        1 1QN     -0.127000
      6 C9         -0.4100   -0.4870    6.0190 c2        1 1QN      0.149000
      7 C13         0.8080   -0.2930    2.5080 c2        1 1QN     -0.261000
      8 C8         -0.3740   -0.1540    4.6650 c2        1 1QN     -0.281000
      9 C16         2.4840    0.1320   -0.7280 c3        1 1QN     -0.084000
     10 C1         -5.8690    1.2760    1.9880 c1        1 1QN      0.143000
     11 C2         -7.1750    1.4570    2.1700 c2        1 1QN     -0.259000
     12 C3         -2.0240   -1.6670    3.6320 c1        1 1QN      0.155000
     13 C5         -1.7130    0.0190    1.8120 c2        1 1QN     -0.047000
     14 N1          0.6010   -1.1260    6.6870 n2        1 1QN     -0.190000
     15 C10         1.6980   -1.4480    6.0220 c2        1 1QN      0.120000
     16 C11         1.8930   -1.1650    4.5660 c3        1 1QN     -0.223000
     17 C12        -0.2750   -0.0060    1.5520 c2        1 1QN      0.033000
     18 C14         1.9900   -0.2900    1.6910 c2        1 1QN     -0.020000
     19 C15         2.8130   -2.1720    6.7650 c3        1 1QN     -0.062000
     20 N4          4.0550   -2.2050    6.0320 n3        1 1QN     -0.344000
     21 C17         5.0690   -1.3000    6.5070 c3        1 1QN     -0.130000
     22 H3         -3.0150   -1.7170    1.8060 ha        1 1QN      0.218000
     23 H4         -3.5720    1.0640    1.6070 ha        1 1QN      0.155000
     24 H6         -1.1950    0.4400    4.2240 ha        1 1QN      0.194000
     25 H5         -1.2920   -0.2400    6.6500 h4        1 1QN      0.206000
     26 H13         2.3900    1.1640   -1.1650 h1        1 1QN      0.127667
     27 H12         3.5370   -0.0450   -0.3860 h1        1 1QN      0.127667
     28 H14         2.2010   -0.6250   -1.5090 h1        1 1QN      0.127667
     29 H1         -2.0660    1.9380    0.9350 ha        1 1QN      0.155000
     30 H2         -7.7580    1.7920    1.2770 h4        1 1QN      0.193000
     31 H7          2.1310   -2.1420    4.0430 hc        1 1QN      0.194000
     32 H8          3.0320   -0.4600    1.9790 h4        1 1QN      0.199000
     33 H9          2.8190   -0.5220    4.4440 hc        1 1QN      0.194000
     34 H10         2.4280   -3.2210    6.9470 h1        1 1QN      0.136000
     35 H11         2.9310   -1.6840    7.7810 h1        1 1QN      0.136000
     36 H15         4.4050   -3.1420    5.9640 hn        1 1QN      0.189000
     37 H16         5.3530   -1.4690    7.5820 h1        1 1QN      0.086000
     38 H17         5.9860   -1.4290    5.8720 h1        1 1QN      0.086000
     39 H42         4.7020   -0.2450    6.4030 h1        1 1QN      0.086000
     40 F1         -7.9220    1.2980    3.2810 f         1 1QN     -0.072000
@<TRIPOS>BOND
     1    1    3 1   
     2    1   17 1   
     3    2   12 1   
     4    2   13 1   
     5    2   22 1   
     6    3    9 1   
     7    3   18 1   
     8    4    7 1   
     9    4    8 1   
    10    4   16 1   
    11    5   13 1   
    12    5   23 1   
    13    5   29 1   
    14    6    8 1   
    15    6   14 1   
    16    6   25 1   
    17    7   17 1   
    18    7   18 1   
    19    8   24 1   
    20    9   26 1   
    21    9   27 1   
    22    9   28 1   
    23   10   11 1   
    24   11   30 1   
    25   11   40 1   
    26   13   17 1   
    27   14   15 1   
    28   15   16 1   
    29   15   19 1   
    30   16   31 1   
    31   16   33 1   
    32   18   32 1   
    33   19   20 1   
    34   19   34 1   
    35   19   35 1   
    36   20   21 1   
    37   20   36 1   
    38   21   37 1   
    39   21   38 1   
    40   21   39 1   
@<TRIPOS>SUBSTRUCTURE
     1 1QN         1 TEMP              0 ****  ****    0 ROOT
