@<TRIPOS>MOLECULE
1QN
   39    33     1     0     0
SMALL
bcc


@<TRIPOS>ATOM
      1 N3         -0.6080    0.4700   -3.0640 n2        1 1QN     -0.068000
      2 C4         -3.0500   -0.6960   -1.7440 c1        1 1QN     -0.079000
      3 N2          0.7720    0.4470   -3.0160 n2        1 1QN     -0.114000
      4 C7          0.5350    0.4990    0.4570 c1        1 1QN      0.047000
      5 C6         -3.1290    1.6630   -1.7720 c1        1 1QN     -0.129000
      6 C9          1.5350    1.9770    2.0710 c1        1 1QN     -0.064000
      7 C13        -0.0200    0.3850   -0.9530 c1        1 1QN     -0.145000
      8 C8          0.8680    1.7780    0.8580 c1        1 1QN     -0.190000
      9 C16         1.6510    0.4180   -4.1550 c2        1 1QN     -0.060000
     10 C1         -4.2930    1.6110   -2.5450 c1        1 1QN     -0.129000
     11 C2         -4.8220    0.3990   -2.9080 c1        1 1QN      0.096000
     12 C3         -4.2230   -0.7430   -2.5220 c1        1 1QN     -0.173000
     13 C5         -2.5200    0.5090   -1.3800 c1        1 1QN     -0.029000
     14 F1         -5.8750    0.3530   -3.6520 f         1 1QN     -0.105000
     15 N1          1.8540    0.9180    2.8530 n1        1 1QN     -0.152000
     16 C10         1.5230   -0.3650    2.4560 c1        1 1QN     -0.052000
     17 C11         0.8610   -0.5730    1.2540 c2        1 1QN     -0.174000
     18 C12        -1.0790    0.4320   -1.7880 c2        1 1QN     -0.055000
     19 C14         1.1390    0.3950   -1.7290 c1        1 1QN     -0.103000
     20 C15         1.8900   -1.5570    3.3460 c3        1 1QN     -0.027000
     21 N4          2.6180   -1.0940    4.4960 n3        1 1QN     -0.293000
     22 C17         2.8070   -2.1970    5.4210 c3        1 1QN     -0.126000
     23 H3         -2.6140   -1.5290   -1.4630 ha        1 1QN      0.150000
     24 H4         -2.7500    2.5320   -1.5120 ha        1 1QN      0.150000
     25 H6          1.7790    2.9100    2.3650 ha        1 1QN      0.157000
     26 H5          0.6450    2.5190    0.3150 ha        1 1QN      0.140000
     27 H13         2.2620    1.2030   -4.1250 ha        1 1QN      0.101000
     28 H12         2.1470   -0.3560   -4.1420 ha        1 1QN      0.101000
     29 H14         1.1250    0.4510   -4.9650 ha        1 1QN      0.101000
     30 H1         -4.7050    2.3900   -2.8100 ha        1 1QN      0.150000
     31 H2         -4.6110   -1.6240   -2.7900 ha        1 1QN      0.150000
     32 H7          0.6180   -1.5130    0.9660 ha        1 1QN      0.154000
     33 H8          2.0820    0.3670   -1.3830 DU        1 1QN      0.180000
     34 H9          1.0610   -2.0130    3.6400 h1        1 1QN      0.103000
     35 H10         2.4940   -2.2370    2.8000 h1        1 1QN      0.103000
     36 H11         3.3920   -0.7930    4.2460 hn        1 1QN      0.170000
     37 H15         3.2170   -2.9850    4.9280 h1        1 1QN      0.070333
     38 H16         1.9960   -2.4440    5.7710 h1        1 1QN      0.070333
     39 H17         3.4270   -1.9070    6.1740 h1        1 1QN      0.070333
@<TRIPOS>BOND
     1    1    3 1   
     2    1   18 1   
     3    2   13 1   
     4    2   23 1   
     5    3   19 1   
     6    4    8 1   
     7    4   17 1   
     8    5   10 1   
     9    5   24 1   
    10    6   15 1   
    11    6   25 1   
    12    7   18 1   
    13    7   19 1   
    14    8   26 1   
    15    9   27 1   
    16    9   28 1   
    17    9   29 1   
    18   10   30 1   
    19   11   12 1   
    20   11   14 1   
    21   12   31 1   
    22   13   18 1   
    23   16   17 1   
    24   16   20 1   
    25   17   32 1   
    26   20   21 1   
    27   20   34 1   
    28   20   35 1   
    29   21   22 1   
    30   21   36 1   
    31   22   37 1   
    32   22   38 1   
    33   22   39 1   
@<TRIPOS>SUBSTRUCTURE
     1 1QN         1 TEMP              0 ****  ****    0 ROOT
