@<TRIPOS>MOLECULE
1QN
   40    41     1     0     0
SMALL
bcc


@<TRIPOS>ATOM
      1 N3          0.2650   -0.1880    0.0080 nc        1 1QN     -0.489800
      2 C4         -2.6480   -1.1110    1.6510 c1        1 1QN     -0.185100
      3 N2          1.5600   -0.4600    0.3000 na        1 1QN      0.159400
      4 C7          0.2650   -0.6880    3.6590 ce        1 1QN      0.216800
      5 C6         -2.2380    1.3280    1.8330 c2        1 1QN     -0.138300
      6 C9         -1.0580   -0.6610    5.6900 cf        1 1QN      0.260600
      7 C13         0.4660   -0.5380    2.2810 cd        1 1QN     -0.311300
      8 C8         -0.9630   -0.4950    4.3130 ce        1 1QN     -0.275000
      9 C16         2.5980   -0.5080   -0.7150 c3        1 1QN      0.014600
     10 C1         -3.2410    1.5210    2.6360 c1        1 1QN     -0.119800
     11 C2         -4.2790    1.7570    3.4060 c2        1 1QN      0.087400
     12 C3         -3.2820   -2.0620    2.0040 c1        1 1QN     -0.083500
     13 C5         -1.9260    0.0290    1.1510 c3        1 1QN      0.018300
     14 N1         -0.0160   -1.0270    6.5040 nf        1 1QN     -0.614300
     15 C10         1.1690   -1.2280    5.9570 c2        1 1QN      0.546300
     16 C11         1.4410   -1.0640    4.4940 c3        1 1QN     -0.219500
     17 C12        -0.4420   -0.2220    1.1660 cd        1 1QN      0.426600
     18 C14         1.7480   -0.6830    1.6360 cd        1 1QN     -0.050300
     19 C15         2.3180   -1.6780    6.8500 c3        1 1QN      0.100500
     20 N4          3.6060   -1.6060    6.2020 n7        1 1QN     -0.864200
     21 C17         4.4100   -0.4680    6.5690 c3        1 1QN      0.144100
     22 H3         -3.8510   -2.9050    2.3120 ha        1 1QN      0.181500
     23 H4         -2.2550    0.1700    0.0650 hc        1 1QN      0.124700
     24 H6         -1.8630   -0.2050    3.7400 ha        1 1QN      0.202000
     25 H5         -2.0200   -0.4990    6.2240 h4        1 1QN      0.207000
     26 H13         2.6620    0.4880   -1.2330 h1        1 1QN      0.089367
     27 H12         3.5750   -0.7470   -0.2200 h1        1 1QN      0.089367
     28 H14         2.3460   -1.3000   -1.4720 h1        1 1QN      0.089367
     29 H1         -1.5640    2.1610    1.5580 ha        1 1QN      0.156000
     30 H2         -5.2630    2.0760    3.0110 h4        1 1QN      0.179000
     31 H7          1.8890   -2.0280    4.1070 hc        1 1QN      0.151200
     32 H8          2.7210   -0.9210    2.0760 h4        1 1QN      0.200000
     33 H9          2.2480   -0.2770    4.3760 hc        1 1QN      0.151200
     34 H10         2.0830   -2.7470    7.1430 h1        1 1QN      0.095700
     35 H11         2.2830   -1.0610    7.8000 h1        1 1QN      0.095700
     36 H15         4.1120   -2.4630    6.3240 hn        1 1QN      0.393800
     37 H16         4.6220   -0.4060    7.6720 h1        1 1QN      0.046700
     38 H17         5.3860   -0.5310    6.0200 h1        1 1QN      0.046700
     39 H42         3.8800    0.4720    6.2610 h1        1 1QN      0.046700
     40 F1         -4.2440    1.6360    4.7510 f         1 1QN     -0.169500
@<TRIPOS>BOND
     1    1    3 1   
     2    1   17 2   
     3    2   12 3   
     4    2   13 1   
     5    3    9 1   
     6    3   18 2   
     7    4    7 2   
     8    4    8 1   
     9    4   16 1   
    10    5   10 2   
    11    5   13 1   
    12    5   29 1   
    13    6    8 2   
    14    6   14 1   
    15    6   25 1   
    16    7   17 1   
    17    7   18 1   
    18    8   24 1   
    19    9   26 1   
    20    9   27 1   
    21    9   28 1   
    22   10   11 2   
    23   11   30 1   
    24   11   40 1   
    25   12   22 1   
    26   13   17 1   
    27   13   23 1   
    28   14   15 2   
    29   15   16 1   
    30   15   19 1   
    31   16   31 1   
    32   16   33 1   
    33   18   32 1   
    34   19   20 1   
    35   19   34 1   
    36   19   35 1   
    37   20   21 1   
    38   20   36 1   
    39   21   37 1   
    40   21   38 1   
    41   21   39 1   
@<TRIPOS>SUBSTRUCTURE
     1 1QN         1 TEMP              0 ****  ****    0 ROOT
