@<TRIPOS>MOLECULE
1QN
   39    41     1     0     0
SMALL
bcc


@<TRIPOS>ATOM
      1 N3          1.8820   -2.6430   -0.1850 nc        1 1QN     -0.501800
      2 C4          2.0050    0.9510   -0.7570 ca        1 1QN     -0.083000
      3 N2          0.8010   -3.4360   -0.1750 na        1 1QN      0.099400
      4 C7         -0.9260   -0.2490    0.2330 ca        1 1QN      0.044000
      5 C6          3.5540   -0.2690    0.6500 ca        1 1QN     -0.083000
      6 C9         -1.5390    1.8890    1.1710 ca        1 1QN      0.400200
      7 C13        -0.0150   -1.3480    0.0480 cd        1 1QN     -0.211300
      8 C8         -0.5830    0.8730    1.0020 ca        1 1QN     -0.240300
      9 C16         0.8650   -4.8730   -0.3030 c3        1 1QN      0.037600
     10 C1          4.4250    0.8150    0.6440 ca        1 1QN     -0.172000
     11 C2          4.0830    1.9770   -0.0710 ca        1 1QN      0.129900
     12 C3          2.8660    2.0420   -0.7750 ca        1 1QN     -0.172000
     13 C5          2.3370   -0.2100   -0.0450 ca        1 1QN     -0.135500
     14 N1         -2.7710    1.8610    0.6350 nb        1 1QN     -0.674000
     15 C10        -3.0990    0.7790   -0.1130 ca        1 1QN      0.404600
     16 C11        -2.2120   -0.2920   -0.3330 ca        1 1QN     -0.237300
     17 C12         1.4380   -1.3550   -0.0510 cd        1 1QN      0.380800
     18 C14        -0.3810   -2.7060   -0.0420 cc        1 1QN     -0.126300
     19 C15        -4.4660    0.7290   -0.7640 c3        1 1QN      0.118500
     20 N4         -5.5610    0.7500    0.1860 n3        1 1QN     -0.823200
     21 C17        -6.8360    1.0170   -0.4250 c3        1 1QN      0.151100
     22 H3          1.0500    0.9980   -1.3040 ha        1 1QN      0.149000
     23 H4          3.8270   -1.1810    1.2040 ha        1 1QN      0.149000
     24 H6         -1.3040    2.7830    1.7770 h4        1 1QN      0.023100
     25 H5          0.4110    0.9550    1.4620 ha        1 1QN      0.155000
     26 H13         1.5000   -5.3040    0.5170 h1        1 1QN      0.062033
     27 H12        -0.1740   -5.2850   -0.2290 h1        1 1QN      0.062033
     28 H14         1.3120   -5.1510   -1.2950 h1        1 1QN      0.062033
     29 H1          5.3790    0.7720    1.1900 ha        1 1QN      0.150500
     30 H2          2.6080    2.9530   -1.3350 ha        1 1QN      0.150500
     31 H7         -2.5220   -1.1540   -0.9400 ha        1 1QN      0.142000
     32 H8         -1.3630   -3.1760   -0.0080 h4        1 1QN      0.182000
     33 H9         -4.5240    1.5810   -1.5080 h1        1 1QN      0.040700
     34 H10        -4.5550   -0.2310   -1.3500 h1        1 1QN      0.040700
     35 H11        -5.3830    1.3990    0.9300 hn        1 1QN      0.376800
     36 H15        -6.8910    2.0110   -0.9510 h1        1 1QN      0.029367
     37 H16        -7.0600    0.2150   -1.1760 h1        1 1QN      0.029367
     38 H17        -7.6240    0.9930    0.3730 h1        1 1QN      0.029367
     39 F1          4.9260    3.0360   -0.0830 f         1 1QN     -0.140900
@<TRIPOS>BOND
     1    1    3 1   
     2    1   17 2   
     3    2   12 ar  
     4    2   13 ar  
     5    2   22 1   
     6    3    9 1   
     7    3   18 1   
     8    4    7 1   
     9    4    8 ar  
    10    4   16 ar  
    11    5   10 ar  
    12    5   13 ar  
    13    5   23 1   
    14    6    8 ar  
    15    6   14 ar  
    16    6   24 1   
    17    7   17 1   
    18    7   18 2   
    19    8   25 1   
    20    9   26 1   
    21    9   27 1   
    22    9   28 1   
    23   10   11 ar  
    24   10   29 1   
    25   11   12 ar  
    26   11   39 1   
    27   12   30 1   
    28   13   17 1   
    29   14   15 ar  
    30   15   16 ar  
    31   15   19 1   
    32   16   31 1   
    33   18   32 1   
    34   19   20 1   
    35   19   33 1   
    36   19   34 1   
    37   20   21 1   
    38   20   35 1   
    39   21   36 1   
    40   21   37 1   
    41   21   38 1   
@<TRIPOS>SUBSTRUCTURE
     1 1QN         1 TEMP              0 ****  ****    0 ROOT
