@<TRIPOS>MOLECULE
1QO
   34    36     1     0     0
SMALL
bcc


@<TRIPOS>ATOM
      1 N1          0.0120    0.2260   -0.0570 nu        1 1QO     -0.836900
      2 C2          1.3910   -0.0190   -0.0290 ca        1 1QO      0.873900
      3 N3          2.0170    0.0840    1.2090 nb        1 1QO     -0.753000
      4 C4          4.1080   -0.2830    0.0440 ca        1 1QO     -0.418600
      5 N4          6.0540    0.8380    3.6890 nb        1 1QO     -0.668000
      6 C5          3.3640   -0.0380    1.2210 cp        1 1QO      0.538800
      7 C6          4.0720    0.0780    2.5050 cp        1 1QO     -0.272800
      8 C11        -2.2490   -0.0620   -0.9560 ca        1 1QO     -0.113300
      9 C12        -2.8030    1.1630   -0.5710 ca        1 1QO     -0.115000
     10 C13        -4.1800    1.2800   -0.3820 ca        1 1QO     -0.132000
     11 C1         -0.7730   -0.1880   -1.1980 c3        1 1QO      0.255100
     12 N2          2.0500   -0.2780   -1.2300 nb        1 1QO     -0.745000
     13 C3          3.3820   -0.3980   -1.1530 ca        1 1QO      0.465200
     14 C7          3.5300   -0.4180    3.6980 ca        1 1QO     -0.052000
     15 C8          4.2650   -0.2870    4.8780 ca        1 1QO     -0.254300
     16 C9          5.5200    0.3450    4.8240 ca        1 1QO      0.404200
     17 C10         5.3390    0.7050    2.5580 ca        1 1QO      0.415200
     18 C14        -5.0090    0.1750   -0.5800 ca        1 1QO     -0.122000
     19 C15        -4.4590   -1.0470   -0.9660 ca        1 1QO     -0.132000
     20 C16        -3.0830   -1.1680   -1.1510 ca        1 1QO     -0.115000
     21 H3         -0.4540    0.2100    0.8260 hn        1 1QO      0.437800
     22 H5          5.1960   -0.3950    0.0650 ha        1 1QO      0.156000
     23 H10        -2.1510    2.0370   -0.4220 ha        1 1QO      0.139000
     24 H11        -4.6110    2.2450   -0.0790 ha        1 1QO      0.134500
     25 H2         -0.5290   -1.2520   -1.4890 h1        1 1QO      0.061700
     26 H1         -0.4910    0.4720   -2.0710 h1        1 1QO      0.061700
     27 H4          3.8950   -0.6010   -2.1120 h4        1 1QO      0.027100
     28 H6          2.5420   -0.9020    3.7060 ha        1 1QO      0.155000
     29 H7          3.8730   -0.6660    5.8300 ha        1 1QO      0.146000
     30 H8          6.1330    0.4690    5.7350 h4        1 1QO      0.024100
     31 H9          5.7980    1.1300    1.6460 h4        1 1QO      0.027100
     32 H12        -6.0950    0.2690   -0.4330 ha        1 1QO      0.133000
     33 H13        -5.1120   -1.9180   -1.1250 ha        1 1QO      0.134500
     34 H14        -2.6540   -2.1350   -1.4540 ha        1 1QO      0.139000
@<TRIPOS>BOND
     1    1    2 1   
     2    1   11 1   
     3    1   21 1   
     4    2    3 ar  
     5    2   12 ar  
     6    3    6 ar  
     7    4    6 ar  
     8    4   13 ar  
     9    4   22 1   
    10    5   16 ar  
    11    5   17 ar  
    12    6    7 1   
    13    7   14 ar  
    14    7   17 ar  
    15    8    9 ar  
    16    8   11 1   
    17    8   20 ar  
    18    9   10 ar  
    19    9   23 1   
    20   10   18 ar  
    21   10   24 1   
    22   11   25 1   
    23   11   26 1   
    24   12   13 ar  
    25   13   27 1   
    26   14   15 ar  
    27   14   28 1   
    28   15   16 ar  
    29   15   29 1   
    30   16   30 1   
    31   17   31 1   
    32   18   19 ar  
    33   18   32 1   
    34   19   20 ar  
    35   19   33 1   
    36   20   34 1   
@<TRIPOS>SUBSTRUCTURE
     1 1QO         1 TEMP              0 ****  ****    0 ROOT
