@<TRIPOS>MOLECULE
1QO
   34    36     1     0     0
SMALL
bcc


@<TRIPOS>ATOM
      1 N1         -1.3910   -0.2440    0.2630 nh        1 1QO     -0.832900
      2 C2         -0.1340   -0.8530    0.1370 ca        1 1QO      0.871900
      3 N3          0.9670   -0.0020    0.0820 nb        1 1QO     -0.752000
      4 C4          2.3490   -1.9910    0.1070 ca        1 1QO     -0.416600
      5 N4          5.6430    0.5890   -0.8030 nb        1 1QO     -0.668000
      6 C5          2.1860   -0.5870    0.0740 cp        1 1QO      0.537800
      7 C6          3.3800    0.2710    0.0240 cp        1 1QO     -0.273800
      8 C11        -3.8140   -0.1380   -0.0860 ca        1 1QO     -0.113300
      9 C12        -4.6250   -0.1460   -1.2250 ca        1 1QO     -0.115000
     10 C13        -5.7880    0.6230   -1.2610 ca        1 1QO     -0.132000
     11 C1         -2.5870   -1.0010   -0.0360 c3        1 1QO      0.252100
     12 N2         -0.0580   -2.2440    0.1440 nb        1 1QO     -0.744000
     13 C3          1.1760   -2.7650    0.1360 ca        1 1QO      0.465200
     14 C7          3.4380    1.4970    0.7020 ca        1 1QO     -0.051000
     15 C8          4.6090    2.2530    0.6250 ca        1 1QO     -0.254300
     16 C9          5.6830    1.7600   -0.1360 ca        1 1QO      0.404200
     17 C10         4.5120   -0.1340   -0.7210 ca        1 1QO      0.415200
     18 C14        -6.1420    1.4080   -0.1640 ca        1 1QO     -0.122000
     19 C15        -5.3320    1.4200    0.9730 ca        1 1QO     -0.132000
     20 C16        -4.1720    0.6490    1.0140 ca        1 1QO     -0.115000
     21 H3         -1.4250    0.7280    0.0380 hn        1 1QO      0.435800
     22 H5          3.3400   -2.4550    0.1170 ha        1 1QO      0.156000
     23 H10        -4.3490   -0.7620   -2.0950 ha        1 1QO      0.139000
     24 H11        -6.4250    0.6110   -2.1570 ha        1 1QO      0.134000
     25 H2         -2.4780   -1.5560   -1.0150 h1        1 1QO      0.061700
     26 H1         -2.7190   -1.7750    0.7770 h1        1 1QO      0.061700
     27 H4          1.2240   -3.8700    0.1510 h4        1 1QO      0.027100
     28 H6          2.5770    1.8560    1.2840 ha        1 1QO      0.157000
     29 H7          4.6920    3.2170    1.1450 ha        1 1QO      0.147000
     30 H8          6.6260    2.3280   -0.2230 h4        1 1QO      0.024100
     31 H9          4.5050   -1.0830   -1.2870 h4        1 1QO      0.027100
     32 H12        -7.0580    2.0150   -0.1940 ha        1 1QO      0.133000
     33 H13        -5.6100    2.0380    1.8390 ha        1 1QO      0.134000
     34 H14        -3.5380    0.6530    1.9130 ha        1 1QO      0.139000
@<TRIPOS>BOND
     1    1    2 1   
     2    1   11 1   
     3    1   21 1   
     4    2    3 ar  
     5    2   12 ar  
     6    3    6 ar  
     7    4    6 ar  
     8    4   13 ar  
     9    4   22 1   
    10    5   16 ar  
    11    5   17 ar  
    12    6    7 1   
    13    7   14 ar  
    14    7   17 ar  
    15    8    9 ar  
    16    8   11 1   
    17    8   20 ar  
    18    9   10 ar  
    19    9   23 1   
    20   10   18 ar  
    21   10   24 1   
    22   11   25 1   
    23   11   26 1   
    24   12   13 ar  
    25   13   27 1   
    26   14   15 ar  
    27   14   28 1   
    28   15   16 ar  
    29   15   29 1   
    30   16   30 1   
    31   17   31 1   
    32   18   19 ar  
    33   18   32 1   
    34   19   20 ar  
    35   19   33 1   
    36   20   34 1   
@<TRIPOS>SUBSTRUCTURE
     1 1QO         1 TEMP              0 ****  ****    0 ROOT
