@<TRIPOS>MOLECULE
1QO
   34    36     1     0     0
SMALL
bcc


@<TRIPOS>ATOM
      1 N1         -0.0150   -0.2580   -0.0140 nh        1 1QO     -0.832900
      2 C2          1.3820   -0.1300   -0.0200 ca        1 1QO      0.871900
      3 N3          2.0080   -0.0930    1.2230 nb        1 1QO     -0.752000
      4 C4          4.1120   -0.0960    0.0240 ca        1 1QO     -0.416600
      5 N4          5.9700    0.7590    3.7860 nb        1 1QO     -0.668000
      6 C5          3.3600   -0.0830    1.2220 cp        1 1QO      0.537800
      7 C6          4.0670   -0.0510    2.5110 cp        1 1QO     -0.273800
      8 C11        -2.2470    0.1020   -0.9590 ca        1 1QO     -0.113300
      9 C12        -2.9780    1.2460   -1.2960 ca        1 1QO     -0.114500
     10 C13        -4.3580    1.2750   -1.1030 ca        1 1QO     -0.132000
     11 C1         -0.7680    0.0590   -1.2090 c3        1 1QO      0.252100
     12 N2          2.0500   -0.1170   -1.2420 nb        1 1QO     -0.744000
     13 C3          3.3880   -0.1070   -1.1790 ca        1 1QO      0.465200
     14 C7          3.5920   -0.7470    3.6320 ca        1 1QO     -0.051000
     15 C8          4.3220   -0.6870    4.8200 ca        1 1QO     -0.254300
     16 C9          5.5020    0.0750    4.8500 ca        1 1QO      0.404200
     17 C10         5.2610    0.6940    2.6460 ca        1 1QO      0.415200
     18 C14        -5.0140    0.1680   -0.5660 ca        1 1QO     -0.122000
     19 C15        -4.2870   -0.9730   -0.2260 ca        1 1QO     -0.132000
     20 C16        -2.9080   -1.0090   -0.4220 ca        1 1QO     -0.114500
     21 H3         -0.4660   -0.0470    0.8510 hn        1 1QO      0.435800
     22 H5          5.2070   -0.1040    0.0340 ha        1 1QO      0.156000
     23 H10        -2.4640    2.1230   -1.7180 ha        1 1QO      0.139000
     24 H11        -4.9290    2.1760   -1.3730 ha        1 1QO      0.134000
     25 H2         -0.4320    1.0440   -1.6470 h1        1 1QO      0.061700
     26 H1         -0.5520   -0.7420   -1.9760 h1        1 1QO      0.061700
     27 H4          3.9090   -0.1070   -2.1560 h4        1 1QO      0.027100
     28 H6          2.6600   -1.3300    3.5760 ha        1 1QO      0.157000
     29 H7          3.9820   -1.2220    5.7170 ha        1 1QO      0.147000
     30 H8          6.1090    0.1480    5.7700 h4        1 1QO      0.024100
     31 H9          5.6640    1.2730    1.7950 h4        1 1QO      0.027100
     32 H12        -6.1030    0.1940   -0.4130 ha        1 1QO      0.133000
     33 H13        -4.8030   -1.8480    0.1970 ha        1 1QO      0.134000
     34 H14        -2.3360   -1.9120   -0.1600 ha        1 1QO      0.139000
@<TRIPOS>BOND
     1    1    2 1   
     2    1   11 1   
     3    1   21 1   
     4    2    3 ar  
     5    2   12 ar  
     6    3    6 ar  
     7    4    6 ar  
     8    4   13 ar  
     9    4   22 1   
    10    5   16 ar  
    11    5   17 ar  
    12    6    7 1   
    13    7   14 ar  
    14    7   17 ar  
    15    8    9 ar  
    16    8   11 1   
    17    8   20 ar  
    18    9   10 ar  
    19    9   23 1   
    20   10   18 ar  
    21   10   24 1   
    22   11   25 1   
    23   11   26 1   
    24   12   13 ar  
    25   13   27 1   
    26   14   15 ar  
    27   14   28 1   
    28   15   16 ar  
    29   15   29 1   
    30   16   30 1   
    31   17   31 1   
    32   18   19 ar  
    33   18   32 1   
    34   19   20 ar  
    35   19   33 1   
    36   20   34 1   
@<TRIPOS>SUBSTRUCTURE
     1 1QO         1 TEMP              0 ****  ****    0 ROOT
