@<TRIPOS>MOLECULE
1QO
   35    37     1     0     0
SMALL
bcc


@<TRIPOS>ATOM
      1 N1         -0.0700    0.9140   -0.0880 n4        1 1QO     -0.744700
      2 C2          1.4200    0.8080   -0.0520 ca        1 1QO      0.705900
      3 N3          1.9630    0.3860    1.1310 nb        1 1QO     -0.681000
      4 C4          4.0980    0.6150    0.0120 ca        1 1QO     -0.310600
      5 N4          5.9200    0.0720    3.8480 nb        1 1QO     -0.648000
      6 C5          3.3240    0.2970    1.1590 cp        1 1QO      0.557800
      7 C6          3.9860   -0.1290    2.3920 cp        1 1QO     -0.326800
      8 C11        -2.1680   -0.2260   -0.6610 ca        1 1QO     -0.197300
      9 C12        -2.8100    0.2380   -1.8160 ca        1 1QO     -0.097500
     10 C13        -4.2010    0.3130   -1.8530 ca        1 1QO     -0.120000
     11 C1         -0.6850   -0.3480   -0.6340 c3        1 1QO      0.182100
     12 N2          2.0790    1.1410   -1.2080 nb        1 1QO     -0.675000
     13 C3          3.4230    1.0340   -1.1460 ca        1 1QO      0.460200
     14 C7          3.4130   -1.0730    3.2600 ca        1 1QO     -0.038000
     15 C8          4.1090   -1.4410    4.4100 ca        1 1QO     -0.246300
     16 C9          5.3600   -0.8440    4.6630 ca        1 1QO      0.442200
     17 C10         5.2450    0.4190    2.7400 ca        1 1QO      0.438200
     18 C14        -4.9530   -0.0720   -0.7410 ca        1 1QO     -0.075000
     19 C15        -4.3130   -0.5350    0.4100 ca        1 1QO     -0.120000
     20 C16        -2.9220   -0.6130    0.4530 ca        1 1QO     -0.097500
     21 H3         -0.4260    1.0840    0.8630 hn        1 1QO      0.470800
     22 H5          5.1950    0.5260    0.0280 ha        1 1QO      0.194000
     23 H10        -2.2220    0.5270   -2.7010 ha        1 1QO      0.141500
     24 H11        -4.7070    0.6710   -2.7640 ha        1 1QO      0.160000
     25 H2         -0.3570   -1.1990    0.0310 hx        1 1QO      0.114200
     26 H1         -0.2690   -0.5090   -1.6710 hx        1 1QO      0.114200
     27 H4          3.9640    1.2980   -2.0770 h4        1 1QO      0.071100
     28 H6          2.4340   -1.5240    3.0370 ha        1 1QO      0.150000
     29 H7          3.6960   -2.1810    5.1090 ha        1 1QO      0.165000
     30 H8          5.9470   -1.1090    5.5630 h4        1 1QO      0.047100
     31 H9          5.7310    1.1850    2.1070 h4        1 1QO      0.030100
     32 H12        -6.0530   -0.0150   -0.7740 ha        1 1QO      0.161000
     33 H13        -4.9080   -0.8460    1.2840 ha        1 1QO      0.160000
     34 H14        -2.4230   -0.9950    1.3570 ha        1 1QO      0.141500
     35 H121       -0.3380    1.7100   -0.6840 hn        1 1QO      0.470800
@<TRIPOS>BOND
     1    1    2 1   
     2    1   11 1   
     3    1   21 1   
     4    1   35 1   
     5    2    3 ar  
     6    2   12 ar  
     7    3    6 ar  
     8    4    6 ar  
     9    4   13 ar  
    10    4   22 1   
    11    5   16 ar  
    12    5   17 ar  
    13    6    7 1   
    14    7   14 ar  
    15    7   17 ar  
    16    8    9 ar  
    17    8   11 1   
    18    8   20 ar  
    19    9   10 ar  
    20    9   23 1   
    21   10   18 ar  
    22   10   24 1   
    23   11   25 1   
    24   11   26 1   
    25   12   13 ar  
    26   13   27 1   
    27   14   15 ar  
    28   14   28 1   
    29   15   16 ar  
    30   15   29 1   
    31   16   30 1   
    32   17   31 1   
    33   18   19 ar  
    34   18   32 1   
    35   19   20 ar  
    36   19   33 1   
    37   20   34 1   
@<TRIPOS>SUBSTRUCTURE
     1 1QO         1 TEMP              0 ****  ****    0 ROOT
