@<TRIPOS>MOLECULE
1QO
   34    29     1     0     0
SMALL
bcc


@<TRIPOS>ATOM
      1 N1         -0.9280   -0.1240   -0.7070 n3        1 1QO     -0.281000
      2 C2          0.4850   -0.1330   -0.7190 c2        1 1QO      0.155000
      3 N3          1.1850   -0.0860    0.4750 n2        1 1QO     -0.227000
      4 C4          3.1990   -0.0810   -0.7350 c1        1 1QO     -0.132000
      5 N4          4.5060   -1.0890    3.5670 n1        1 1QO     -0.142000
      6 C5          2.5130   -0.0610    0.4670 c1        1 1QO      0.103000
      7 C6          3.2940   -0.0080    1.8080 c2        1 1QO     -0.100000
      8 C11        -3.1240   -0.1140   -1.6530 c1        1 1QO     -0.106000
      9 C12        -3.8180    1.0910   -1.5260 c2        1 1QO     -0.116000
     10 C13        -5.2010    1.0810   -1.3140 c1        1 1QO     -0.132000
     11 C1         -1.6480   -0.1000   -1.9330 c2        1 1QO      0.011000
     12 N2          1.1510   -0.1530   -1.8940 n1        1 1QO     -0.219000
     13 C3          2.5120   -0.1280   -1.9050 c1        1 1QO     -0.132000
     14 C7          3.5200    1.2090    2.3840 c1        1 1QO     -0.052000
     15 C8          4.2380    1.2950    3.5530 c1        1 1QO     -0.132000
     16 C9          4.7350    0.1430    4.1490 c1        1 1QO     -0.132000
     17 C10         3.7930   -1.1720    2.4070 c2        1 1QO     -0.050000
     18 C14        -5.9000   -0.1480   -1.2280 c1        1 1QO     -0.132000
     19 C15        -5.2060   -1.3590   -1.3560 c1        1 1QO     -0.132000
     20 C16        -3.8240   -1.3540   -1.5670 c1        1 1QO     -0.114000
     21 H3         -1.3860   -0.0670    0.1060 hn        1 1QO      0.233000
     22 H5          4.1910   -0.0630   -0.7420 ha        1 1QO      0.149167
     23 H10        -3.3290    1.9600   -1.5850 ha        1 1QO      0.135000
     24 H11        -5.7010    1.9500   -1.2230 ha        1 1QO      0.134000
     25 H2         -1.4120   -0.8810   -2.4610 h4        1 1QO      0.101000
     26 H1         -1.4120    0.7380   -2.4460 h4        1 1QO      0.101000
     27 H4          3.0160   -0.1430   -2.7940 ha        1 1QO      0.149167
     28 H6          3.1560    2.0500    1.9500 ha        1 1QO      0.155000
     29 H7          4.4050    2.1890    3.9740 ha        1 1QO      0.149167
     30 H8          5.2550    0.2050    4.9980 ha        1 1QO      0.149167
     31 H9          3.6280   -2.0570    1.9860 h4        1 1QO      0.164000
     32 H12        -6.8380   -0.1510   -1.0840 ha        1 1QO      0.149167
     33 H13        -5.7120   -2.2460   -1.2940 ha        1 1QO      0.149167
     34 H14        -3.3420   -2.1930   -1.6570 ha        1 1QO      0.143000
@<TRIPOS>BOND
     1    1    2 1   
     2    1   11 1   
     3    1   21 1   
     4    2    3 1   
     5    2   12 1   
     6    3    6 1   
     7    4   13 1   
     8    4   22 1   
     9    5   17 1   
    10    6    7 1   
    11    7   14 1   
    12    7   17 1   
    13    8    9 1   
    14    8   20 1   
    15    9   10 1   
    16    9   23 1   
    17   10   24 1   
    18   11   25 1   
    19   11   26 1   
    20   13   27 1   
    21   14   28 1   
    22   15   16 1   
    23   15   29 1   
    24   16   30 1   
    25   17   31 1   
    26   18   19 1   
    27   18   32 1   
    28   19   33 1   
    29   20   34 1   
@<TRIPOS>SUBSTRUCTURE
     1 1QO         1 TEMP              0 ****  ****    0 ROOT
