@<TRIPOS>MOLECULE
1QP
   24    25     1     0     0
SMALL
bcc


@<TRIPOS>ATOM
      1 O1          1.5410   -1.7860   -0.0020 o         1 1QP     -0.569000
      2 C1          1.4370   -0.5520   -0.0020 c         1 1QP      0.690300
      3 O2          2.5930    0.1880   -0.0020 os        1 1QP     -0.441900
      4 C9          3.8220   -0.5600   -0.0030 c3        1 1QP      0.141400
      5 C10         4.9350    0.4590   -0.0030 c3        1 1QP     -0.100100
      6 C2          0.2390    0.2430   -0.0010 cc        1 1QP     -0.363800
      7 C8          0.1140    1.6790   -0.0010 cc        1 1QP      0.444500
      8 N2         -1.1890    2.0610   -0.0000 nd        1 1QP     -0.575100
      9 N1         -1.9210    0.9230   -0.0000 na        1 1QP      0.198000
     10 C3         -1.0970   -0.2430   -0.0010 cd        1 1QP      0.020700
     11 C7         -3.3010    0.7890    0.0000 cc        1 1QP     -0.038300
     12 C6         -3.8650   -0.4690   -0.0000 cd        1 1QP     -0.179000
     13 C5         -3.0550   -1.6380   -0.0010 cc        1 1QP     -0.096000
     14 C4         -1.6870   -1.5340   -0.0010 cd        1 1QP     -0.116000
     15 H1          3.8480   -1.2100    0.9100 h1        1 1QP      0.050700
     16 H2          3.8480   -1.2100   -0.9160 h1        1 1QP      0.050700
     17 H3          5.9160   -0.0740   -0.0030 hc        1 1QP      0.047033
     18 H4          4.8720    1.1100   -0.9080 hc        1 1QP      0.047033
     19 H5          4.8720    1.1090    0.9020 hc        1 1QP      0.047033
     20 H6          0.9340    2.4020   -0.0010 h4        1 1QP      0.069800
     21 H7         -3.8910    1.7220    0.0000 h4        1 1QP      0.182000
     22 H8         -4.9600   -0.5660    0.0000 ha        1 1QP      0.157000
     23 H9         -3.5450   -2.6230   -0.0010 ha        1 1QP      0.149000
     24 H10        -1.0080   -2.4020   -0.0020 ha        1 1QP      0.183000
@<TRIPOS>BOND
     1    1    2 2   
     2    2    3 1   
     3    2    6 1   
     4    3    4 1   
     5    4    5 1   
     6    4   15 1   
     7    4   16 1   
     8    5   17 1   
     9    5   18 1   
    10    5   19 1   
    11    6    7 1   
    12    6   10 2   
    13    7    8 2   
    14    7   20 1   
    15    8    9 1   
    16    9   10 1   
    17    9   11 1   
    18   10   14 1   
    19   11   12 2   
    20   11   21 1   
    21   12   13 1   
    22   12   22 1   
    23   13   14 2   
    24   13   23 1   
    25   14   24 1   
@<TRIPOS>SUBSTRUCTURE
     1 1QP         1 TEMP              0 ****  ****    0 ROOT
