@<TRIPOS>MOLECULE
1QP
   24    20     1     0     0
SMALL
bcc


@<TRIPOS>ATOM
      1 O1         -0.5190   -1.5570    1.6380 o         1 1QP     -0.379000
      2 C1         -0.0170   -0.4960    1.2590 c1        1 1QP      0.393000
      3 O2         -0.1890    0.6890    2.0350 os        1 1QP     -0.279000
      4 C9         -0.7940    0.4640    3.3060 c3        1 1QP     -0.009000
      5 C10        -0.7450    1.7340    4.1200 c3        1 1QP     -0.244000
      6 C2          0.6400   -0.4170   -0.1070 c1        1 1QP     -0.258000
      7 C8          2.0150   -0.5160   -0.0720 c1        1 1QP     -0.006500
      8 N2          2.4630   -0.6080   -1.3560 n2        1 1QP     -0.069000
      9 N1          1.3530   -0.5660   -2.2060 n2        1 1QP     -0.069000
     10 C3          0.2400   -0.4500   -1.4360 c1        1 1QP     -0.006500
     11 C7          1.2430   -0.5950   -3.5790 c1        1 1QP     -0.101250
     12 C6         -0.0100   -0.5050   -4.1780 c1        1 1QP     -0.101250
     13 C5         -1.1360   -0.3870   -3.4020 c1        1 1QP     -0.101250
     14 C4         -1.0240   -0.3590   -2.0370 c1        1 1QP     -0.101250
     15 H1         -1.7150    0.1960    3.1800 h1        1 1QP      0.100500
     16 H2         -0.2960   -0.2640    3.7900 h1        1 1QP      0.100500
     17 H3         -1.3180    1.6500    4.8710 hc        1 1QP      0.087667
     18 H4          0.1690    1.8900    4.4240 hc        1 1QP      0.087667
     19 H5         -1.0280    2.4630    3.5870 hc        1 1QP      0.087667
     20 H6          2.5620   -0.5650    0.7280 DU        1 1QP      0.199000
     21 H7          2.0590   -0.6800   -4.1420 ha        1 1QP      0.167750
     22 H8         -0.0850   -0.5240   -5.1200 ha        1 1QP      0.167750
     23 H9         -2.0340   -0.3240   -3.8310 ha        1 1QP      0.167750
     24 H10        -1.8350   -0.2740   -1.4740 ha        1 1QP      0.167750
@<TRIPOS>BOND
     1    1    2 1   
     2    2    3 1   
     3    3    4 1   
     4    4    5 1   
     5    4   15 1   
     6    4   16 1   
     7    5   17 1   
     8    5   18 1   
     9    5   19 1   
    10    6    7 1   
    11    6   10 1   
    12    7    8 1   
    13    8    9 1   
    14    9   10 1   
    15   11   12 1   
    16   11   21 1   
    17   12   22 1   
    18   13   14 1   
    19   13   23 1   
    20   14   24 1   
@<TRIPOS>SUBSTRUCTURE
     1 1QP         1 TEMP              0 ****  ****    0 ROOT
