@<TRIPOS>MOLECULE
1QQ
   18    17     1     0     0
SMALL
bcc


@<TRIPOS>ATOM
      1 C42        -0.1300   -0.3970   -0.4420 c         1 1QQ      0.837600
      2 C44         1.1810   -0.0620   -1.1450 c         1 1QQ      0.466900
      3 C46         3.0510    0.3840    2.3260 cx        1 1QQ     -0.095700
      4 C48         2.5720   -1.0210    2.2370 c3        1 1QQ     -0.096100
      5 C47         3.9240    0.9440    1.2350 cx        1 1QQ     -0.146900
      6 C49         4.5060    0.6780    2.5920 cx        1 1QQ     -0.146900
      7 O45         1.4780   -0.3570   -2.3070 o         1 1QQ     -0.595100
      8 O43        -0.1150   -1.3900    0.3410 o         1 1QQ     -0.821800
      9 H46         1.9190    0.4900   -0.5080 h4        1 1QQ     -0.059800
     10 H481        2.2980    1.0620    2.7770 hc        1 1QQ      0.075700
     11 H482        2.2880   -1.3970    3.2510 hc        1 1QQ      0.053700
     12 H483        3.3610   -1.6920    1.8210 hc        1 1QQ      0.053700
     13 H471        1.6660   -1.0820    1.5700 hc        1 1QQ      0.053700
     14 H472        3.7680    1.9870    0.9100 hc        1 1QQ      0.060700
     15 H491        4.2030    0.2880    0.3910 hc        1 1QQ      0.060700
     16 H492        5.2050   -0.1670    2.7170 hc        1 1QQ      0.060700
     17 H493        4.7710    1.5310    3.2400 hc        1 1QQ      0.060700
     18 OXT        -1.1150    0.3640   -0.6350 o         1 1QQ     -0.821800
@<TRIPOS>BOND
     1    1    2 1   
     2    1    8 1   
     3    1   18 1   
     4    2    7 2   
     5    2    9 1   
     6    3    4 1   
     7    3    5 1   
     8    3    6 1   
     9    3   10 1   
    10    4   11 1   
    11    4   12 1   
    12    4   13 1   
    13    5    6 1   
    14    5   14 1   
    15    5   15 1   
    16    6   16 1   
    17    6   17 1   
@<TRIPOS>SUBSTRUCTURE
     1 1QQ         1 TEMP              0 ****  ****    0 ROOT
