@<TRIPOS>MOLECULE
1QQ
   18    17     1     0     0
SMALL
bcc


@<TRIPOS>ATOM
      1 C42         0.3690   -0.5090   -0.8620 c         1 1QQ      0.833600
      2 C44        -0.7360   -0.4960   -1.9090 c         1 1QQ      0.477900
      3 C46         3.3830    0.4260    2.4980 cx        1 1QQ     -0.080700
      4 C48         3.0100   -0.8220    1.7790 c3        1 1QQ     -0.094100
      5 C47         4.6090    1.1950    2.0880 cx        1 1QQ     -0.152400
      6 C49         4.5960    0.4530    3.3920 cx        1 1QQ     -0.152400
      7 O45        -0.9130    0.3750   -2.7660 o         1 1QQ     -0.594100
      8 O43         1.4450   -1.1020   -1.1540 o         1 1QQ     -0.823300
      9 H46        -1.4280   -1.3730   -1.8620 h4        1 1QQ     -0.064800
     10 H481        2.4940    1.0100    2.8150 hc        1 1QQ      0.080700
     11 H482        2.5180   -1.5340    2.4850 hc        1 1QQ      0.057367
     12 H483        3.9080   -1.3220    1.3420 hc        1 1QQ      0.057367
     13 H471        2.2830   -0.5980    0.9450 hc        1 1QQ      0.057367
     14 H472        5.2240    0.8080    1.2560 hc        1 1QQ      0.054950
     15 H491        4.5770    2.2980    2.0970 hc        1 1QQ      0.054950
     16 H492        4.5580    1.0260    4.3340 hc        1 1QQ      0.054950
     17 H493        5.2050   -0.4620    3.4920 hc        1 1QQ      0.054950
     18 OXT         0.1220    0.0210    0.2570 o         1 1QQ     -0.823300
@<TRIPOS>BOND
     1    1    2 1   
     2    1    8 1   
     3    1   18 1   
     4    2    7 2   
     5    2    9 1   
     6    3    4 1   
     7    3    5 1   
     8    3    6 1   
     9    3   10 1   
    10    4   11 1   
    11    4   12 1   
    12    4   13 1   
    13    5    6 1   
    14    5   14 1   
    15    5   15 1   
    16    6   16 1   
    17    6   17 1   
@<TRIPOS>SUBSTRUCTURE
     1 1QQ         1 TEMP              0 ****  ****    0 ROOT
