@<TRIPOS>MOLECULE
1QQ
   18    17     1     0     0
SMALL
bcc


@<TRIPOS>ATOM
      1 C42         1.6540    0.4100    0.1450 c         1 1QQ      0.855600
      2 C44         0.4160   -0.5020    0.1250 c         1 1QQ      0.472100
      3 C46        -0.9010    0.2500    0.0080 c3        1 1QQ     -0.177700
      4 C48        -1.0310    0.8000   -1.3970 c3        1 1QQ     -0.084100
      5 C47        -2.0860   -0.6180    0.3920 c3        1 1QQ     -0.072400
      6 C49        -3.3400    0.1850    0.6240 c3        1 1QQ     -0.086100
      7 O45         0.4510   -1.7340    0.2090 o         1 1QQ     -0.590100
      8 O43         2.0500    0.8110    1.2720 o         1 1QQ     -0.816800
      9 H46        -0.8310    1.1130    0.7310 hc        1 1QQ      0.067700
     10 H481       -1.2510   -0.0210   -2.1210 hc        1 1QQ      0.035700
     11 H482       -1.8580    1.5480   -1.4480 hc        1 1QQ      0.035700
     12 H483       -0.0690    1.2900   -1.6970 hc        1 1QQ      0.035700
     13 H471       -2.2630   -1.3780   -0.4130 hc        1 1QQ      0.041700
     14 H472       -1.8260   -1.1870    1.3240 hc        1 1QQ      0.041700
     15 H491       -3.1820    0.9350    1.4370 hc        1 1QQ      0.019700
     16 H492       -3.6370    0.7330   -0.3030 hc        1 1QQ      0.019700
     17 H493       -4.1820   -0.4850    0.9220 hc        1 1QQ      0.019700
     18 OXT         2.1580    0.7240   -0.9670 o         1 1QQ     -0.816800
@<TRIPOS>BOND
     1    1    2 1   
     2    1    8 1   
     3    1   18 1   
     4    2    3 1   
     5    2    7 2   
     6    3    4 1   
     7    3    5 1   
     8    3    9 1   
     9    4   10 1   
    10    4   11 1   
    11    4   12 1   
    12    5    6 1   
    13    5   13 1   
    14    5   14 1   
    15    6   15 1   
    16    6   16 1   
    17    6   17 1   
@<TRIPOS>SUBSTRUCTURE
     1 1QQ         1 TEMP              0 ****  ****    0 ROOT
