@<TRIPOS>MOLECULE
1QQ
   18    16     1     0     0
SMALL
bcc


@<TRIPOS>ATOM
      1 C42        -2.3260   -0.3170   -1.2620 c1        1 1QQ      0.325000
      2 C44        -0.8130   -0.3170   -1.2620 c1        1 1QQ      0.183000
      3 C46        -0.0570   -0.3170    0.0480 c3        1 1QQ     -0.167000
      4 C48         0.6720   -1.6330    0.2100 c3        1 1QQ     -0.202000
      5 C47         0.9440    0.8170    0.0520 c3        1 1QQ     -0.151000
      6 C49         0.8400    1.5760    1.3570 c3        1 1QQ     -0.204000
      7 O45        -0.2060   -0.3170   -2.3140 o         1 1QQ     -0.351000
      8 O43        -2.9560   -1.4050   -1.1840 o         1 1QQ     -0.551500
      9 H46        -0.6850   -0.2000    0.7860 hc        1 1QQ      0.107000
     10 H481        1.1760   -1.6260    1.0450 hc        1 1QQ      0.075000
     11 H482        1.2850   -1.7600   -0.5390 hc        1 1QQ      0.075000
     12 H483        0.0240   -2.3640    0.2270 hc        1 1QQ      0.075000
     13 H471        1.8460    0.4550   -0.0430 hc        1 1QQ      0.081000
     14 H472        0.7560    1.4200   -0.6910 hc        1 1QQ      0.081000
     15 H491       -0.0460    1.9780    1.4290 hc        1 1QQ      0.059000
     16 H492        1.5190    2.2780    1.3800 hc        1 1QQ      0.059000
     17 H493        0.9820    0.9630    2.1030 hc        1 1QQ      0.059000
     18 OXT        -2.9560    0.7700   -1.3400 o         1 1QQ     -0.551500
@<TRIPOS>BOND
     1    1    8 1   
     2    1   18 1   
     3    2    3 1   
     4    2    7 1   
     5    3    4 1   
     6    3    5 1   
     7    3    9 1   
     8    4   10 1   
     9    4   11 1   
    10    4   12 1   
    11    5    6 1   
    12    5   13 1   
    13    5   14 1   
    14    6   15 1   
    15    6   16 1   
    16    6   17 1   
@<TRIPOS>SUBSTRUCTURE
     1 1QQ         1 TEMP              0 ****  ****    0 ROOT
