@<TRIPOS>MOLECULE
1QR
   50    41     1     0     0
SMALL
bcc


@<TRIPOS>ATOM
      1 C4         -0.8130   -0.7940    0.1360 c1        1 1QR     -0.084500
      2 C5          0.5760   -0.9020    0.1260 c1        1 1QR     -0.084500
      3 C6          1.2740   -0.9820    1.3230 c1        1 1QR     -0.058000
      4 C7          2.8260   -1.1040    1.3130 c3        1 1QR      0.000000
      5 C13         5.4520    1.6010   -2.9930 c1        1 1QR     -0.310333
      6 C17         6.3580    3.7870   -2.8510 c1        1 1QR     -0.072333
      7 C26        -6.1260   -1.3080   -0.3340 c3        1 1QR     -0.169000
      8 C28        -6.6500   -0.8050    2.0040 c3        1 1QR     -0.169000
      9 C1          0.5790   -0.9530    2.5420 c1        1 1QR     -0.141000
     10 C2         -0.8100   -0.8450    2.5500 c1        1 1QR     -0.072333
     11 C3         -1.5060   -0.7650    1.3530 c1        1 1QR     -0.310333
     12 N8          3.4040    0.1140    0.7760 n         1 1QR     -0.355000
     13 C9          4.7250    0.0900    0.2070 c2        1 1QR      0.363000
     14 O10         5.5410   -0.7150    0.6020 o         1 1QR     -0.378000
     15 C11         5.1050    1.0840   -0.8580 c2        1 1QR     -0.092000
     16 C12         4.9960    0.6170   -2.1420 c1        1 1QR     -0.124000
     17 C14         5.5830    1.6510   -4.3850 c1        1 1QR     -0.072333
     18 N15         6.1010    2.7710   -4.9870 n1        1 1QR     -0.161000
     19 C16         6.4870    3.8340   -4.2300 c1        1 1QR     -0.053000
     20 C18         5.8350    2.6570   -2.2410 c1        1 1QR     -0.310333
     21 N19         5.6210    2.3370   -0.9110 n1        1 1QR     -0.171000
     22 S21        -3.1870   -0.0840    1.3290 ss        1 1QR      2.846000
     23 O22        -3.3960    0.8230    2.4190 o         1 1QR     -0.932000
     24 O23        -3.3790    0.7800    0.2050 o         1 1QR     -0.932000
     25 N24        -4.3060   -1.3100    1.3450 n2        1 1QR     -0.836000
     26 C25        -4.7810   -1.8810    0.0930 c3        1 1QR     -0.012500
     27 C27        -7.1370   -1.3820    0.7440 c3        1 1QR     -0.155000
     28 C29        -5.3080   -1.3790    2.4220 c3        1 1QR     -0.012500
     29 H1         -1.3030   -0.7380   -0.7050 ha        1 1QR      0.146500
     30 H2          1.0660   -0.9220   -0.7340 ha        1 1QR      0.146500
     31 H3          3.1480   -1.2420    2.2230 h1        1 1QR      0.116000
     32 H4          3.0890   -1.8630    0.7540 h1        1 1QR      0.116000
     33 H5          6.6360    4.5500   -2.3080 ha        1 1QR      0.154333
     34 H6         -6.0040   -0.3690   -0.5920 hc        1 1QR      0.091000
     35 H7         -6.4490   -1.8060   -1.1040 hc        1 1QR      0.091000
     36 H8         -6.5590    0.1700    1.8950 hc        1 1QR      0.091000
     37 H9         -7.3050   -0.9850    2.7100 hc        1 1QR      0.091000
     38 H10         1.0680   -1.0090    3.3830 ha        1 1QR      0.161000
     39 H11        -1.2990   -0.8250    3.4090 ha        1 1QR      0.154333
     40 H12         2.9660    0.9120    0.8810 hn        1 1QR      0.228000
     41 H13         4.6750   -0.2600   -2.4040 DU        1 1QR      0.216500
     42 H14         5.3020    0.8790   -4.9360 ha        1 1QR      0.154333
     43 H15         6.8540    4.6270   -4.6570 ha        1 1QR      0.161000
     44 H16         5.7660    2.8910   -0.1940 DU        1 1QR      0.216500
     45 H17        -4.8680   -2.8480    0.1990 h1        1 1QR      0.090250
     46 H18        -4.1200   -1.6960   -0.6100 h1        1 1QR      0.090250
     47 H19        -7.9440   -0.8920    0.4590 hc        1 1QR      0.082500
     48 H20        -7.3720   -2.3220    0.8950 hc        1 1QR      0.082500
     49 H21        -5.4310   -2.3150    2.6790 h1        1 1QR      0.090250
     50 H22        -4.9750   -0.8740    3.1990 h1        1 1QR      0.090250
@<TRIPOS>BOND
     1    1    2 1   
     2    1   29 1   
     3    2   30 1   
     4    3    4 1   
     5    3    9 1   
     6    4   12 1   
     7    4   31 1   
     8    4   32 1   
     9    5   17 1   
    10    6   20 1   
    11    6   33 1   
    12    7   26 1   
    13    7   27 1   
    14    7   34 1   
    15    7   35 1   
    16    8   27 1   
    17    8   28 1   
    18    8   36 1   
    19    8   37 1   
    20    9   38 1   
    21   10   11 1   
    22   10   39 1   
    23   12   13 1   
    24   12   40 1   
    25   13   14 1   
    26   13   15 1   
    27   15   16 1   
    28   15   21 1   
    29   17   42 1   
    30   18   19 1   
    31   19   43 1   
    32   22   23 1   
    33   22   24 1   
    34   25   26 1   
    35   25   28 1   
    36   26   45 1   
    37   26   46 1   
    38   27   47 1   
    39   27   48 1   
    40   28   49 1   
    41   28   50 1   
@<TRIPOS>SUBSTRUCTURE
     1 1QR         1 TEMP              0 ****  ****    0 ROOT
