@<TRIPOS>MOLECULE
1QR
   50    53     1     0     0
SMALL
bcc


@<TRIPOS>ATOM
      1 C4         -1.7440    0.1790   -0.5330 ca        1 1QR     -0.020500
      2 C5         -0.6530   -0.6310   -0.2340 ca        1 1QR     -0.147000
      3 C6         -0.4000   -0.9970    1.0930 ca        1 1QR     -0.061300
      4 C7          0.7680   -1.8910    1.4110 c3        1 1QR      0.127300
      5 C13         6.1300   -0.2480   -0.8740 ca        1 1QR     -0.238100
      6 C17         6.3550    2.0060    0.1060 ca        1 1QR     -0.261300
      7 C26        -6.1300   -1.4210    0.7320 c3        1 1QR     -0.095400
      8 C28        -5.4350   -1.3960   -1.6650 c3        1 1QR     -0.095400
      9 C1         -1.2460   -0.5470    2.1100 ca        1 1QR     -0.147000
     10 C2         -2.3380    0.2600    1.7980 ca        1 1QR     -0.020500
     11 C3         -2.6030    0.6330    0.4760 ca        1 1QR     -0.371500
     12 N8          2.0540   -1.3000    1.1590 n         1 1QR     -0.568900
     13 C9          2.7230   -1.4820   -0.0370 c         1 1QR      0.692300
     14 O10         2.2840   -2.2510   -0.9150 o         1 1QR     -0.592100
     15 C11         4.0080   -0.7710   -0.2260 cc        1 1QR     -0.151300
     16 C12         5.1060   -1.2590   -0.9350 cd        1 1QR     -0.072200
     17 C14         7.4430   -0.1190   -1.3650 ca        1 1QR      0.460200
     18 N15         8.1810    0.9760   -1.1580 nb        1 1QR     -0.686000
     19 C16         7.6390    1.9990   -0.4450 ca        1 1QR      0.415200
     20 C18         5.5800    0.8540   -0.1100 ca        1 1QR     -0.007200
     21 N19         4.3040    0.4970    0.3240 na        1 1QR     -0.176400
     22 S21        -3.9050    1.6540    0.1100 sy        1 1QR      1.503200
     23 O22        -4.2260    2.3800    1.2800 o         1 1QR     -0.651300
     24 O23        -3.5580    2.4070   -1.0340 o         1 1QR     -0.651300
     25 N24        -5.1130    0.6310   -0.2510 n3        1 1QR     -0.811500
     26 C25        -6.0090    0.1040    0.7480 c3        1 1QR      0.226300
     27 C27        -6.4380   -1.9250   -0.6620 c3        1 1QR     -0.075400
     28 C29        -5.3320    0.1290   -1.5850 c3        1 1QR      0.226300
     29 H1         -1.9310    0.4850   -1.5780 ha        1 1QR      0.153500
     30 H2          0.0150   -0.9920   -1.0340 ha        1 1QR      0.150000
     31 H3          0.7300   -2.1870    2.4990 h1        1 1QR      0.075200
     32 H4          0.6740   -2.8290    0.7850 h1        1 1QR      0.075200
     33 H6         -5.1780   -1.8850    1.0980 hc        1 1QR      0.049700
     34 H7         -6.9470   -1.7170    1.4380 hc        1 1QR      0.049700
     35 H8         -4.4320   -1.8580   -1.4760 hc        1 1QR      0.049700
     36 H9         -5.7470   -1.6720   -2.7050 hc        1 1QR      0.049700
     37 H10        -1.0530   -0.8270    3.1560 ha        1 1QR      0.150000
     38 H11        -2.9970    0.6280    2.6040 ha        1 1QR      0.153500
     39 H12         2.3930   -0.6500    1.8250 hn        1 1QR      0.315500
     40 H13         5.1700   -2.2210   -1.4390 ha        1 1QR      0.177000
     41 H14         7.9140   -0.9320   -1.9470 h4        1 1QR      0.028100
     42 H15         8.3030    2.8740   -0.3160 h4        1 1QR      0.024100
     43 H16         3.6200    1.1440    0.6210 hn        1 1QR      0.298700
     44 H17        -7.0350    0.5440    0.5780 h1        1 1QR      0.054200
     45 H18        -5.6550    0.4400    1.7660 h1        1 1QR      0.054200
     46 H19        -6.4260   -3.0460   -0.6710 hc        1 1QR      0.044700
     47 H20        -7.4700   -1.5960   -0.9580 hc        1 1QR      0.044700
     48 H21        -4.4900    0.4820   -2.2480 h1        1 1QR      0.054200
     49 H22        -6.2920    0.5720   -1.9820 h1        1 1QR      0.054200
     50 H5          5.9800    2.8650    0.6740 ha        1 1QR      0.147000
@<TRIPOS>BOND
     1    1    2 ar  
     2    1   11 ar  
     3    1   29 1   
     4    2    3 ar  
     5    2   30 1   
     6    3    4 1   
     7    3    9 ar  
     8    4   12 1   
     9    4   31 1   
    10    4   32 1   
    11    5   16 1   
    12    5   17 ar  
    13    5   20 ar  
    14    6   19 ar  
    15    6   20 ar  
    16    6   50 1   
    17    7   26 1   
    18    7   27 1   
    19    7   33 1   
    20    7   34 1   
    21    8   27 1   
    22    8   28 1   
    23    8   35 1   
    24    8   36 1   
    25    9   10 ar  
    26    9   37 1   
    27   10   11 ar  
    28   10   38 1   
    29   11   22 1   
    30   12   13 1   
    31   12   39 1   
    32   13   14 2   
    33   13   15 1   
    34   15   16 2   
    35   15   21 1   
    36   16   40 1   
    37   17   18 ar  
    38   17   41 1   
    39   18   19 ar  
    40   19   42 1   
    41   20   21 1   
    42   21   43 1   
    43   22   23 2   
    44   22   24 2   
    45   22   25 1   
    46   25   26 1   
    47   25   28 1   
    48   26   44 1   
    49   26   45 1   
    50   27   46 1   
    51   27   47 1   
    52   28   48 1   
    53   28   49 1   
@<TRIPOS>SUBSTRUCTURE
     1 1QR         1 TEMP              0 ****  ****    0 ROOT
