@<TRIPOS>MOLECULE
1QR
   51    54     1     0     0
SMALL
bcc


@<TRIPOS>ATOM
      1 C4         -0.1690   -0.1730   -0.2130 ca        1 1QR     -0.018000
      2 C5          1.2220   -0.0980   -0.2920 ca        1 1QR     -0.130000
      3 C6          1.9720    0.0700    0.8760 ca        1 1QR     -0.140300
      4 C7          3.4600    0.1510    0.8020 c3        1 1QR      0.167100
      5 C13         7.3350    4.7640    1.4970 ca        1 1QR     -0.278100
      6 C17         5.7960    6.6860    1.3930 ca        1 1QR     -0.263300
      7 C26        -2.2910   -3.5610    2.6720 c3        1 1QR     -0.093400
      8 C28        -2.4030   -3.7970    0.1890 c3        1 1QR     -0.093400
      9 C1          1.3310    0.1490    2.1170 ca        1 1QR     -0.130000
     10 C2         -0.0600    0.0740    2.1810 ca        1 1QR     -0.018000
     11 C3         -0.8200   -0.0790    1.0180 ca        1 1QR     -0.295500
     12 N8          3.9070    1.5840    0.7880 n4        1 1QR     -0.675800
     13 C9          5.4150    1.7390    0.6990 c         1 1QR      0.586300
     14 O10         6.0570    0.7180    0.4800 o         1 1QR     -0.434100
     15 C11         5.9200    3.0710    0.9160 cc        1 1QR     -0.282300
     16 C12         7.2510    3.3510    1.2700 cd        1 1QR      0.071800
     17 C14         8.3650    5.6510    1.8800 ca        1 1QR      0.500200
     18 N15         8.1520    6.9630    2.0100 nb        1 1QR     -0.660000
     19 C16         6.9070    7.4540    1.7700 ca        1 1QR      0.470200
     20 C18         6.0140    5.3080    1.2580 ca        1 1QR      0.021800
     21 N19         5.1190    4.2580    0.9700 na        1 1QR     -0.166400
     22 S21        -2.5530   -0.0640    1.0960 sy        1 1QR      1.493200
     23 O22        -2.8710    0.6690    2.2560 o         1 1QR     -0.635800
     24 O23        -2.9810    0.4410   -0.1470 o         1 1QR     -0.635800
     25 N24        -2.9440   -1.6120    1.2610 n3        1 1QR     -0.820500
     26 C25        -3.0740   -2.2530    2.5510 c3        1 1QR      0.220800
     27 C27        -2.6050   -4.4910    1.5200 c3        1 1QR     -0.079400
     28 C29        -3.1830   -2.4830    0.1320 c3        1 1QR      0.220800
     29 H1         -0.7660   -0.2840   -1.1380 ha        1 1QR      0.174000
     30 H2          1.7200   -0.1830   -1.2710 ha        1 1QR      0.144500
     31 H3          3.8540   -0.3430   -0.1330 hx        1 1QR      0.119200
     32 H4          3.9420   -0.3480    1.6920 hx        1 1QR      0.119200
     33 H7         -2.5680   -4.0450    3.6440 hc        1 1QR      0.051200
     34 H8         -1.3110   -3.6040    0.0250 hc        1 1QR      0.051200
     35 H9         -2.7620   -4.4530   -0.6450 hc        1 1QR      0.051200
     36 H10         1.9160    0.2580    3.0430 ha        1 1QR      0.144500
     37 H11        -0.5710    0.1590    3.1580 ha        1 1QR      0.174000
     38 H12         3.4740    2.0580   -0.0110 hn        1 1QR      0.458300
     39 H13         8.0590    2.6220    1.3730 ha        1 1QR      0.194000
     40 H14         9.3890    5.2880    2.0890 h4        1 1QR      0.051100
     41 H15         6.8100    8.5510    1.8950 h4        1 1QR      0.052100
     42 H16         4.4320    4.4110    0.2650 hn        1 1QR      0.277700
     43 H17        -4.1670   -2.4730    2.7300 h1        1 1QR      0.061200
     44 H18        -2.7310   -1.5330    3.3500 h1        1 1QR      0.061200
     45 H19        -3.6690   -4.8390    1.6010 hc        1 1QR      0.053700
     46 H20        -1.9500   -5.3980    1.5760 hc        1 1QR      0.053700
     47 H21        -4.2860   -2.7230    0.0960 h1        1 1QR      0.061200
     48 H22        -2.9190   -1.9290   -0.8150 h1        1 1QR      0.061200
     49 H5          4.8160    7.1490    1.2200 ha        1 1QR      0.169000
     50 H82         3.5770    2.0450    1.6450 hn        1 1QR      0.458300
     51 H6         -1.1900   -3.3500    2.6990 hc        1 1QR      0.051200
@<TRIPOS>BOND
     1    1    2 ar  
     2    1   11 ar  
     3    1   29 1   
     4    2    3 ar  
     5    2   30 1   
     6    3    4 1   
     7    3    9 ar  
     8    4   12 1   
     9    4   31 1   
    10    4   32 1   
    11    5   16 1   
    12    5   17 ar  
    13    5   20 ar  
    14    6   19 ar  
    15    6   20 ar  
    16    6   49 1   
    17    7   26 1   
    18    7   27 1   
    19    7   33 1   
    20    7   51 1   
    21    8   27 1   
    22    8   28 1   
    23    8   34 1   
    24    8   35 1   
    25    9   10 ar  
    26    9   36 1   
    27   10   11 ar  
    28   10   37 1   
    29   11   22 1   
    30   12   13 1   
    31   12   38 1   
    32   12   50 1   
    33   13   14 2   
    34   13   15 1   
    35   15   16 2   
    36   15   21 1   
    37   16   39 1   
    38   17   18 ar  
    39   17   40 1   
    40   18   19 ar  
    41   19   41 1   
    42   20   21 1   
    43   21   42 1   
    44   22   23 2   
    45   22   24 2   
    46   22   25 1   
    47   25   26 1   
    48   25   28 1   
    49   26   43 1   
    50   26   44 1   
    51   27   45 1   
    52   27   46 1   
    53   28   47 1   
    54   28   48 1   
@<TRIPOS>SUBSTRUCTURE
     1 1QR         1 TEMP              0 ****  ****    0 ROOT
