@<TRIPOS>MOLECULE
1QR
   51    54     1     0     0
SMALL
bcc


@<TRIPOS>ATOM
      1 C4         -0.1680   -0.1700   -0.2010 ca        1 1QR     -0.018000
      2 C5          1.2220   -0.0950   -0.2800 ca        1 1QR     -0.130000
      3 C6          1.9730    0.0690    0.8880 ca        1 1QR     -0.140300
      4 C7          3.4600    0.1510    0.8140 c3        1 1QR      0.167100
      5 C13         7.3350    4.7670    1.4850 ca        1 1QR     -0.278100
      6 C17         5.7960    6.6890    1.3770 ca        1 1QR     -0.263300
      7 C26        -2.2910   -3.5690    2.6670 c3        1 1QR     -0.093400
      8 C28        -2.4050   -3.7930    0.1830 c3        1 1QR     -0.093400
      9 C1          1.3320    0.1450    2.1300 ca        1 1QR     -0.130000
     10 C2         -0.0590    0.0700    2.1930 ca        1 1QR     -0.018000
     11 C3         -0.8190   -0.0800    1.0310 ca        1 1QR     -0.295500
     12 N8          3.9070    1.5830    0.7950 ny        1 1QR     -0.675800
     13 C9          5.4150    1.7390    0.7020 c         1 1QR      0.586300
     14 O10         6.0570    0.7180    0.4860 o         1 1QR     -0.434100
     15 C11         5.9200    3.0710    0.9130 cc        1 1QR     -0.282300
     16 C12         7.2520    3.3540    1.2630 cd        1 1QR      0.071800
     17 C14         8.3660    5.6570    1.8610 ca        1 1QR      0.500200
     18 N15         8.1530    6.9690    1.9870 nb        1 1QR     -0.660000
     19 C16         6.9080    7.4580    1.7490 ca        1 1QR      0.470200
     20 C18         6.0130    5.3100    1.2470 ca        1 1QR      0.021800
     21 N19         5.1180    4.2590    0.9650 na        1 1QR     -0.166400
     22 S21        -2.5520   -0.0640    1.1090 sy        1 1QR      1.493200
     23 O22        -2.8700    0.6630    2.2730 o         1 1QR     -0.635800
     24 O23        -2.9800    0.4470   -0.1310 o         1 1QR     -0.635800
     25 N24        -2.9440   -1.6130    1.2670 n3        1 1QR     -0.820500
     26 C25        -3.0730   -2.2600    2.5530 c3        1 1QR      0.220800
     27 C27        -2.6070   -4.4930    1.5100 c3        1 1QR     -0.079400
     28 C29        -3.1840   -2.4780    0.1330 c3        1 1QR      0.220800
     29 H1         -0.7650   -0.2780   -1.1260 ha        1 1QR      0.174000
     30 H2          1.7200   -0.1770   -1.2590 ha        1 1QR      0.144500
     31 H3          3.8550   -0.3470   -0.1200 hx        1 1QR      0.119200
     32 H4          3.9430   -0.3450    1.7060 hx        1 1QR      0.119200
     33 H7         -1.1910   -3.3600    2.6940 hc        1 1QR      0.051200
     34 H8         -1.3130   -3.6000    0.0190 hc        1 1QR      0.051200
     35 H9         -2.7660   -4.4440   -0.6540 hc        1 1QR      0.051200
     36 H10         1.9180    0.2510    3.0560 ha        1 1QR      0.144500
     37 H11        -0.5690    0.1510    3.1710 ha        1 1QR      0.174000
     38 H12         3.4730    2.0550   -0.0050 hn        1 1QR      0.458300
     39 H13         8.0600    2.6260    1.3670 ha        1 1QR      0.194000
     40 H14         9.3910    5.2940    2.0690 h4        1 1QR      0.051100
     41 H15         6.8100    8.5560    1.8700 h4        1 1QR      0.052100
     42 H16         4.4290    4.4090    0.2610 hn        1 1QR      0.277700
     43 H17        -2.7300   -1.5450    3.3550 h1        1 1QR      0.061200
     44 H18        -4.1670   -2.4800    2.7320 h1        1 1QR      0.061200
     45 H19        -1.9520   -5.4020    1.5620 hc        1 1QR      0.053700
     46 H20        -3.6710   -4.8410    1.5900 hc        1 1QR      0.053700
     47 H21        -4.2880   -2.7170    0.0960 h1        1 1QR      0.061200
     48 H22        -2.9210   -1.9200   -0.8110 h1        1 1QR      0.061200
     49 H5          4.8150    7.1500    1.2050 ha        1 1QR      0.169000
     50 H82         3.5790    2.0470    1.6510 hn        1 1QR      0.458300
     51 H6         -2.5680   -4.0580    3.6370 hc        1 1QR      0.051200
@<TRIPOS>BOND
     1    1    2 ar  
     2    1   11 ar  
     3    1   29 1   
     4    2    3 ar  
     5    2   30 1   
     6    3    4 1   
     7    3    9 ar  
     8    4   12 1   
     9    4   31 1   
    10    4   32 1   
    11    5   16 1   
    12    5   17 ar  
    13    5   20 ar  
    14    6   19 ar  
    15    6   20 ar  
    16    6   49 1   
    17    7   26 1   
    18    7   27 1   
    19    7   33 1   
    20    7   51 1   
    21    8   27 1   
    22    8   28 1   
    23    8   34 1   
    24    8   35 1   
    25    9   10 ar  
    26    9   36 1   
    27   10   11 ar  
    28   10   37 1   
    29   11   22 1   
    30   12   13 1   
    31   12   38 1   
    32   12   50 1   
    33   13   14 2   
    34   13   15 1   
    35   15   16 2   
    36   15   21 1   
    37   16   39 1   
    38   17   18 ar  
    39   17   40 1   
    40   18   19 ar  
    41   19   41 1   
    42   20   21 1   
    43   21   42 1   
    44   22   23 2   
    45   22   24 2   
    46   22   25 1   
    47   25   26 1   
    48   25   28 1   
    49   26   43 1   
    50   26   44 1   
    51   27   45 1   
    52   27   46 1   
    53   28   47 1   
    54   28   48 1   
@<TRIPOS>SUBSTRUCTURE
     1 1QR         1 TEMP              0 ****  ****    0 ROOT
