@<TRIPOS>MOLECULE
1QR
   51    54     1     0     0
SMALL
bcc


@<TRIPOS>ATOM
      1 C4         -0.1630   -0.1790   -0.2160 ca        1 1QR     -0.018000
      2 C5          1.2280   -0.1040   -0.2900 ca        1 1QR     -0.130000
      3 C6          1.9740    0.0690    0.8800 ca        1 1QR     -0.140300
      4 C7          3.4620    0.1500    0.8110 c3        1 1QR      0.167100
      5 C13         7.3330    4.7670    1.5000 ca        1 1QR     -0.278100
      6 C17         5.7940    6.6880    1.3860 ca        1 1QR     -0.263300
      7 C26        -2.2950   -3.5570    2.6740 c3        1 1QR     -0.093400
      8 C28        -2.3990   -3.8020    0.1910 c3        1 1QR     -0.093400
      9 C1          1.3280    0.1520    2.1180 ca        1 1QR     -0.130000
     10 C2         -0.0620    0.0770    2.1780 ca        1 1QR     -0.018000
     11 C3         -0.8190   -0.0810    1.0130 ca        1 1QR     -0.295500
     12 N8          3.9080    1.5830    0.7930 n4        1 1QR     -0.675800
     13 C9          5.4170    1.7390    0.7070 c         1 1QR      0.586300
     14 O10         6.0590    0.7180    0.4930 o         1 1QR     -0.434100
     15 C11         5.9200    3.0710    0.9210 cc        1 1QR     -0.282300
     16 C12         7.2510    3.3540    1.2770 cd        1 1QR      0.071800
     17 C14         8.3620    5.6560    1.8820 ca        1 1QR      0.500200
     18 N15         8.1480    6.9680    2.0070 nb        1 1QR     -0.660000
     19 C16         6.9040    7.4570    1.7640 ca        1 1QR      0.470200
     20 C18         6.0120    5.3100    1.2570 ca        1 1QR      0.021800
     21 N19         5.1180    4.2580    0.9700 na        1 1QR     -0.166400
     22 S21        -2.5520   -0.0660    1.0850 sy        1 1QR      1.493200
     23 O22        -2.8740    0.6710    2.2420 o         1 1QR     -0.635800
     24 O23        -2.9760    0.4340   -0.1610 o         1 1QR     -0.635800
     25 N24        -2.9440   -1.6130    1.2540 n3        1 1QR     -0.820500
     26 C25        -3.0780   -2.2500    2.5450 c3        1 1QR      0.220800
     27 C27        -2.6060   -4.4910    1.5230 c3        1 1QR     -0.079400
     28 C29        -3.1790   -2.4880    0.1270 c3        1 1QR      0.220800
     29 H1         -0.7570   -0.2940   -1.1420 ha        1 1QR      0.174000
     30 H2          1.7290   -0.1920   -1.2660 ha        1 1QR      0.144500
     31 H3          3.8600   -0.3470   -0.1210 hx        1 1QR      0.119200
     32 H4          3.9410   -0.3450    1.7050 hx        1 1QR      0.119200
     33 H7         -1.1950   -3.3460    2.7030 hc        1 1QR      0.051200
     34 H8         -1.3070   -3.6100    0.0300 hc        1 1QR      0.051200
     35 H9         -2.7560   -4.4610   -0.6420 hc        1 1QR      0.051200
     36 H10         1.9100    0.2650    3.0460 ha        1 1QR      0.144500
     37 H11        -0.5770    0.1650    3.1530 ha        1 1QR      0.174000
     38 H12         3.5750    2.0470    1.6480 hn        1 1QR      0.458300
     39 H13         8.0580    2.6250    1.3850 ha        1 1QR      0.194000
     40 H14         9.3860    5.2940    2.0940 h4        1 1QR      0.051100
     41 H15         6.8060    8.5550    1.8850 h4        1 1QR      0.052100
     42 H16         4.4330    4.4090    0.2630 hn        1 1QR      0.277700
     43 H17        -4.1720   -2.4690    2.7220 h1        1 1QR      0.061200
     44 H18        -2.7370   -1.5280    3.3430 h1        1 1QR      0.061200
     45 H19        -1.9510   -5.3990    1.5850 hc        1 1QR      0.053700
     46 H20        -3.6700   -4.8390    1.6020 hc        1 1QR      0.053700
     47 H21        -2.9120   -1.9380   -0.8210 h1        1 1QR      0.061200
     48 H22        -4.2820   -2.7280    0.0880 h1        1 1QR      0.061200
     49 H5          4.8140    7.1500    1.2100 ha        1 1QR      0.169000
     50 H82         3.4770    2.0550   -0.0090 hn        1 1QR      0.458300
     51 H6         -2.5760   -4.0380    3.6460 hc        1 1QR      0.051200
@<TRIPOS>BOND
     1    1    2 ar  
     2    1   11 ar  
     3    1   29 1   
     4    2    3 ar  
     5    2   30 1   
     6    3    4 1   
     7    3    9 ar  
     8    4   12 1   
     9    4   31 1   
    10    4   32 1   
    11    5   16 1   
    12    5   17 ar  
    13    5   20 ar  
    14    6   19 ar  
    15    6   20 ar  
    16    6   49 1   
    17    7   26 1   
    18    7   27 1   
    19    7   33 1   
    20    7   51 1   
    21    8   27 1   
    22    8   28 1   
    23    8   34 1   
    24    8   35 1   
    25    9   10 ar  
    26    9   36 1   
    27   10   11 ar  
    28   10   37 1   
    29   11   22 1   
    30   12   13 1   
    31   12   38 1   
    32   12   50 1   
    33   13   14 2   
    34   13   15 1   
    35   15   16 2   
    36   15   21 1   
    37   16   39 1   
    38   17   18 ar  
    39   17   40 1   
    40   18   19 ar  
    41   19   41 1   
    42   20   21 1   
    43   21   42 1   
    44   22   23 2   
    45   22   24 2   
    46   22   25 1   
    47   25   26 1   
    48   25   28 1   
    49   26   43 1   
    50   26   44 1   
    51   27   45 1   
    52   27   46 1   
    53   28   47 1   
    54   28   48 1   
@<TRIPOS>SUBSTRUCTURE
     1 1QR         1 TEMP              0 ****  ****    0 ROOT
