@<TRIPOS>MOLECULE
1QS
   45    34     1     0     0
SMALL
bcc


@<TRIPOS>ATOM
      1 C4         -2.0420   -0.9500   -1.3510 c1        1 1QS     -0.078000
      2 C5         -0.6560   -0.9020   -1.3260 c1        1 1QS     -0.078000
      3 C6          0.0200   -0.9350   -0.1100 c1        1 1QS     -0.050000
      4 C7          1.5540   -1.0380   -0.0900 c3        1 1QS      0.000000
      5 C13         6.4290    1.2000    1.2250 c1        1 1QS     -0.092000
      6 C17         6.6970    4.2760   -0.4880 c1        1 1QS     -0.194000
      7 C24        -6.2480   -2.5010    0.9520 c1        1 1QS     -0.058333
      8 C26        -8.2170   -1.2230    0.4150 c1        1 1QS     -0.154000
      9 C28        -6.1890   -0.8920   -0.8410 c1        1 1QS     -0.058333
     10 C1         -0.6960   -1.0150    1.0770 c1        1 1QS     -0.149000
     11 C2         -2.0870   -1.0630    1.0500 c1        1 1QS     -0.058333
     12 C3         -2.7570   -1.0300   -0.1610 c1        1 1QS     -0.491333
     13 N8          2.1240    0.2890    0.0210 n         1 1QS     -0.365000
     14 C9          3.2660    0.6500   -0.7750 c2        1 1QS      0.354000
     15 O10         3.2310    0.5150   -1.9800 o         1 1QS     -0.373000
     16 C11         4.4740    1.3060   -0.1180 c2        1 1QS     -0.173000
     17 C12         5.2500    0.6440    0.7960 c2        1 1QS     -0.109000
     18 C14         6.8400    2.4480    0.7270 c1        1 1QS     -0.004000
     19 N15         7.9510    3.2180    0.9810 n1        1 1QS     -0.136000
     20 C16         7.8620    4.3390    0.2350 c1        1 1QS     -0.119000
     21 N18         6.0730    3.1040   -0.1780 n2        1 1QS     -0.072000
     22 C19         4.8830    2.5440   -0.6110 c1        1 1QS      0.029000
     23 S20        -3.8910   -2.3580   -0.4610 ss        1 1QS      2.885000
     24 O21        -3.5150   -3.5370    0.2700 o         1 1QS     -0.927500
     25 O22        -3.7990   -2.8270   -1.8150 o         1 1QS     -0.927500
     26 C23        -5.5520   -1.8550   -0.0650 c1        1 1QS     -0.491333
     27 C25        -7.5790   -2.1860    1.1920 c1        1 1QS     -0.491333
     28 C27        -7.5230   -0.5760   -0.6000 c1        1 1QS      0.098000
     29 F29        -8.1320    0.3660   -1.3340 f         1 1QS     -0.093000
     30 F30        -8.2700   -2.8590    2.1230 f         1 1QS     -0.094000
     31 H1         -2.5180   -0.9260   -2.2100 ha        1 1QS      0.162000
     32 H2         -0.1520   -0.8460   -2.1660 ha        1 1QS      0.162000
     33 H3          1.8640   -1.4600   -0.9200 h1        1 1QS      0.116500
     34 H4          1.8350   -1.5780    0.6760 h1        1 1QS      0.116500
     35 H5          6.9860    0.7250    1.8810 ha        1 1QS      0.169000
     36 H6          6.3700    4.9560   -1.1190 DU        1 1QS      0.187500
     37 H7         -5.8000   -3.1790    1.4980 ha        1 1QS      0.167333
     38 H8         -9.1560   -1.0000    0.5850 ha        1 1QS      0.170000
     39 H9         -5.7010   -0.4380   -1.5550 ha        1 1QS      0.167333
     40 H10        -0.2220   -1.0380    1.9320 ha        1 1QS      0.141000
     41 H11        -2.5930   -1.1200    1.8890 ha        1 1QS      0.167333
     42 H12         1.7930    0.8770    0.6330 hn        1 1QS      0.227000
     43 H13         4.9550   -0.2250    1.1550 ha        1 1QS      0.140000
     44 H14         8.5310    5.0620    0.1930 DU        1 1QS      0.187500
     45 H15         4.3070    3.0380   -1.2350 ha        1 1QS      0.189000
@<TRIPOS>BOND
     1    1    2 1   
     2    1   31 1   
     3    2   32 1   
     4    3    4 1   
     5    3   10 1   
     6    4   13 1   
     7    4   33 1   
     8    4   34 1   
     9    5   17 1   
    10    5   35 1   
    11    6   20 1   
    12    6   21 1   
    13    7   27 1   
    14    7   37 1   
    15    8   28 1   
    16    8   38 1   
    17    9   26 1   
    18    9   39 1   
    19   10   40 1   
    20   11   12 1   
    21   11   41 1   
    22   13   14 1   
    23   13   42 1   
    24   14   15 1   
    25   14   16 1   
    26   16   17 1   
    27   16   22 1   
    28   17   43 1   
    29   18   21 1   
    30   19   20 1   
    31   22   45 1   
    32   23   24 1   
    33   23   25 1   
    34   28   29 1   
@<TRIPOS>SUBSTRUCTURE
     1 1QS         1 TEMP              0 ****  ****    0 ROOT
