@<TRIPOS>MOLECULE
1QS
   45    48     1     0     0
SMALL
bcc


@<TRIPOS>ATOM
      1 C4          2.2200   -2.1220    1.1260 ca        1 1QS     -0.017500
      2 C5          0.9380   -2.4740    1.5370 ca        1 1QS     -0.144000
      3 C6         -0.1170   -2.4590    0.6200 ca        1 1QS     -0.057300
      4 C7         -1.5030   -2.8690    1.0410 c3        1 1QS      0.123300
      5 C13        -4.6460    1.9330    0.8980 cc        1 1QS     -0.092000
      6 C17        -7.4190    0.9360   -1.2060 cc        1 1QS     -0.221100
      7 C24         4.4140    0.8590    0.7860 ca        1 1QS     -0.078500
      8 C26         4.0060    3.1230   -0.0320 ca        1 1QS     -0.154000
      9 C28         3.6120    1.1870   -1.4670 ca        1 1QS     -0.078500
     10 C1          0.1250   -2.0940   -0.7090 ca        1 1QS     -0.144000
     11 C2          1.4100   -1.7430   -1.1090 ca        1 1QS     -0.017500
     12 C3          2.4760   -1.7440   -0.1980 ca        1 1QS     -0.380500
     13 N8         -2.4650   -1.8030    1.0710 n         1 1QS     -0.555900
     14 C9         -3.2200   -1.4670   -0.0390 c         1 1QS      0.680700
     15 O10        -3.1920   -2.1700   -1.0720 o         1 1QS     -0.612100
     16 C11        -4.1220   -0.2890    0.0630 cd        1 1QS     -0.193600
     17 C12        -3.7940    0.8660    0.8370 cd        1 1QS     -0.109000
     18 C14        -5.8850    1.8910    0.1770 cc        1 1QS     -0.028300
     19 N15        -6.9000    2.7930    0.0710 nd        1 1QS     -0.276600
     20 C16        -7.8350    2.2130   -0.7720 cd        1 1QS      0.021600
     21 N18        -6.1770    0.7160   -0.6090 na        1 1QS      0.003700
     22 C19        -5.3030   -0.3360   -0.6580 cc        1 1QS      0.004700
     23 S20         4.0280   -1.3510   -0.6910 sy        1 1QS      1.437600
     24 O21         4.9620   -1.9250    0.1830 o         1 1QS     -0.648300
     25 O22         4.1690   -1.5980   -2.0630 o         1 1QS     -0.648300
     26 C23         4.0070    0.3300   -0.4390 ca        1 1QS     -0.301500
     27 C25         4.4110    2.2500    0.9910 ca        1 1QS      0.132400
     28 C27         3.6090    2.5780   -1.2640 ca        1 1QS      0.132400
     29 F29         3.2210    3.4040   -2.2650 f         1 1QS     -0.128400
     30 F30         4.8030    2.7550    2.1850 f         1 1QS     -0.128400
     31 H1          3.0560   -2.1540    1.8480 ha        1 1QS      0.155500
     32 H2          0.7600   -2.7720    2.5820 ha        1 1QS      0.154500
     33 H3         -1.8690   -3.6600    0.3190 h1        1 1QS      0.077200
     34 H4         -1.4630   -3.3210    2.0740 h1        1 1QS      0.077200
     35 H6         -7.8910    0.2080   -1.8630 h4        1 1QS      0.189000
     36 H7          4.7580    0.1890    1.5950 ha        1 1QS      0.173500
     37 H8          4.0040    4.2110    0.1280 ha        1 1QS      0.170000
     38 H9          3.3170    0.7790   -2.4500 ha        1 1QS      0.173500
     39 H10        -0.7080   -2.0960   -1.4330 ha        1 1QS      0.154500
     40 H11         1.6030   -1.4740   -2.1630 ha        1 1QS      0.155500
     41 H12        -2.4070   -1.1600    1.8240 hn        1 1QS      0.313500
     42 H13        -2.8330    0.9070    1.3720 ha        1 1QS      0.140000
     43 H14        -8.7600    2.7310   -1.0310 h4        1 1QS      0.186000
     44 H15        -5.5730   -1.2030   -1.2920 h4        1 1QS      0.189000
     45 H5         -4.4230    2.8390    1.4800 ha        1 1QS      0.169000
@<TRIPOS>BOND
     1    1    2 ar  
     2    1   12 ar  
     3    1   31 1   
     4    2    3 ar  
     5    2   32 1   
     6    3    4 1   
     7    3   10 ar  
     8    4   13 1   
     9    4   33 1   
    10    4   34 1   
    11    5   17 2   
    12    5   18 1   
    13    5   45 1   
    14    6   20 2   
    15    6   21 1   
    16    6   35 1   
    17    7   26 ar  
    18    7   27 ar  
    19    7   36 1   
    20    8   27 ar  
    21    8   28 ar  
    22    8   37 1   
    23    9   26 ar  
    24    9   28 ar  
    25    9   38 1   
    26   10   11 ar  
    27   10   39 1   
    28   11   12 ar  
    29   11   40 1   
    30   12   23 1   
    31   13   14 1   
    32   13   41 1   
    33   14   15 2   
    34   14   16 1   
    35   16   17 1   
    36   16   22 2   
    37   17   42 1   
    38   18   19 2   
    39   18   21 1   
    40   19   20 1   
    41   20   43 1   
    42   21   22 1   
    43   22   44 1   
    44   23   24 2   
    45   23   25 2   
    46   23   26 1   
    47   27   30 1   
    48   28   29 1   
@<TRIPOS>SUBSTRUCTURE
     1 1QS         1 TEMP              0 ****  ****    0 ROOT
