@<TRIPOS>MOLECULE
1QS
   46    49     1     0     0
SMALL
bcc


@<TRIPOS>ATOM
      1 C4         -0.1630    0.0640   -0.0070 ca        1 1QS     -0.016000
      2 C5          1.2270    0.1730   -0.0190 ca        1 1QS     -0.127000
      3 C6          1.9280    0.2250    1.1900 ca        1 1QS     -0.134300
      4 C7          3.4190    0.2770    1.1850 c3        1 1QS      0.165100
      5 C13         5.7460    5.5780    1.1960 cc        1 1QS     -0.053000
      6 C17         9.3090    4.8560    1.1820 cc        1 1QS     -0.187100
      7 C24        -3.2710    2.0930    0.0040 ca        1 1QS     -0.081000
      8 C26        -3.9170    4.1120    1.2160 ca        1 1QS     -0.143000
      9 C28        -3.2630    2.0910    2.4180 ca        1 1QS     -0.081000
     10 C1          1.2360    0.1700    2.4050 ca        1 1QS     -0.127000
     11 C2         -0.1540    0.0610    2.4020 ca        1 1QS     -0.016000
     12 C3         -0.8670    0.0150    1.2000 ca        1 1QS     -0.302500
     13 N8          3.9080    1.6940    1.1890 n4        1 1QS     -0.670800
     14 C9          5.4200    1.8100    1.1850 c         1 1QS      0.578700
     15 O10         6.0350    0.7470    1.1790 o         1 1QS     -0.453100
     16 C11         5.9630    3.1520    1.1870 cd        1 1QS     -0.284600
     17 C12         5.1650    4.3460    1.1940 cd        1 1QS     -0.132000
     18 C14         7.1780    5.6940    1.1920 cc        1 1QS     -0.015300
     19 N15         7.9970    6.7650    1.1930 nd        1 1QS     -0.225600
     20 C16         9.3000    6.2600    1.1870 cd        1 1QS      0.057600
     21 N18         7.9600    4.4610    1.1850 na        1 1QS     -0.020300
     22 C19         7.3620    3.2480    1.1830 cc        1 1QS      0.097700
     23 S20        -2.5700   -0.1880    1.2060 sy        1 1QS      1.432600
     24 O21        -2.9280   -0.7880   -0.0020 o         1 1QS     -0.627800
     25 O22        -2.9200   -0.7910    2.4150 o         1 1QS     -0.627800
     26 C23        -3.0430    1.4270    1.2100 ca        1 1QS     -0.333500
     27 C25        -3.7030    3.4320    0.0050 ca        1 1QS      0.138900
     28 C27        -3.6940    3.4290    2.4230 ca        1 1QS      0.138900
     29 F29        -3.8960    4.0650    3.5990 f         1 1QS     -0.117900
     30 F30        -3.9130    4.0700   -1.1690 f         1 1QS     -0.117900
     31 H1         -0.7160   -0.0100   -0.9630 ha        1 1QS      0.177000
     32 H2          1.7650    0.1870   -0.9800 ha        1 1QS      0.147000
     33 H3          3.8480   -0.2370    2.0950 hx        1 1QS      0.121700
     34 H4          3.8420   -0.2300    0.2680 hx        1 1QS      0.121700
     35 H7         -3.1410    1.5660   -0.9590 ha        1 1QS      0.176000
     36 H8         -4.2660    5.1570    1.2180 ha        1 1QS      0.181000
     37 H9         -3.1260    1.5620    3.3790 ha        1 1QS      0.176000
     38 H10         1.7810    0.1820    3.3610 ha        1 1QS      0.147000
     39 H11        -0.7000   -0.0140    3.3620 ha        1 1QS      0.177000
     40 H12         3.5410    2.1800    0.3620 hn        1 1QS      0.458800
     41 H13         4.0670    4.2850    1.1970 ha        1 1QS      0.130000
     42 H14        10.1620    6.9360    1.1860 h4        1 1QS      0.214000
     43 H15         8.0110    2.3460    1.1780 h4        1 1QS      0.200000
     44 H5          5.1600    6.5130    1.2010 ha        1 1QS      0.192000
     45 H82         3.5470    2.1740    2.0220 hn        1 1QS      0.458800
     46 H6         10.1290    4.1370    1.1770 h4        1 1QS      0.208000
@<TRIPOS>BOND
     1    1    2 ar  
     2    1   12 ar  
     3    1   31 1   
     4    2    3 ar  
     5    2   32 1   
     6    3    4 1   
     7    3   10 ar  
     8    4   13 1   
     9    4   33 1   
    10    4   34 1   
    11    5   17 2   
    12    5   18 1   
    13    5   44 1   
    14    6   20 2   
    15    6   21 1   
    16    6   46 1   
    17    7   26 ar  
    18    7   27 ar  
    19    7   35 1   
    20    8   27 ar  
    21    8   28 ar  
    22    8   36 1   
    23    9   26 ar  
    24    9   28 ar  
    25    9   37 1   
    26   10   11 ar  
    27   10   38 1   
    28   11   12 ar  
    29   11   39 1   
    30   12   23 1   
    31   13   14 1   
    32   13   40 1   
    33   13   45 1   
    34   14   15 2   
    35   14   16 1   
    36   16   17 1   
    37   16   22 2   
    38   17   41 1   
    39   18   19 2   
    40   18   21 1   
    41   19   20 1   
    42   20   42 1   
    43   21   22 1   
    44   22   43 1   
    45   23   24 2   
    46   23   25 2   
    47   23   26 1   
    48   27   30 1   
    49   28   29 1   
@<TRIPOS>SUBSTRUCTURE
     1 1QS         1 TEMP              0 ****  ****    0 ROOT
