@<TRIPOS>MOLECULE
1QS
   46    49     1     0     0
SMALL
bcc


@<TRIPOS>ATOM
      1 C4         -0.1600    0.0630   -0.0080 ca        1 1QS     -0.016000
      2 C5          1.2300    0.1720   -0.0190 ca        1 1QS     -0.127000
      3 C6          1.9300    0.2240    1.1900 ca        1 1QS     -0.134300
      4 C7          3.4210    0.2780    1.1860 c3        1 1QS      0.165100
      5 C13         5.7420    5.5810    1.1980 cc        1 1QS     -0.053000
      6 C17         9.3070    4.8620    1.1840 cc        1 1QS     -0.187100
      7 C24        -3.2700    2.0890    0.0020 ca        1 1QS     -0.081000
      8 C26        -3.9180    4.1070    1.2140 ca        1 1QS     -0.143000
      9 C28        -3.2630    2.0860    2.4170 ca        1 1QS     -0.081000
     10 C1          1.2370    0.1690    2.4040 ca        1 1QS     -0.127000
     11 C2         -0.1530    0.0590    2.4010 ca        1 1QS     -0.016000
     12 C3         -0.8650    0.0120    1.1990 ca        1 1QS     -0.302500
     13 N8          3.9080    1.6960    1.1900 ny        1 1QS     -0.670800
     14 C9          5.4200    1.8120    1.1860 c         1 1QS      0.578700
     15 O10         6.0370    0.7510    1.1800 o         1 1QS     -0.453100
     16 C11         5.9620    3.1560    1.1890 cd        1 1QS     -0.284600
     17 C12         5.1630    4.3480    1.1950 cd        1 1QS     -0.132000
     18 C14         7.1750    5.6990    1.1930 cc        1 1QS     -0.015300
     19 N15         7.9930    6.7700    1.1940 nd        1 1QS     -0.225600
     20 C16         9.2970    6.2660    1.1890 cd        1 1QS      0.057600
     21 N18         7.9580    4.4660    1.1870 na        1 1QS     -0.020300
     22 C19         7.3610    3.2530    1.1850 cc        1 1QS      0.097700
     23 S20        -2.5670   -0.1920    1.2040 sy        1 1QS      1.432600
     24 O21        -2.9250   -0.7920   -0.0040 o         1 1QS     -0.627800
     25 O22        -2.9170   -0.7950    2.4130 o         1 1QS     -0.627800
     26 C23        -3.0420    1.4230    1.2080 ca        1 1QS     -0.333500
     27 C25        -3.7030    3.4270    0.0040 ca        1 1QS      0.138900
     28 C27        -3.6950    3.4240    2.4220 ca        1 1QS      0.138900
     29 F29        -3.8980    4.0590    3.5980 f         1 1QS     -0.117900
     30 F30        -3.9130    4.0660   -1.1690 f         1 1QS     -0.117900
     31 H1         -0.7130   -0.0110   -0.9640 ha        1 1QS      0.177000
     32 H2          1.7680    0.1870   -0.9800 ha        1 1QS      0.147000
     33 H3          3.8500   -0.2350    2.0960 hx        1 1QS      0.121700
     34 H4          3.8450   -0.2280    0.2690 hx        1 1QS      0.121700
     35 H7         -3.1390    1.5630   -0.9610 ha        1 1QS      0.176000
     36 H8         -4.2680    5.1520    1.2170 ha        1 1QS      0.181000
     37 H9         -3.1260    1.5560    3.3770 ha        1 1QS      0.176000
     38 H10         1.7820    0.1810    3.3610 ha        1 1QS      0.147000
     39 H11        -0.6990   -0.0180    3.3610 ha        1 1QS      0.177000
     40 H12         3.5420    2.1810    0.3630 hn        1 1QS      0.458800
     41 H13         4.0650    4.2870    1.1980 ha        1 1QS      0.130000
     42 H14        10.1570    6.9430    1.1880 h4        1 1QS      0.214000
     43 H15         8.0110    2.3520    1.1790 h4        1 1QS      0.200000
     44 H5          5.1570    6.5160    1.2020 ha        1 1QS      0.192000
     45 H82         3.5470    2.1750    2.0230 hn        1 1QS      0.458800
     46 H6         10.1270    4.1440    1.1790 h4        1 1QS      0.208000
@<TRIPOS>BOND
     1    1    2 ar  
     2    1   12 ar  
     3    1   31 1   
     4    2    3 ar  
     5    2   32 1   
     6    3    4 1   
     7    3   10 ar  
     8    4   13 1   
     9    4   33 1   
    10    4   34 1   
    11    5   17 2   
    12    5   18 1   
    13    5   44 1   
    14    6   20 2   
    15    6   21 1   
    16    6   46 1   
    17    7   26 ar  
    18    7   27 ar  
    19    7   35 1   
    20    8   27 ar  
    21    8   28 ar  
    22    8   36 1   
    23    9   26 ar  
    24    9   28 ar  
    25    9   37 1   
    26   10   11 ar  
    27   10   38 1   
    28   11   12 ar  
    29   11   39 1   
    30   12   23 1   
    31   13   14 1   
    32   13   40 1   
    33   13   45 1   
    34   14   15 2   
    35   14   16 1   
    36   16   17 1   
    37   16   22 2   
    38   17   41 1   
    39   18   19 2   
    40   18   21 1   
    41   19   20 1   
    42   20   42 1   
    43   21   22 1   
    44   22   43 1   
    45   23   24 2   
    46   23   25 2   
    47   23   26 1   
    48   27   30 1   
    49   28   29 1   
@<TRIPOS>SUBSTRUCTURE
     1 1QS         1 TEMP              0 ****  ****    0 ROOT
