@<TRIPOS>MOLECULE
1QT
   83    87     1     0     0
SMALL
bcc


@<TRIPOS>ATOM
      1 C2          0.2100   -0.1980    0.0820 cy        1 1QT     -0.088400
      2 C3          1.6530   -0.6890    0.3200 cy        1 1QT     -0.085400
      3 C4          1.7160    0.0840    1.6530 cy        1 1QT     -0.088400
      4 C1          0.2710    0.6140    1.4080 cy        1 1QT      0.113800
      5 C24         0.1510    2.1180    1.2930 c3        1 1QT     -0.121400
      6 O3         -0.5750    0.1070    2.4390 os        1 1QT     -0.281900
      7 C26        -1.8830    0.5330    2.3800 ca        1 1QT      0.176100
      8 C27        -2.8190   -0.2600    3.0790 ca        1 1QT     -0.129000
      9 C28        -4.1550    0.0970    3.0600 ca        1 1QT     -0.050000
     10 C29        -4.5930    1.2250    2.3330 ca        1 1QT     -0.069300
     11 C31        -6.0450    1.5550    2.2910 c3        1 1QT     -0.047100
     12 C32        -6.5600    2.0340    3.6270 c3        1 1QT     -0.095100
     13 C30        -3.6620    2.0000    1.6530 ca        1 1QT     -0.121000
     14 C25        -2.2900    1.6850    1.6930 ca        1 1QT     -0.259300
     15 C23        -1.2920    2.5280    0.9710 c3        1 1QT      0.212800
     16 N2         -1.5040    4.0040    1.3350 ny        1 1QT     -0.779000
     17 C22        -2.0080    4.8420    0.2160 c3        1 1QT      0.067800
     18 C21        -0.9290    5.2820   -0.7930 c3        1 1QT      0.108100
     19 O2         -0.6170    4.2250   -1.6810 oh        1 1QT     -0.598800
     20 C5         -1.4860    6.4450   -1.6660 c3        1 1QT      0.138500
     21 C20        -2.8500    6.0710   -2.2840 c3        1 1QT     -0.051100
     22 C18        -3.3360    7.0940   -3.2480 ca        1 1QT     -0.163300
     23 C19        -2.9270    7.0420   -4.5890 ca        1 1QT     -0.174000
     24 C17        -4.2200    8.0940   -2.8330 ca        1 1QT     -0.113000
     25 C16        -4.6790    9.0410   -3.7500 ca        1 1QT     -0.100000
     26 C15        -4.2390    9.0130   -5.0700 ca        1 1QT     -0.093000
     27 C14        -3.3460    8.0170   -5.4970 ca        1 1QT     -0.043300
     28 C13        -2.8290    8.0220   -6.8950 c3        1 1QT     -0.053100
     29 C12        -1.8100    9.1290   -7.1090 c3        1 1QT     -0.082400
     30 C11        -0.5180    8.8820   -6.3550 c3        1 1QT     -0.066400
     31 C10         0.2090   10.1760   -6.0570 c3        1 1QT     -0.091400
     32 C9          1.4070    9.9850   -5.1500 c3        1 1QT     -0.085400
     33 C8          1.0200    9.5670   -3.7400 c3        1 1QT     -0.081400
     34 C7          1.5300    8.1690   -3.4200 c3        1 1QT     -0.158400
     35 C6          0.7430    7.5530   -2.2980 c         1 1QT      0.564100
     36 O1          0.9730    7.5610   -1.1000 o         1 1QT     -0.435100
     37 N1         -0.5110    6.8220   -2.7450 ny        1 1QT     -0.694800
     38 H1         -0.5500   -1.0090    0.1020 hc        1 1QT      0.074200
     39 H2          0.0770    0.4290   -0.8230 hc        1 1QT      0.074200
     40 H3          2.3820   -0.3390   -0.4410 hc        1 1QT      0.076200
     41 H4          1.7390   -1.7910    0.4360 hc        1 1QT      0.076200
     42 H5          1.7880   -0.5650    2.5540 hc        1 1QT      0.074200
     43 H6          2.4800    0.8870    1.6960 hc        1 1QT      0.074200
     44 H7          0.8410    2.4810    0.4880 hc        1 1QT      0.072200
     45 H8          0.4920    2.5540    2.2740 hc        1 1QT      0.072200
     46 H9         -2.4660   -1.1520    3.6230 ha        1 1QT      0.185000
     47 H10        -4.8970   -0.5130    3.6040 ha        1 1QT      0.172000
     48 H11        -6.6150    0.6360    1.9800 hc        1 1QT      0.060200
     49 H12        -6.2400    2.3400    1.5120 hc        1 1QT      0.060200
     50 H13        -6.3900    1.2620    4.4170 hc        1 1QT      0.047700
     51 H14        -7.6580    2.2330    3.5600 hc        1 1QT      0.047700
     52 H15        -6.0490    2.9750    3.9390 hc        1 1QT      0.047700
     53 H16        -4.0130    2.8560    1.0560 ha        1 1QT      0.111000
     54 H17        -1.4680    2.4460   -0.1450 hx        1 1QT      0.106700
     55 H18        -0.6260    4.3950    1.6950 hn        1 1QT      0.460800
     56 H20        -2.8040    4.2510   -0.3300 hx        1 1QT      0.124200
     57 H21        -2.4790    5.7660    0.6650 hx        1 1QT      0.124200
     58 H22        -0.0060    5.6430   -0.2510 h1        1 1QT      0.086700
     59 H23         0.0600    3.6680   -1.2690 ho        1 1QT      0.439000
     60 H24        -1.6030    7.3530   -1.0010 hx        1 1QT      0.120700
     61 H25        -3.5860    5.9760   -1.4400 hc        1 1QT      0.087700
     62 H26        -2.7650    5.0670   -2.7840 hc        1 1QT      0.087700
     63 H27        -2.3100    6.2030   -4.9480 ha        1 1QT      0.127000
     64 H28        -4.5710    8.1300   -1.7910 ha        1 1QT      0.139000
     65 H29        -5.3960    9.8140   -3.4250 ha        1 1QT      0.166000
     66 H30        -4.5960    9.7690   -5.7900 ha        1 1QT      0.167000
     67 H31        -3.6870    8.1770   -7.6050 hc        1 1QT      0.070700
     68 H32        -2.3680    7.0300   -7.1450 hc        1 1QT      0.070700
     69 H33        -1.5890    9.2090   -8.2070 hc        1 1QT      0.066200
     70 H34        -2.2620   10.1070   -6.7910 hc        1 1QT      0.066200
     71 H35        -0.7440    8.3500   -5.3890 hc        1 1QT      0.014200
     72 H36         0.1450    8.2020   -6.9520 hc        1 1QT      0.014200
     73 H37         0.5580   10.6300   -7.0230 hc        1 1QT      0.067200
     74 H38        -0.4990   10.9110   -5.5870 hc        1 1QT      0.067200
     75 H39         2.1090    9.2390   -5.6080 hc        1 1QT      0.068200
     76 H40         1.9650   10.9600   -5.0940 hc        1 1QT      0.068200
     77 H41         1.4560   10.2900   -2.9990 hc        1 1QT      0.063200
     78 H42        -0.0950    9.6120   -3.6230 hc        1 1QT      0.063200
     79 H43         1.4900    7.5180   -4.3360 hc        1 1QT      0.115200
     80 H44         2.6050    8.2240   -3.0850 hc        1 1QT      0.115200
     81 H45        -1.0050    7.4350   -3.4260 hn        1 1QT      0.482800
     82 H221       -2.2010    4.0350    2.0980 hn        1 1QT      0.460800
     83 H121       -0.2330    5.9620   -3.2390 hn        1 1QT      0.482800
@<TRIPOS>BOND
     1    1    2 1   
     2    1    4 1   
     3    1   38 1   
     4    1   39 1   
     5    2    3 1   
     6    2   40 1   
     7    2   41 1   
     8    3    4 1   
     9    3   42 1   
    10    3   43 1   
    11    4    5 1   
    12    4    6 1   
    13    5   15 1   
    14    5   44 1   
    15    5   45 1   
    16    6    7 1   
    17    7    8 ar  
    18    7   14 ar  
    19    8    9 ar  
    20    8   46 1   
    21    9   10 ar  
    22    9   47 1   
    23   10   11 1   
    24   10   13 ar  
    25   11   12 1   
    26   11   48 1   
    27   11   49 1   
    28   12   50 1   
    29   12   51 1   
    30   12   52 1   
    31   13   14 ar  
    32   13   53 1   
    33   14   15 1   
    34   15   16 1   
    35   15   54 1   
    36   16   17 1   
    37   16   55 1   
    38   16   82 1   
    39   17   18 1   
    40   17   56 1   
    41   17   57 1   
    42   18   19 1   
    43   18   20 1   
    44   18   58 1   
    45   19   59 1   
    46   20   21 1   
    47   20   37 1   
    48   20   60 1   
    49   21   22 1   
    50   21   61 1   
    51   21   62 1   
    52   22   23 ar  
    53   22   24 ar  
    54   23   27 ar  
    55   23   63 1   
    56   24   25 ar  
    57   24   64 1   
    58   25   26 ar  
    59   25   65 1   
    60   26   27 ar  
    61   26   66 1   
    62   27   28 1   
    63   28   29 1   
    64   28   67 1   
    65   28   68 1   
    66   29   30 1   
    67   29   69 1   
    68   29   70 1   
    69   30   31 1   
    70   30   71 1   
    71   30   72 1   
    72   31   32 1   
    73   31   73 1   
    74   31   74 1   
    75   32   33 1   
    76   32   75 1   
    77   32   76 1   
    78   33   34 1   
    79   33   77 1   
    80   33   78 1   
    81   34   35 1   
    82   34   79 1   
    83   34   80 1   
    84   35   36 2   
    85   35   37 1   
    86   37   81 1   
    87   37   83 1   
@<TRIPOS>SUBSTRUCTURE
     1 1QT         1 TEMP              0 ****  ****    0 ROOT
