@<TRIPOS>MOLECULE
1QT
   81    85     1     0     0
SMALL
bcc


@<TRIPOS>ATOM
      1 C2         -3.7450    2.0090    2.2570 cy        1 1QT     -0.095900
      2 C3         -3.7650    3.5490    2.3050 cy        1 1QT     -0.090400
      3 C4         -4.2640    3.6060    0.8480 cy        1 1QT     -0.095900
      4 C1         -4.2180    2.0500    0.7720 cy        1 1QT      0.135800
      5 C24        -3.2530    1.4800   -0.2350 c3        1 1QT     -0.127400
      6 O3         -5.5520    1.5760    0.6070 os        1 1QT     -0.314900
      7 C26        -5.7000    0.2780    0.1560 ca        1 1QT      0.128100
      8 C27        -7.0320   -0.1690    0.1040 ca        1 1QT     -0.162000
      9 C28        -7.3020   -1.4570   -0.3410 ca        1 1QT     -0.097000
     10 C29        -6.2630   -2.3090   -0.7310 ca        1 1QT     -0.120300
     11 C31        -6.5520   -3.6930   -1.1970 c3        1 1QT     -0.030100
     12 C32        -6.3630   -3.8420   -2.6880 c3        1 1QT     -0.090100
     13 C30        -4.9410   -1.8530   -0.6730 ca        1 1QT     -0.072000
     14 C25        -4.6420   -0.5600   -0.2390 ca        1 1QT     -0.144300
     15 C23        -3.2240   -0.0570   -0.1280 c3        1 1QT      0.237800
     16 N2         -2.3220   -0.6970   -1.0770 n3        1 1QT     -0.823200
     17 C22        -0.9970   -0.9940   -0.6010 c3        1 1QT      0.144800
     18 C21        -0.0790    0.1920   -0.2440 c3        1 1QT      0.074100
     19 O2         -0.4290    0.7750    0.9990 oh        1 1QT     -0.601800
     20 C5          1.4150   -0.2410   -0.2670 c3        1 1QT      0.082700
     21 C20         1.6830   -1.2600    0.8600 c3        1 1QT     -0.054100
     22 C18         3.0590   -1.8230    0.8030 ca        1 1QT     -0.077300
     23 C19         4.1150   -1.1680    1.4470 ca        1 1QT     -0.120000
     24 C17         3.3090   -3.0130    0.1120 ca        1 1QT     -0.125000
     25 C16         4.6000   -3.5360    0.0640 ca        1 1QT     -0.122000
     26 C15         5.6510   -2.8740    0.6960 ca        1 1QT     -0.125000
     27 C14         5.4150   -1.6810    1.3890 ca        1 1QT     -0.073300
     28 C13         6.5400   -0.9580    2.0460 c3        1 1QT     -0.037100
     29 C12         7.3450   -0.1300    1.0600 c3        1 1QT     -0.073400
     30 C11         6.5550    1.0500    0.5360 c3        1 1QT     -0.084400
     31 C10         7.2800    1.7530   -0.5910 c3        1 1QT     -0.078400
     32 C9          6.4740    2.8910   -1.1850 c3        1 1QT     -0.078400
     33 C8          5.2130    2.4280   -1.8880 c3        1 1QT     -0.074400
     34 C7          3.9840    2.5110   -1.0010 c3        1 1QT     -0.146400
     35 C6          3.0400    1.3500   -1.2620 c         1 1QT      0.663100
     36 O1          2.9280    0.8260   -2.3880 o         1 1QT     -0.612100
     37 N1          2.2940    0.8970   -0.1900 n         1 1QT     -0.570900
     38 H1         -2.7370    1.5590    2.3830 hc        1 1QT      0.062200
     39 H2         -4.4750    1.5230    2.9370 hc        1 1QT      0.062200
     40 H3         -4.4840    3.9670    3.0420 hc        1 1QT      0.051700
     41 H4         -2.7660    4.0080    2.4580 hc        1 1QT      0.051700
     42 H5         -5.2890    4.0160    0.7320 hc        1 1QT      0.062200
     43 H6         -3.5690    4.0980    0.1370 hc        1 1QT      0.062200
     44 H7         -3.5670    1.7910   -1.2650 hc        1 1QT      0.068700
     45 H8         -2.2280    1.8910   -0.0350 hc        1 1QT      0.068700
     46 H9         -7.8400    0.5070    0.4150 ha        1 1QT      0.146000
     47 H10        -8.3450   -1.8080   -0.3840 ha        1 1QT      0.132000
     48 H11        -5.8720   -4.4100   -0.6630 hc        1 1QT      0.042700
     49 H12        -7.6050   -3.9740   -0.9260 hc        1 1QT      0.042700
     50 H13        -6.5610   -4.8960   -2.9970 hc        1 1QT      0.035367
     51 H14        -7.0630   -3.1720   -3.2440 hc        1 1QT      0.035367
     52 H15        -5.3180   -3.5750   -2.9790 hc        1 1QT      0.035367
     53 H16        -4.1300   -2.5320   -0.9810 ha        1 1QT      0.147000
     54 H17        -2.8690   -0.3120    0.9200 h1        1 1QT      0.060700
     55 H18        -2.3000   -0.1920   -1.9420 hn        1 1QT      0.373800
     56 H20        -1.0990   -1.6530    0.3090 h1        1 1QT      0.059200
     57 H21        -0.4920   -1.5930   -1.4120 h1        1 1QT      0.059200
     58 H22        -0.2250    1.0340   -0.9830 h1        1 1QT      0.086700
     59 H23        -0.4570    0.0680    1.6570 ho        1 1QT      0.398000
     60 H24         1.6010   -0.7530   -1.2610 h1        1 1QT      0.099700
     61 H25         1.5180   -0.7730    1.8590 hc        1 1QT      0.051700
     62 H26         0.9330   -2.0890    0.7580 hc        1 1QT      0.051700
     63 H27         3.9230   -0.2350    1.9980 ha        1 1QT      0.126000
     64 H28         2.4860   -3.5350   -0.3970 ha        1 1QT      0.131000
     65 H29         4.7910   -4.4730   -0.4790 ha        1 1QT      0.133000
     66 H30         6.6700   -3.2850    0.6500 ha        1 1QT      0.132000
     67 H31         6.1440   -0.2900    2.8560 hc        1 1QT      0.047200
     68 H32         7.2240   -1.7050    2.5330 hc        1 1QT      0.047200
     69 H33         8.2760    0.2380    1.5670 hc        1 1QT      0.043200
     70 H34         7.6640   -0.7810    0.2040 hc        1 1QT      0.043200
     71 H35         5.5560    0.6860    0.1680 hc        1 1QT      0.042700
     72 H36         6.3590    1.7740    1.3700 hc        1 1QT      0.042700
     73 H37         8.2540    2.1580   -0.2080 hc        1 1QT      0.041700
     74 H38         7.5240    1.0100   -1.3970 hc        1 1QT      0.041700
     75 H39         6.2220    3.6320   -0.3820 hc        1 1QT      0.039700
     76 H40         7.1240    3.4240   -1.9300 hc        1 1QT      0.039700
     77 H41         5.0400    3.0610   -2.7990 hc        1 1QT      0.059700
     78 H42         5.3470    1.3750   -2.2550 hc        1 1QT      0.059700
     79 H43         4.2910    2.5380    0.0790 hc        1 1QT      0.061700
     80 H44         3.4180    3.4570   -1.2120 hc        1 1QT      0.061700
     81 H45         2.3360    1.3730    0.6780 hn        1 1QT      0.312500
@<TRIPOS>BOND
     1    1    2 1   
     2    1    4 1   
     3    1   38 1   
     4    1   39 1   
     5    2    3 1   
     6    2   40 1   
     7    2   41 1   
     8    3    4 1   
     9    3   42 1   
    10    3   43 1   
    11    4    5 1   
    12    4    6 1   
    13    5   15 1   
    14    5   44 1   
    15    5   45 1   
    16    6    7 1   
    17    7    8 ar  
    18    7   14 ar  
    19    8    9 ar  
    20    8   46 1   
    21    9   10 ar  
    22    9   47 1   
    23   10   11 1   
    24   10   13 ar  
    25   11   12 1   
    26   11   48 1   
    27   11   49 1   
    28   12   50 1   
    29   12   51 1   
    30   12   52 1   
    31   13   14 ar  
    32   13   53 1   
    33   14   15 1   
    34   15   16 1   
    35   15   54 1   
    36   16   17 1   
    37   16   55 1   
    38   17   18 1   
    39   17   56 1   
    40   17   57 1   
    41   18   19 1   
    42   18   20 1   
    43   18   58 1   
    44   19   59 1   
    45   20   21 1   
    46   20   37 1   
    47   20   60 1   
    48   21   22 1   
    49   21   61 1   
    50   21   62 1   
    51   22   23 ar  
    52   22   24 ar  
    53   23   27 ar  
    54   23   63 1   
    55   24   25 ar  
    56   24   64 1   
    57   25   26 ar  
    58   25   65 1   
    59   26   27 ar  
    60   26   66 1   
    61   27   28 1   
    62   28   29 1   
    63   28   67 1   
    64   28   68 1   
    65   29   30 1   
    66   29   69 1   
    67   29   70 1   
    68   30   31 1   
    69   30   71 1   
    70   30   72 1   
    71   31   32 1   
    72   31   73 1   
    73   31   74 1   
    74   32   33 1   
    75   32   75 1   
    76   32   76 1   
    77   33   34 1   
    78   33   77 1   
    79   33   78 1   
    80   34   35 1   
    81   34   79 1   
    82   34   80 1   
    83   35   36 2   
    84   35   37 1   
    85   37   81 1   
@<TRIPOS>SUBSTRUCTURE
     1 1QT         1 TEMP              0 ****  ****    0 ROOT
