@<TRIPOS>MOLECULE
1QT
   83    87     1     0     0
SMALL
bcc


@<TRIPOS>ATOM
      1 C2          0.1300   -0.2350    0.0500 cy        1 1QT     -0.088400
      2 C3          1.5660   -0.7510    0.2780 cy        1 1QT     -0.085400
      3 C4          1.6480    0.0150    1.6140 cy        1 1QT     -0.088400
      4 C1          0.2110    0.5700    1.3790 cy        1 1QT      0.113800
      5 C24         0.1160    2.0770    1.2700 c3        1 1QT     -0.121400
      6 O3         -0.6380    0.0720    2.4120 os        1 1QT     -0.281900
      7 C26        -1.9390    0.5200    2.3610 ca        1 1QT      0.176100
      8 C27        -2.8840   -0.2590    3.0620 ca        1 1QT     -0.129000
      9 C28        -4.2150    0.1200    3.0500 ca        1 1QT     -0.050000
     10 C29        -4.6380    1.2580    2.3300 ca        1 1QT     -0.069300
     11 C31        -6.0840    1.6120    2.2960 c3        1 1QT     -0.047100
     12 C32        -6.5850    2.0930    3.6370 c3        1 1QT     -0.095100
     13 C30        -3.6970    2.0200    1.6490 ca        1 1QT     -0.121000
     14 C25        -2.3300    1.6820    1.6810 ca        1 1QT     -0.259300
     15 C23        -1.3220    2.5120    0.9570 c3        1 1QT      0.212800
     16 N2         -1.5080    3.9900    1.3270 n4        1 1QT     -0.779000
     17 C22        -2.0030    4.8400    0.2150 c3        1 1QT      0.067800
     18 C21        -0.9220    5.2660   -0.7980 c3        1 1QT      0.108100
     19 O2         -0.6320    4.2080   -1.6920 oh        1 1QT     -0.598800
     20 C5         -1.4640    6.4420   -1.6630 c3        1 1QT      0.138500
     21 C20        -2.8360    6.0930   -2.2760 c3        1 1QT     -0.051100
     22 C18        -3.3100    7.1280   -3.2330 ca        1 1QT     -0.163300
     23 C19        -2.9090    7.0760   -4.5770 ca        1 1QT     -0.174000
     24 C17        -4.1750    8.1410   -2.8090 ca        1 1QT     -0.113000
     25 C16        -4.6230    9.1010   -3.7200 ca        1 1QT     -0.100000
     26 C15        -4.1890    9.0700   -5.0430 ca        1 1QT     -0.093000
     27 C14        -3.3160    8.0620   -5.4790 ca        1 1QT     -0.043300
     28 C13        -2.8060    8.0640   -6.8790 c3        1 1QT     -0.053100
     29 C12        -1.7690    9.1550   -7.0930 c3        1 1QT     -0.082400
     30 C11        -0.4780    8.8830   -6.3470 c3        1 1QT     -0.066400
     31 C10         0.2720   10.1630   -6.0460 c3        1 1QT     -0.091400
     32 C9          1.4720    9.9480   -5.1470 c3        1 1QT     -0.085400
     33 C8          1.0850    9.5310   -3.7370 c3        1 1QT     -0.081400
     34 C7          1.5720    8.1230   -3.4250 c3        1 1QT     -0.158400
     35 C6          0.7800    7.5150   -2.3020 c         1 1QT      0.564100
     36 O1          1.0160    7.5150   -1.1050 o         1 1QT     -0.435100
     37 N1         -0.4880    6.8070   -2.7460 n4        1 1QT     -0.694800
     38 H1         -0.6430   -1.0340    0.0700 hc        1 1QT      0.074200
     39 H2          0.0030    0.3970   -0.8530 hc        1 1QT      0.074200
     40 H3          1.6340   -1.8550    0.3890 hc        1 1QT      0.076200
     41 H4          2.2970   -0.4100   -0.4850 hc        1 1QT      0.076200
     42 H5          1.7140   -0.6380    2.5120 hc        1 1QT      0.074200
     43 H6          2.4260    0.8050    1.6570 hc        1 1QT      0.074200
     44 H7          0.4680    2.5020    2.2510 hc        1 1QT      0.072200
     45 H8          0.8070    2.4310    0.4630 hc        1 1QT      0.072200
     46 H9         -2.5440   -1.1590    3.6000 ha        1 1QT      0.185000
     47 H10        -4.9640   -0.4810    3.5950 ha        1 1QT      0.172000
     48 H11        -6.6710    0.7030    1.9850 hc        1 1QT      0.060200
     49 H12        -6.2700    2.4030    1.5210 hc        1 1QT      0.060200
     50 H13        -6.4240    1.3150    4.4230 hc        1 1QT      0.047700
     51 H14        -6.0560    3.0250    3.9500 hc        1 1QT      0.047700
     52 H15        -7.6790    2.3110    3.5760 hc        1 1QT      0.047700
     53 H16        -4.0370    2.8840    1.0570 ha        1 1QT      0.111000
     54 H17        -1.5050    2.4370   -0.1590 hx        1 1QT      0.106700
     55 H18        -0.6230    4.3640    1.6850 hn        1 1QT      0.460800
     56 H20        -2.8120    4.2650   -0.3290 hx        1 1QT      0.124200
     57 H21        -2.4560    5.7690    0.6700 hx        1 1QT      0.124200
     58 H22         0.0100    5.6090   -0.2590 h1        1 1QT      0.086700
     59 H23         0.0370    3.6380   -1.2860 ho        1 1QT      0.439000
     60 H24        -1.5630    7.3490   -0.9940 hx        1 1QT      0.120700
     61 H25        -2.7710    5.0910   -2.7810 hc        1 1QT      0.087700
     62 H26        -3.5700    6.0080   -1.4290 hc        1 1QT      0.087700
     63 H27        -2.3080    6.2280   -4.9420 ha        1 1QT      0.127000
     64 H28        -4.5210    8.1790   -1.7650 ha        1 1QT      0.139000
     65 H29        -5.3250    9.8840   -3.3880 ha        1 1QT      0.166000
     66 H30        -4.5370    9.8360   -5.7570 ha        1 1QT      0.167000
     67 H31        -2.3630    7.0660   -7.1350 hc        1 1QT      0.070700
     68 H32        -3.6650    8.2370   -7.5840 hc        1 1QT      0.070700
     69 H33        -2.2030   10.1380   -6.7690 hc        1 1QT      0.066200
     70 H34        -1.5520    9.2360   -8.1920 hc        1 1QT      0.066200
     71 H35         0.1700    8.1940   -6.9490 hc        1 1QT      0.014200
     72 H36        -0.7080    8.3500   -5.3820 hc        1 1QT      0.014200
     73 H37         0.6240   10.6150   -7.0130 hc        1 1QT      0.067200
     74 H38        -0.4200   10.9070   -5.5700 hc        1 1QT      0.067200
     75 H39         2.0470   10.9120   -5.0900 hc        1 1QT      0.068200
     76 H40         2.1590    9.1920   -5.6120 hc        1 1QT      0.068200
     77 H41        -0.0290    9.5940   -3.6140 hc        1 1QT      0.063200
     78 H42         1.5360   10.2430   -2.9940 hc        1 1QT      0.063200
     79 H43         1.5170    7.4760   -4.3430 hc        1 1QT      0.115200
     80 H44         2.6500    8.1580   -3.0940 hc        1 1QT      0.115200
     81 H45        -0.2270    5.9450   -3.2440 hn        1 1QT      0.482800
     82 H221       -2.2010    4.0280    2.0940 hn        1 1QT      0.460800
     83 H121       -0.9750    7.4310   -3.4210 hn        1 1QT      0.482800
@<TRIPOS>BOND
     1    1    2 1   
     2    1    4 1   
     3    1   38 1   
     4    1   39 1   
     5    2    3 1   
     6    2   40 1   
     7    2   41 1   
     8    3    4 1   
     9    3   42 1   
    10    3   43 1   
    11    4    5 1   
    12    4    6 1   
    13    5   15 1   
    14    5   44 1   
    15    5   45 1   
    16    6    7 1   
    17    7    8 ar  
    18    7   14 ar  
    19    8    9 ar  
    20    8   46 1   
    21    9   10 ar  
    22    9   47 1   
    23   10   11 1   
    24   10   13 ar  
    25   11   12 1   
    26   11   48 1   
    27   11   49 1   
    28   12   50 1   
    29   12   51 1   
    30   12   52 1   
    31   13   14 ar  
    32   13   53 1   
    33   14   15 1   
    34   15   16 1   
    35   15   54 1   
    36   16   17 1   
    37   16   55 1   
    38   16   82 1   
    39   17   18 1   
    40   17   56 1   
    41   17   57 1   
    42   18   19 1   
    43   18   20 1   
    44   18   58 1   
    45   19   59 1   
    46   20   21 1   
    47   20   37 1   
    48   20   60 1   
    49   21   22 1   
    50   21   61 1   
    51   21   62 1   
    52   22   23 ar  
    53   22   24 ar  
    54   23   27 ar  
    55   23   63 1   
    56   24   25 ar  
    57   24   64 1   
    58   25   26 ar  
    59   25   65 1   
    60   26   27 ar  
    61   26   66 1   
    62   27   28 1   
    63   28   29 1   
    64   28   67 1   
    65   28   68 1   
    66   29   30 1   
    67   29   69 1   
    68   29   70 1   
    69   30   31 1   
    70   30   71 1   
    71   30   72 1   
    72   31   32 1   
    73   31   73 1   
    74   31   74 1   
    75   32   33 1   
    76   32   75 1   
    77   32   76 1   
    78   33   34 1   
    79   33   77 1   
    80   33   78 1   
    81   34   35 1   
    82   34   79 1   
    83   34   80 1   
    84   35   36 2   
    85   35   37 1   
    86   37   81 1   
    87   37   83 1   
@<TRIPOS>SUBSTRUCTURE
     1 1QT         1 TEMP              0 ****  ****    0 ROOT
