@<TRIPOS>MOLECULE
1QT
   81    76     1     0     0
SMALL
bcc


@<TRIPOS>ATOM
      1 C2          1.5690   -6.3070    1.7270 cy        1 1QT     -0.174500
      2 C3          2.8640   -6.9910    2.1310 cy        1 1QT     -0.170000
      3 C4          3.2850   -5.7760    2.8720 cy        1 1QT     -0.174500
      4 C1          1.9900   -5.0610    2.4520 cy        1 1QT      0.062000
      5 C24         2.1400   -3.9220    1.5500 c3        1 1QT     -0.209000
      6 O3          1.5470   -4.8170    3.7110 os        1 1QT     -0.196000
      7 C26         0.4640   -3.7280    3.8800 c1        1 1QT      0.084000
      8 C27        -0.2770   -3.5950    5.0420 c1        1 1QT     -0.159000
      9 C28        -1.3370   -2.6730    5.0980 c1        1 1QT     -0.096000
     10 C29        -1.6550   -1.8650    3.9480 c1        1 1QT     -0.111000
     11 C31        -2.8160   -0.8910    4.0070 c2        1 1QT     -0.117000
     12 C32        -2.7270   -0.0380    5.3280 c3        1 1QT     -0.209000
     13 C30        -0.9020   -1.9950    2.7550 c2        1 1QT     -0.074000
     14 C25         0.1350   -2.8940    2.6910 c1        1 1QT     -0.138000
     15 C23         1.0260   -3.0800    1.4100 c2        1 1QT      0.033000
     16 N2          1.5120   -1.7450    0.9900 n3        1 1QT     -0.308000
     17 C22         1.0540   -1.4690   -0.3940 c3        1 1QT     -0.070000
     18 C21         1.9950   -0.4410   -1.0450 c3        1 1QT      0.019000
     19 O2          2.8110   -1.0780   -1.9670 oh        1 1QT     -0.331000
     20 C5          1.1770    0.6280   -1.7470 c3        1 1QT      0.002000
     21 C20         1.0180    0.2590   -3.2390 c3        1 1QT     -0.137000
     22 C18        -0.4050    0.6900   -3.7440 c1        1 1QT     -0.077000
     23 C19        -0.7380    2.0590   -3.8260 c1        1 1QT     -0.139000
     24 C17        -1.3070   -0.2800   -4.2060 c1        1 1QT     -0.125000
     25 C16        -2.5370    0.1100   -4.7470 c1        1 1QT     -0.126000
     26 C15        -2.8670    1.4740   -4.8280 c1        1 1QT     -0.126000
     27 C14        -1.9600    2.4470   -4.3640 c1        1 1QT     -0.066000
     28 C13        -2.2740    3.9890   -4.5800 c2        1 1QT     -0.125000
     29 C12        -2.6350    4.6350   -3.2030 c3        1 1QT     -0.153000
     30 C11        -1.4550    5.4550   -2.6870 c3        1 1QT     -0.161000
     31 C10        -1.6600    5.7610   -1.1340 c3        1 1QT     -0.157000
     32 C9         -0.2450    5.8800   -0.4190 c3        1 1QT     -0.158000
     33 C8          0.1740    4.4860    0.1680 c3        1 1QT     -0.162000
     34 C7          1.4940    4.0250   -0.4510 c3        1 1QT     -0.182000
     35 C6          1.6250    2.4370   -0.3200 c1        1 1QT      0.292000
     36 O1          0.9670    1.8510    0.4700 o         1 1QT     -0.369000
     37 N1          1.8440    1.8780   -1.6360 n2        1 1QT     -0.380000
     38 H1          1.4980   -6.1760    0.7660 hc        1 1QT      0.102000
     39 H2          0.7620   -6.7350    2.1330 hc        1 1QT      0.102000
     40 H3          2.7210   -7.7540    2.7170 hc        1 1QT      0.092000
     41 H4          3.4290   -7.1820    1.3830 hc        1 1QT      0.092000
     42 H5          3.3410   -5.9300    3.8720 hc        1 1QT      0.102000
     43 H6          4.0930   -5.3570    2.4910 hc        1 1QT      0.102000
     44 H7          2.8810   -3.3870    1.8660 hc        1 1QT      0.101000
     45 H8          2.3780   -4.2800    0.6340 hc        1 1QT      0.101000
     46 H9         -0.0610   -4.1490    5.8330 ha        1 1QT      0.147000
     47 H10        -1.8830   -2.5780    5.9430 ha        1 1QT      0.132000
     48 H11        -2.7800   -0.2840    3.2180 ha        1 1QT      0.082000
     49 H12        -3.6470   -1.3820    3.9990 ha        1 1QT      0.082000
     50 H13        -3.0430   -0.5790    6.0940 hc        1 1QT      0.075333
     51 H14        -3.2920    0.7630    5.2390 hc        1 1QT      0.075333
     52 H15        -1.8250    0.2240    5.4750 hc        1 1QT      0.075333
     53 H16        -1.1300   -1.4280    1.9530 ha        1 1QT      0.145000
     54 H17         0.4660   -3.4360    0.7020 h4        1 1QT      0.105000
     55 H18         2.4100   -1.7310    1.0160 hn        1 1QT      0.170000
     56 H20         1.0640   -2.3070   -0.9180 h1        1 1QT      0.083000
     57 H21         0.1450   -1.1110   -0.3720 h1        1 1QT      0.083000
     58 H22         2.5530   -0.0230   -0.3490 h1        1 1QT      0.100000
     59 H23         3.6500   -0.8230   -1.8450 ho        1 1QT      0.209000
     60 H24         0.2650    0.6930   -1.3180 h1        1 1QT      0.119000
     61 H25         1.1200   -0.6860   -3.3460 hc        1 1QT      0.110000
     62 H26         1.7080    0.7260   -3.7680 hc        1 1QT      0.110000
     63 H27        -0.1220    2.7210   -3.5100 ha        1 1QT      0.129000
     64 H28        -1.0700   -1.2550   -4.1480 ha        1 1QT      0.139000
     65 H29        -3.1870   -0.5890   -5.0800 ha        1 1QT      0.132500
     66 H30        -3.7670    1.7620   -5.2240 ha        1 1QT      0.132500
     67 H31        -3.0270    4.0860   -5.1920 ha        1 1QT      0.089000
     68 H32        -1.4700    4.4440   -4.9630 ha        1 1QT      0.089000
     69 H33        -3.4150    5.2190   -3.3120 hc        1 1QT      0.083500
     70 H34        -2.8410    3.9380   -2.5670 hc        1 1QT      0.083500
     71 H35        -0.6180    4.9450   -2.8140 hc        1 1QT      0.079000
     72 H36        -1.4040    6.2960   -3.1810 hc        1 1QT      0.079000
     73 H37        -2.1670    6.6370   -1.0260 hc        1 1QT      0.083000
     74 H38        -2.1560    5.0590   -0.7370 hc        1 1QT      0.083000
     75 H39         0.4070    6.1700   -1.0510 hc        1 1QT      0.081000
     76 H40        -0.3050    6.5250    0.3010 hc        1 1QT      0.081000
     77 H41        -0.5330    3.8210   -0.0300 hc        1 1QT      0.091500
     78 H42         0.2820    4.5650    1.1290 hc        1 1QT      0.091500
     79 H43         2.2520    4.4600    0.0230 hc        1 1QT      0.110000
     80 H44         1.5150    4.2700   -1.3760 hc        1 1QT      0.110000
     81 H45         1.9030    2.4210   -2.3510 hn        1 1QT      0.224000
@<TRIPOS>BOND
     1    1    2 1   
     2    1    4 1   
     3    1   38 1   
     4    1   39 1   
     5    2    3 1   
     6    2   40 1   
     7    2   41 1   
     8    3    4 1   
     9    3   42 1   
    10    3   43 1   
    11    4    5 1   
    12    4    6 1   
    13    5   15 1   
    14    5   44 1   
    15    5   45 1   
    16    6    7 1   
    17    7    8 1   
    18    8   46 1   
    19    9   10 1   
    20    9   47 1   
    21   10   13 1   
    22   11   12 1   
    23   11   48 1   
    24   11   49 1   
    25   12   50 1   
    26   12   51 1   
    27   12   52 1   
    28   13   14 1   
    29   13   53 1   
    30   15   16 1   
    31   15   54 1   
    32   16   17 1   
    33   16   55 1   
    34   17   18 1   
    35   17   56 1   
    36   17   57 1   
    37   18   19 1   
    38   18   20 1   
    39   18   58 1   
    40   19   59 1   
    41   20   21 1   
    42   20   37 1   
    43   20   60 1   
    44   21   22 1   
    45   21   61 1   
    46   21   62 1   
    47   22   24 1   
    48   23   27 1   
    49   23   63 1   
    50   24   64 1   
    51   25   26 1   
    52   25   65 1   
    53   26   66 1   
    54   28   29 1   
    55   28   67 1   
    56   28   68 1   
    57   29   30 1   
    58   29   69 1   
    59   29   70 1   
    60   30   31 1   
    61   30   71 1   
    62   30   72 1   
    63   31   32 1   
    64   31   73 1   
    65   31   74 1   
    66   32   33 1   
    67   32   75 1   
    68   32   76 1   
    69   33   34 1   
    70   33   77 1   
    71   33   78 1   
    72   34   35 1   
    73   34   79 1   
    74   34   80 1   
    75   35   36 1   
    76   37   81 1   
@<TRIPOS>SUBSTRUCTURE
     1 1QT         1 TEMP              0 ****  ****    0 ROOT
