@<TRIPOS>MOLECULE
1QU
   81    85     1     0     0
SMALL
bcc


@<TRIPOS>ATOM
      1 O1         -2.7850    3.3030   -2.2610 o         1 1QU     -0.628500
      2 C1         -3.6420    3.9760   -1.6680 c         1 1QU      0.701500
      3 C2         -3.9760    5.4330   -1.9680 c3        1 1QU     -0.155400
      4 C3         -5.0270    5.8380   -0.9410 c3        1 1QU     -0.097400
      5 C4         -5.3500    4.5590   -0.1400 c3        1 1QU      0.089000
      6 N1         -4.4490    3.5180   -0.6190 n         1 1QU     -0.385000
      7 C33        -4.3640    2.2520   -0.0260 cc        1 1QU     -0.044600
      8 C13        -3.2050    1.5090   -0.0580 cd        1 1QU     -0.069000
      9 C5         -5.5800    1.7020    0.6360 c         1 1QU      0.687700
     10 O4         -6.6680    2.3060    0.7260 o         1 1QU     -0.648500
     11 N2         -5.4660    0.4140    1.2100 n         1 1QU     -0.324000
     12 C6         -6.6220   -0.1990    1.8670 c3        1 1QU      0.082700
     13 C7         -6.3570   -0.5820    3.3400 c3        1 1QU     -0.094900
     14 C8         -6.2090   -2.0940    3.4020 c3        1 1QU     -0.086900
     15 C9         -6.6610   -2.6630    2.0650 c3        1 1QU     -0.086900
     16 C10        -7.0980   -1.5010    1.1870 c3        1 1QU     -0.094900
     17 C11        -4.2950   -0.2970    1.1290 cc        1 1QU      0.058600
     18 C12        -3.1690    0.2020    0.5090 cd        1 1QU     -0.243200
     19 C26        -1.9640   -0.6650    0.4830 c         1 1QU      0.697300
     20 O2         -1.8200   -1.5830    1.3230 o         1 1QU     -0.634100
     21 N3         -1.0280   -0.4520   -0.5050 n         1 1QU     -0.556900
     22 C27         0.1710   -1.2470   -0.6200 c3        1 1QU      0.082700
     23 C31         0.3880   -1.7480   -2.0620 c3        1 1QU     -0.055100
     24 C20        -0.6640   -2.7050   -2.4950 ca        1 1QU     -0.080300
     25 C21        -1.5910   -2.3430   -3.4790 ca        1 1QU     -0.121500
     26 C22        -2.5630   -3.2510   -3.8980 ca        1 1QU     -0.127000
     27 C23        -2.6170   -4.5270   -3.3380 ca        1 1QU     -0.130000
     28 C24        -1.6960   -4.8930   -2.3570 ca        1 1QU     -0.127000
     29 C25        -0.7240   -3.9880   -1.9370 ca        1 1QU     -0.121500
     30 C28         1.4190   -0.4610   -0.1250 c3        1 1QU      0.108100
     31 O3          1.8140    0.5480   -1.0330 oh        1 1QU     -0.593800
     32 C29         2.5780   -1.4300    0.1740 c3        1 1QU      0.135800
     33 N4          3.6860   -0.7690    0.8310 n3        1 1QU     -0.826200
     34 C30         4.8980   -1.5650    0.8370 c3        1 1QU      0.210100
     35 C14         6.0870   -0.8290    1.3820 ca        1 1QU     -0.095300
     36 C15         7.2990   -0.8630    0.6880 ca        1 1QU     -0.079000
     37 C19         6.0030   -0.1370    2.5960 ca        1 1QU     -0.078000
     38 C18         7.1230    0.5150    3.1120 ca        1 1QU     -0.138000
     39 C17         8.3360    0.4800    2.4240 ca        1 1QU     -0.080000
     40 C16         8.4170   -0.2110    1.2130 ca        1 1QU     -0.171300
     41 C32         9.7320   -0.2400    0.4460 c3        1 1QU      0.687200
     42 F2          9.8780    0.7830   -0.4610 f         1 1QU     -0.238300
     43 F3         10.8560   -0.1510    1.2310 f         1 1QU     -0.238300
     44 F1          9.9350   -1.3750   -0.3010 f         1 1QU     -0.238300
     45 H1         -3.0450    6.0450   -1.8850 hc        1 1QU      0.083200
     46 H2         -4.3590    5.5100   -3.0150 hc        1 1QU      0.083200
     47 H3         -4.6380    6.6330   -0.2610 hc        1 1QU      0.058700
     48 H4         -5.9490    6.2260   -1.4360 hc        1 1QU      0.058700
     49 H5         -5.1990    4.7170    0.9610 h1        1 1QU      0.070200
     50 H6         -6.4180    4.2470   -0.3080 h1        1 1QU      0.070200
     51 H7         -2.2960    1.9240   -0.5280 ha        1 1QU      0.170000
     52 H8         -7.4550    0.5650    1.8280 h1        1 1QU      0.106700
     53 H9         -5.4540   -0.0730    3.7570 hc        1 1QU      0.058950
     54 H10        -7.2370   -0.2510    3.9480 hc        1 1QU      0.058950
     55 H11        -5.1430   -2.3740    3.6030 hc        1 1QU      0.049450
     56 H12        -6.8220   -2.5120    4.2390 hc        1 1QU      0.049450
     57 H13        -5.8230   -3.2260    1.5800 hc        1 1QU      0.049450
     58 H14        -7.5050   -3.3850    2.2060 hc        1 1QU      0.049450
     59 H15        -8.2150   -1.4660    1.1140 hc        1 1QU      0.058950
     60 H16        -6.7000   -1.6100    0.1490 hc        1 1QU      0.058950
     61 H17        -4.2950   -1.3060    1.5970 h4        1 1QU      0.189000
     62 H18        -1.1450    0.2870   -1.1560 hn        1 1QU      0.326500
     63 H19         0.0540   -2.1500    0.0560 h1        1 1QU      0.098700
     64 H20         0.4250   -0.8740   -2.7680 hc        1 1QU      0.053700
     65 H21         1.3860   -2.2600   -2.1050 hc        1 1QU      0.053700
     66 H22        -1.5560   -1.3360   -3.9230 ha        1 1QU      0.132000
     67 H23        -3.2880   -2.9570   -4.6710 ha        1 1QU      0.132000
     68 H24        -3.3840   -5.2420   -3.6700 ha        1 1QU      0.131000
     69 H25        -1.7380   -5.8980   -1.9110 ha        1 1QU      0.132000
     70 H26        -0.0020   -4.2790   -1.1590 ha        1 1QU      0.132000
     71 H27         1.1540    0.1120    0.8120 h1        1 1QU      0.103700
     72 H28         2.1120    0.1170   -1.8440 ho        1 1QU      0.396000
     73 H29         2.2050   -2.2370    0.8660 h1        1 1QU      0.037200
     74 H30         2.8950   -1.9270   -0.7910 h1        1 1QU      0.037200
     75 H31         3.8470    0.1370    0.4290 hn        1 1QU      0.375800
     76 H33         4.7050   -2.4630    1.4960 h1        1 1QU      0.040700
     77 H34         5.1530   -1.9610   -0.1930 h1        1 1QU      0.040700
     78 H35         7.3830   -1.4060   -0.2680 ha        1 1QU      0.149000
     79 H36         5.0470   -0.1080    3.1440 ha        1 1QU      0.157000
     80 H37         7.0530    1.0580    4.0660 ha        1 1QU      0.144000
     81 H38         9.2250    0.9870    2.8290 ha        1 1QU      0.151000
@<TRIPOS>BOND
     1    1    2 2   
     2    2    3 1   
     3    2    6 1   
     4    3    4 1   
     5    3   45 1   
     6    3   46 1   
     7    4    5 1   
     8    4   47 1   
     9    4   48 1   
    10    5    6 1   
    11    5   49 1   
    12    5   50 1   
    13    6    7 1   
    14    7    8 2   
    15    7    9 1   
    16    8   18 1   
    17    8   51 1   
    18    9   10 2   
    19    9   11 1   
    20   11   12 1   
    21   11   17 1   
    22   12   13 1   
    23   12   16 1   
    24   12   52 1   
    25   13   14 1   
    26   13   53 1   
    27   13   54 1   
    28   14   15 1   
    29   14   55 1   
    30   14   56 1   
    31   15   16 1   
    32   15   57 1   
    33   15   58 1   
    34   16   59 1   
    35   16   60 1   
    36   17   18 2   
    37   17   61 1   
    38   18   19 1   
    39   19   20 2   
    40   19   21 1   
    41   21   22 1   
    42   21   62 1   
    43   22   23 1   
    44   22   30 1   
    45   22   63 1   
    46   23   24 1   
    47   23   64 1   
    48   23   65 1   
    49   24   25 ar  
    50   24   29 ar  
    51   25   26 ar  
    52   25   66 1   
    53   26   27 ar  
    54   26   67 1   
    55   27   28 ar  
    56   27   68 1   
    57   28   29 ar  
    58   28   69 1   
    59   29   70 1   
    60   30   31 1   
    61   30   32 1   
    62   30   71 1   
    63   31   72 1   
    64   32   33 1   
    65   32   73 1   
    66   32   74 1   
    67   33   34 1   
    68   33   75 1   
    69   34   35 1   
    70   34   76 1   
    71   34   77 1   
    72   35   36 ar  
    73   35   37 ar  
    74   36   40 ar  
    75   36   78 1   
    76   37   38 ar  
    77   37   79 1   
    78   38   39 ar  
    79   38   80 1   
    80   39   40 ar  
    81   39   81 1   
    82   40   41 1   
    83   41   42 1   
    84   41   43 1   
    85   41   44 1   
@<TRIPOS>SUBSTRUCTURE
     1 1QU         1 TEMP              0 ****  ****    0 ROOT
