@<TRIPOS>MOLECULE
1QU
   83    87     1     0     0
SMALL
bcc


@<TRIPOS>ATOM
      1 O1         -2.7100    1.1230   -0.8830 o         1 1QU     -0.803500
      2 C1         -1.6200    1.2630   -0.2710 c         1 1QU      0.743500
      3 C2         -1.4640    1.6220    1.1970 c3        1 1QU     -0.153400
      4 C3          0.0410    1.6670    1.4500 c3        1 1QU     -0.097400
      5 C4          0.7130    1.3260    0.1040 c3        1 1QU      0.074000
      6 N1         -0.3720    1.0930   -0.8560 n         1 1QU     -0.365000
      7 C33        -0.1540    0.7800   -2.2050 cc        1 1QU     -0.031600
      8 C13        -0.9040   -0.1660   -2.8550 cd        1 1QU     -0.079000
      9 C5          0.9160    1.5200   -2.9400 c         1 1QU      0.684700
     10 O4          1.6270    2.3990   -2.4410 o         1 1QU     -0.538500
     11 N2          1.1060    1.1610   -4.3160 n         1 1QU     -0.291000
     12 C6          2.2130    1.7790   -5.0780 c3        1 1QU      0.062700
     13 C7          1.7300    2.5990   -6.2930 c3        1 1QU     -0.099900
     14 C8          1.9920    1.7640   -7.5370 c3        1 1QU     -0.093400
     15 C9          2.8990    0.6080   -7.1400 c3        1 1QU     -0.093400
     16 C10         3.1990    0.7420   -5.6550 c3        1 1QU     -0.099900
     17 C11         0.2810    0.2930   -4.9310 cc        1 1QU      0.158600
     18 C12        -0.7710   -0.3620   -4.2630 cd        1 1QU     -0.350200
     19 C26        -1.6470   -1.1650   -5.0760 c         1 1QU      0.580300
     20 O2         -1.5890   -1.3390   -6.2920 o         1 1QU     -0.461100
     21 N3         -2.7990   -1.9030   -4.4170 n4        1 1QU     -0.671800
     22 C27        -4.0650   -1.0880   -4.3410 c3        1 1QU      0.142500
     23 C31        -5.3090   -1.9920   -4.4390 c3        1 1QU     -0.048100
     24 C20        -5.2330   -2.9450   -5.5750 ca        1 1QU     -0.176300
     25 C21        -4.9220   -4.2920   -5.3410 ca        1 1QU     -0.126500
     26 C22        -4.8960   -5.1980   -6.4000 ca        1 1QU     -0.109500
     27 C23        -5.1800   -4.7680   -7.6970 ca        1 1QU     -0.085000
     28 C24        -5.4950   -3.4290   -7.9340 ca        1 1QU     -0.109500
     29 C25        -5.5240   -2.5200   -6.8780 ca        1 1QU     -0.126500
     30 C28        -4.0940   -0.2570   -3.0310 c3        1 1QU      0.102100
     31 O3         -3.9720   -1.1820   -1.9660 oh        1 1QU     -0.611800
     32 C29        -5.4250    0.5080   -2.8890 c3        1 1QU      0.079800
     33 N4         -5.3390    1.5520   -1.8320 n4        1 1QU     -0.764000
     34 C30        -6.6840    2.1260   -1.4820 c3        1 1QU      0.179100
     35 C14        -6.5420    3.3060   -0.5820 ca        1 1QU     -0.190300
     36 C15        -5.9350    3.1610    0.6690 ca        1 1QU     -0.075000
     37 C19        -7.0540    4.5520   -0.9700 ca        1 1QU     -0.063000
     38 C18        -6.9570    5.6430   -0.1080 ca        1 1QU     -0.113000
     39 C17        -6.3290    5.5100    1.1330 ca        1 1QU     -0.028000
     40 C16        -5.8110    4.2680    1.5090 ca        1 1QU     -0.160300
     41 C32        -5.0850    4.0850    2.8420 c3        1 1QU      0.691200
     42 F2         -3.7780    3.6790    2.6830 f         1 1QU     -0.223967
     43 F3         -5.0100    5.2080    3.6190 f         1 1QU     -0.223967
     44 F1         -5.6380    3.1210    3.6460 f         1 1QU     -0.223967
     45 H1         -1.9710    0.8450    1.8240 hc        1 1QU      0.104200
     46 H2         -1.9560    2.6080    1.3990 hc        1 1QU      0.104200
     47 H3          0.3410    0.9260    2.2320 hc        1 1QU      0.088700
     48 H4          0.3610    2.6810    1.7960 hc        1 1QU      0.088700
     49 H5          1.3620    2.1750   -0.2490 h1        1 1QU      0.090700
     50 H6          1.3390    0.3970    0.1840 h1        1 1QU      0.090700
     51 H7         -1.6230   -0.7710   -2.2770 ha        1 1QU      0.139000
     52 H8          2.7540    2.4570   -4.3520 h1        1 1QU      0.124700
     53 H9          2.3320    3.5440   -6.3260 hc        1 1QU      0.072450
     54 H10         0.6550    2.8940   -6.2170 hc        1 1QU      0.072450
     55 H11         1.0310    1.3800   -7.9650 hc        1 1QU      0.062450
     56 H12         2.4740    2.3920   -8.3300 hc        1 1QU      0.062450
     57 H13         3.8500    0.6280   -7.7310 hc        1 1QU      0.062450
     58 H14         2.4030   -0.3730   -7.3560 hc        1 1QU      0.062450
     59 H15         4.2370    1.1400   -5.5030 hc        1 1QU      0.072450
     60 H16         3.1460   -0.2460   -5.1360 hc        1 1QU      0.072450
     61 H17         0.4640    0.1110   -6.0190 h4        1 1QU      0.212000
     62 H18        -2.5410   -2.2130   -3.4740 hn        1 1QU      0.476300
     63 H19        -4.0530   -0.3810   -5.2240 hx        1 1QU      0.114700
     64 H20        -6.1970   -1.3170   -4.5770 hc        1 1QU      0.085200
     65 H21        -5.4410   -2.5420   -3.4670 hc        1 1QU      0.085200
     66 H22        -4.7370   -4.6480   -4.3160 ha        1 1QU      0.133500
     67 H23        -4.6640   -6.2590   -6.2100 ha        1 1QU      0.162000
     68 H24        -5.1680   -5.4880   -8.5320 ha        1 1QU      0.166000
     69 H25        -5.7310   -3.0910   -8.9560 ha        1 1QU      0.162000
     70 H26        -5.7910   -1.4700   -7.0690 ha        1 1QU      0.133500
     71 H27        -3.2340    0.4780   -3.0330 h1        1 1QU      0.098700
     72 H28        -3.5540   -0.7380   -1.2110 ho        1 1QU      0.456000
     73 H29        -6.2400   -0.2180   -2.6000 hx        1 1QU      0.119700
     74 H30        -5.6960    1.0040   -3.8630 hx        1 1QU      0.119700
     75 H31        -4.9090    1.1480   -0.9830 hn        1 1QU      0.466300
     76 H33        -7.2790    1.3110   -0.9750 hx        1 1QU      0.112200
     77 H34        -7.2020    2.4110   -2.4430 hx        1 1QU      0.112200
     78 H35        -5.5610    2.1840    1.0150 ha        1 1QU      0.142000
     79 H36        -7.5500    4.6720   -1.9470 ha        1 1QU      0.154000
     80 H37        -7.3790    6.6190   -0.4060 ha        1 1QU      0.178000
     81 H38        -6.2440    6.3760    1.8130 ha        1 1QU      0.187000
     82 H32        -3.0040   -2.7410   -4.9960 hn        1 1QU      0.476300
     83 H42        -4.7080    2.3060   -2.1370 hn        1 1QU      0.466300
@<TRIPOS>BOND
     1    1    2 2   
     2    2    3 1   
     3    2    6 1   
     4    3    4 1   
     5    3   45 1   
     6    3   46 1   
     7    4    5 1   
     8    4   47 1   
     9    4   48 1   
    10    5    6 1   
    11    5   49 1   
    12    5   50 1   
    13    6    7 1   
    14    7    8 2   
    15    7    9 1   
    16    8   18 1   
    17    8   51 1   
    18    9   10 2   
    19    9   11 1   
    20   11   12 1   
    21   11   17 1   
    22   12   13 1   
    23   12   16 1   
    24   12   52 1   
    25   13   14 1   
    26   13   53 1   
    27   13   54 1   
    28   14   15 1   
    29   14   55 1   
    30   14   56 1   
    31   15   16 1   
    32   15   57 1   
    33   15   58 1   
    34   16   59 1   
    35   16   60 1   
    36   17   18 2   
    37   17   61 1   
    38   18   19 1   
    39   19   20 2   
    40   19   21 1   
    41   21   22 1   
    42   21   62 1   
    43   21   82 1   
    44   22   23 1   
    45   22   30 1   
    46   22   63 1   
    47   23   24 1   
    48   23   64 1   
    49   23   65 1   
    50   24   25 ar  
    51   24   29 ar  
    52   25   26 ar  
    53   25   66 1   
    54   26   27 ar  
    55   26   67 1   
    56   27   28 ar  
    57   27   68 1   
    58   28   29 ar  
    59   28   69 1   
    60   29   70 1   
    61   30   31 1   
    62   30   32 1   
    63   30   71 1   
    64   31   72 1   
    65   32   33 1   
    66   32   73 1   
    67   32   74 1   
    68   33   34 1   
    69   33   75 1   
    70   33   83 1   
    71   34   35 1   
    72   34   76 1   
    73   34   77 1   
    74   35   36 ar  
    75   35   37 ar  
    76   36   40 ar  
    77   36   78 1   
    78   37   38 ar  
    79   37   79 1   
    80   38   39 ar  
    81   38   80 1   
    82   39   40 ar  
    83   39   81 1   
    84   40   41 1   
    85   41   42 1   
    86   41   43 1   
    87   41   44 1   
@<TRIPOS>SUBSTRUCTURE
     1 1QU         1 TEMP              0 ****  ****    0 ROOT
