@<TRIPOS>MOLECULE
1QU
   83    87     1     0     0
SMALL
bcc


@<TRIPOS>ATOM
      1 O1         -2.7350    1.1230   -0.8850 o         1 1QU     -0.803500
      2 C1         -1.6510    1.2300   -0.2540 c         1 1QU      0.743500
      3 C2         -1.5120    1.5810    1.2170 c3        1 1QU     -0.153400
      4 C3         -0.0110    1.5800    1.4970 c3        1 1QU     -0.097400
      5 C4          0.6750    1.2220    0.1620 c3        1 1QU      0.074000
      6 N1         -0.3990    1.0230   -0.8170 n         1 1QU     -0.365000
      7 C33        -0.1670    0.7060   -2.1630 cc        1 1QU     -0.031600
      8 C13        -0.9330   -0.2160   -2.8280 cd        1 1QU     -0.079000
      9 C5          0.9380    1.4140   -2.8770 c         1 1QU      0.684700
     10 O4          1.6670    2.2710   -2.3640 o         1 1QU     -0.538500
     11 N2          1.1420    1.0520   -4.2500 n         1 1QU     -0.291000
     12 C6          2.2800    1.6380   -4.9910 c3        1 1QU      0.062700
     13 C7          1.8450    2.4710   -6.2140 c3        1 1QU     -0.099900
     14 C8          2.1060    1.6300   -7.4540 c3        1 1QU     -0.093400
     15 C9          2.9700    0.4470   -7.0400 c3        1 1QU     -0.093400
     16 C10         3.2470    0.5730   -5.5500 c3        1 1QU     -0.099900
     17 C11         0.3020    0.2100   -4.8810 cc        1 1QU      0.158600
     18 C12        -0.7810   -0.4140   -4.2340 cd        1 1QU     -0.350200
     19 C26        -1.6650   -1.1880   -5.0640 c         1 1QU      0.580300
     20 O2         -1.5910   -1.3630   -6.2800 o         1 1QU     -0.461100
     21 N3         -2.8500   -1.8930   -4.4280 ny        1 1QU     -0.671800
     22 C27        -4.0930   -1.0400   -4.3730 c3        1 1QU      0.142500
     23 C31        -5.3610   -1.9060   -4.4940 c3        1 1QU     -0.048100
     24 C20        -5.2940   -2.8600   -5.6310 ca        1 1QU     -0.176300
     25 C21        -5.0270   -4.2160   -5.3940 ca        1 1QU     -0.126500
     26 C22        -5.0090   -5.1210   -6.4540 ca        1 1QU     -0.109500
     27 C23        -5.2580   -4.6800   -7.7560 ca        1 1QU     -0.085000
     28 C24        -5.5280   -3.3310   -7.9950 ca        1 1QU     -0.109500
     29 C25        -5.5480   -2.4240   -6.9370 ca        1 1QU     -0.126500
     30 C28        -4.1200   -0.2120   -3.0610 c3        1 1QU      0.102100
     31 O3         -4.0450   -1.1420   -1.9960 oh        1 1QU     -0.611800
     32 C29        -5.4300    0.5930   -2.9410 c3        1 1QU      0.079800
     33 N4         -5.3310    1.6330   -1.8800 ny        1 1QU     -0.764000
     34 C30        -6.6650    2.2470   -1.5540 c3        1 1QU      0.179100
     35 C14        -6.5030    3.4200   -0.6480 ca        1 1QU     -0.190300
     36 C15        -5.9240    3.2540    0.6130 ca        1 1QU     -0.075000
     37 C19        -6.9710    4.6810   -1.0420 ca        1 1QU     -0.063000
     38 C18        -6.8560    5.7670   -0.1760 ca        1 1QU     -0.113000
     39 C17        -6.2540    5.6120    1.0750 ca        1 1QU     -0.028000
     40 C16        -5.7820    4.3550    1.4580 ca        1 1QU     -0.160300
     41 C32        -5.0860    4.1470    2.8040 c3        1 1QU      0.691200
     42 F2         -3.7890    3.7030    2.6670 f         1 1QU     -0.223967
     43 F3         -4.9920    5.2660    3.5850 f         1 1QU     -0.223967
     44 F1         -5.6810    3.1980    3.5950 f         1 1QU     -0.223967
     45 H1         -2.0530    0.8190    1.8340 hc        1 1QU      0.104200
     46 H2         -1.9770    2.5810    1.4120 hc        1 1QU      0.104200
     47 H3          0.3330    2.5830    1.8510 hc        1 1QU      0.088700
     48 H4          0.2530    0.8300    2.2830 hc        1 1QU      0.088700
     49 H5          1.3560    2.0520   -0.1770 h1        1 1QU      0.090700
     50 H6          1.2720    0.2740    0.2510 h1        1 1QU      0.090700
     51 H7         -1.6790   -0.8000   -2.2640 ha        1 1QU      0.139000
     52 H8          2.8280    2.3000   -4.2550 h1        1 1QU      0.124700
     53 H9          2.4740    3.3990   -6.2340 hc        1 1QU      0.072450
     54 H10         0.7780    2.7980   -6.1590 hc        1 1QU      0.072450
     55 H11         2.6210    2.2430   -8.2360 hc        1 1QU      0.062450
     56 H12         1.1430    1.2750   -7.9010 hc        1 1QU      0.062450
     57 H13         3.9320    0.4390   -7.6130 hc        1 1QU      0.062450
     58 H14         2.4500   -0.5180   -7.2650 hc        1 1QU      0.062450
     59 H15         3.1550   -0.4130   -5.0320 hc        1 1QU      0.072450
     60 H16         4.2930    0.9400   -5.3780 hc        1 1QU      0.072450
     61 H17         0.4990    0.0240   -5.9660 h4        1 1QU      0.212000
     62 H18        -3.0710   -2.7240   -5.0120 hn        1 1QU      0.476300
     63 H19        -4.0430   -0.3330   -5.2540 hx        1 1QU      0.114700
     64 H20        -6.2260   -1.2050   -4.6460 hc        1 1QU      0.085200
     65 H21        -5.5270   -2.4550   -3.5260 hc        1 1QU      0.085200
     66 H22        -4.8720   -4.5790   -4.3670 ha        1 1QU      0.133500
     67 H23        -4.8130   -6.1880   -6.2620 ha        1 1QU      0.162000
     68 H24        -5.2520   -5.3990   -8.5920 ha        1 1QU      0.166000
     69 H25        -5.7360   -2.9850   -9.0210 ha        1 1QU      0.162000
     70 H26        -5.7800   -1.3660   -7.1310 ha        1 1QU      0.133500
     71 H27        -3.2390    0.4970   -3.0460 h1        1 1QU      0.098700
     72 H28        -3.6270   -0.7110   -1.2330 ho        1 1QU      0.456000
     73 H29        -5.6690    1.0980   -3.9190 hx        1 1QU      0.119700
     74 H30        -6.2720   -0.1090   -2.6680 hx        1 1QU      0.119700
     75 H31        -4.9300    1.2140   -1.0240 hn        1 1QU      0.466300
     76 H33        -7.1560    2.5490   -2.5230 hx        1 1QU      0.112200
     77 H34        -7.2930    1.4480   -1.0600 hx        1 1QU      0.112200
     78 H35        -5.5860    2.2650    0.9640 ha        1 1QU      0.142000
     79 H36        -7.4440    4.8180   -2.0280 ha        1 1QU      0.154000
     80 H37        -7.2420    6.7560   -0.4790 ha        1 1QU      0.178000
     81 H38        -6.1550    6.4750    1.7600 ha        1 1QU      0.187000
     82 H32        -2.6190   -2.2120   -3.4810 hn        1 1QU      0.476300
     83 H42        -4.6730    2.3670   -2.1720 hn        1 1QU      0.466300
@<TRIPOS>BOND
     1    1    2 2   
     2    2    3 1   
     3    2    6 1   
     4    3    4 1   
     5    3   45 1   
     6    3   46 1   
     7    4    5 1   
     8    4   47 1   
     9    4   48 1   
    10    5    6 1   
    11    5   49 1   
    12    5   50 1   
    13    6    7 1   
    14    7    8 2   
    15    7    9 1   
    16    8   18 1   
    17    8   51 1   
    18    9   10 2   
    19    9   11 1   
    20   11   12 1   
    21   11   17 1   
    22   12   13 1   
    23   12   16 1   
    24   12   52 1   
    25   13   14 1   
    26   13   53 1   
    27   13   54 1   
    28   14   15 1   
    29   14   55 1   
    30   14   56 1   
    31   15   16 1   
    32   15   57 1   
    33   15   58 1   
    34   16   59 1   
    35   16   60 1   
    36   17   18 2   
    37   17   61 1   
    38   18   19 1   
    39   19   20 2   
    40   19   21 1   
    41   21   22 1   
    42   21   62 1   
    43   21   82 1   
    44   22   23 1   
    45   22   30 1   
    46   22   63 1   
    47   23   24 1   
    48   23   64 1   
    49   23   65 1   
    50   24   25 ar  
    51   24   29 ar  
    52   25   26 ar  
    53   25   66 1   
    54   26   27 ar  
    55   26   67 1   
    56   27   28 ar  
    57   27   68 1   
    58   28   29 ar  
    59   28   69 1   
    60   29   70 1   
    61   30   31 1   
    62   30   32 1   
    63   30   71 1   
    64   31   72 1   
    65   32   33 1   
    66   32   73 1   
    67   32   74 1   
    68   33   34 1   
    69   33   75 1   
    70   33   83 1   
    71   34   35 1   
    72   34   76 1   
    73   34   77 1   
    74   35   36 ar  
    75   35   37 ar  
    76   36   40 ar  
    77   36   78 1   
    78   37   38 ar  
    79   37   79 1   
    80   38   39 ar  
    81   38   80 1   
    82   39   40 ar  
    83   39   81 1   
    84   40   41 1   
    85   41   42 1   
    86   41   43 1   
    87   41   44 1   
@<TRIPOS>SUBSTRUCTURE
     1 1QU         1 TEMP              0 ****  ****    0 ROOT
