@<TRIPOS>MOLECULE
1QU
   81    73     1     0     0
SMALL
bcc


@<TRIPOS>ATOM
      1 O1          3.0640   -1.5870    3.7200 o         1 1QU     -0.353000
      2 C1          3.6240   -2.5520    3.2280 c1        1 1QU      0.309000
      3 C2          4.6100   -3.5620    3.9930 c3        1 1QU     -0.184000
      4 C3          5.0690   -4.5030    2.8360 c3        1 1QU     -0.176000
      5 C4          4.2520   -4.2090    1.7880 c3        1 1QU     -0.026000
      6 N1          3.8470   -2.7450    1.9550 n2        1 1QU     -0.277000
      7 C33         3.5160   -1.8350    0.8940 c1        1 1QU     -0.025000
      8 C13         2.1170   -1.7400    0.4060 c1        1 1QU     -0.078000
      9 C5          4.6140   -1.0140    0.2220 c1        1 1QU      0.345500
     10 O4          5.7400   -1.0170    0.6820 o         1 1QU     -0.383500
     11 N2          4.2870   -0.1370   -0.9110 n2        1 1QU     -0.214000
     12 C6          5.3410    0.4860   -1.6610 c3        1 1QU      0.023000
     13 C7          6.5300    0.2250   -1.0940 c3        1 1QU     -0.171500
     14 C8          6.7970    1.4590   -0.0900 c3        1 1QU     -0.155000
     15 C9          5.6980    2.5670   -0.4640 c3        1 1QU     -0.155000
     16 C10         5.1650    2.1520   -1.6320 c3        1 1QU     -0.171500
     17 C11         2.8840    0.0020   -1.3580 c2        1 1QU      0.050000
     18 C12         1.7940   -0.8610   -0.7310 c1        1 1QU     -0.218000
     19 C26         0.3340   -0.8520   -1.3320 c1        1 1QU      0.345500
     20 O2          0.0680   -0.1270   -2.2690 o         1 1QU     -0.383500
     21 N3         -0.6930   -1.7140   -0.7630 n2        1 1QU     -0.366000
     22 C27        -2.0840   -1.4070   -0.9680 c3        1 1QU      0.040000
     23 C31        -2.8680   -2.6870   -1.0850 c3        1 1QU     -0.135000
     24 C20        -3.3170   -2.8850   -2.5470 c2        1 1QU     -0.076000
     25 C21        -2.8270   -3.9610   -3.2850 c2        1 1QU     -0.126000
     26 C22        -3.3320   -4.2200   -4.5550 c1        1 1QU     -0.127000
     27 C23        -4.3260   -3.4040   -5.0900 c1        1 1QU     -0.119250
     28 C24        -4.8140   -2.3330   -4.3560 c1        1 1QU     -0.119250
     29 C25        -4.3090   -2.0710   -3.0830 c1        1 1QU     -0.125000
     30 C28        -2.6040   -0.5990    0.2120 c3        1 1QU      0.012000
     31 O3         -3.1970   -1.4560    1.1370 oh        1 1QU     -0.332000
     32 C29        -3.6360    0.4160   -0.2760 c3        1 1QU     -0.104000
     33 N4         -3.8710    1.4130    0.7720 n3        1 1QU     -0.304000
     34 C30        -4.5430    2.5460    0.2110 c3        1 1QU     -0.037000
     35 C14        -4.3020    3.7750    1.1010 c1        1 1QU     -0.089000
     36 C15        -5.3820    4.5010    1.5890 c1        1 1QU     -0.078000
     37 C19        -3.0120    4.2070    1.3460 c1        1 1QU     -0.080000
     38 C18        -2.7940    5.3690    2.0810 c1        1 1QU     -0.119250
     39 C17        -3.8740    6.0950    2.5700 c1        1 1QU     -0.119250
     40 C16        -5.1640    5.6630    2.3250 c1        1 1QU     -0.163000
     41 C32        -6.3430    6.4430    2.8780 c2        1 1QU      0.466000
     42 F2         -6.5430    6.1020    4.1590 f         1 1QU     -0.166667
     43 F3         -6.0850    7.7600    2.8010 f         1 1QU     -0.166667
     44 F1         -7.4350    6.1610    2.1670 f         1 1QU     -0.166667
     45 H1          5.4050   -3.2220    4.4650 hc        1 1QU      0.122500
     46 H2          4.1140   -4.0000    4.7210 hc        1 1QU      0.122500
     47 H3          4.9610   -5.4430    3.0980 hc        1 1QU      0.098000
     48 H4          6.0050   -4.3200    2.6000 hc        1 1QU      0.098000
     49 H5          4.7340   -4.3310    0.9370 h1        1 1QU      0.110500
     50 H6          3.4570   -4.7820    1.8100 h1        1 1QU      0.110500
     51 H7          1.4180   -2.2960    0.8110 ha        1 1QU      0.172000
     52 H8          5.3310    0.1610   -2.5900 h1        1 1QU      0.100000
     53 H9          6.4920   -0.6150   -0.5970 hc        1 1QU      0.101250
     54 H10         7.2360    0.1840   -1.7830 hc        1 1QU      0.101250
     55 H11         6.6830    1.1690    0.8400 hc        1 1QU      0.085000
     56 H12         7.7020    1.8190   -0.2270 hc        1 1QU      0.085000
     57 H13         5.0080    2.6080    0.2290 hc        1 1QU      0.085000
     58 H14         6.1250    3.4480   -0.5770 hc        1 1QU      0.085000
     59 H15         5.6470    2.5560   -2.3860 hc        1 1QU      0.101250
     60 H16         4.2140    2.3910   -1.6720 hc        1 1QU      0.101250
     61 H17         2.6700    0.5840   -2.1110 h4        1 1QU      0.184000
     62 H18        -0.4550   -2.4930   -0.3510 hn        1 1QU      0.240000
     63 H19        -2.1860   -0.8850   -1.7900 h1        1 1QU      0.123000
     64 H20        -3.6520   -2.6420   -0.5090 hc        1 1QU      0.108000
     65 H21        -2.3030   -3.4440   -0.8110 hc        1 1QU      0.108000
     66 H22        -2.1260   -4.5370   -2.9080 ha        1 1QU      0.136000
     67 H23        -2.9870   -4.9790   -5.0750 ha        1 1QU      0.133000
     68 H24        -4.6830   -3.5880   -5.9880 ha        1 1QU      0.138500
     69 H25        -5.5150   -1.7570   -4.7340 ha        1 1QU      0.138500
     70 H26        -4.6540   -1.3140   -2.5650 ha        1 1QU      0.129000
     71 H27        -1.8630   -0.1290    0.6340 h1        1 1QU      0.103000
     72 H28        -2.7460   -1.4260    1.9010 ho        1 1QU      0.205000
     73 H29        -4.4790   -0.0470   -0.4830 h1        1 1QU      0.082500
     74 H30        -3.3020    0.8610   -1.0800 h1        1 1QU      0.082500
     75 H31        -4.3900    1.0460    1.4330 hn        1 1QU      0.158000
     76 H33        -4.1960    2.7200   -0.6840 h1        1 1QU      0.082500
     77 H34        -5.4990    2.3650    0.1590 h1        1 1QU      0.082500
     78 H35        -6.2930    4.1960    1.4170 ha        1 1QU      0.151000
     79 H36        -2.2570    3.7000    1.0050 ha        1 1QU      0.154000
     80 H37        -1.8890    5.6710    2.2520 ha        1 1QU      0.138500
     81 H38        -3.7220    6.9050    3.0830 ha        1 1QU      0.138500
@<TRIPOS>BOND
     1    1    2 1   
     2    2    3 1   
     3    3    4 1   
     4    3   45 1   
     5    3   46 1   
     6    4    5 1   
     7    4   47 1   
     8    4   48 1   
     9    5    6 1   
    10    5   49 1   
    11    5   50 1   
    12    6    7 1   
    13    7    8 1   
    14    8   51 1   
    15    9   10 1   
    16   11   12 1   
    17   11   17 1   
    18   12   13 1   
    19   12   16 1   
    20   12   52 1   
    21   13   14 1   
    22   13   53 1   
    23   13   54 1   
    24   14   15 1   
    25   14   55 1   
    26   14   56 1   
    27   15   16 1   
    28   15   57 1   
    29   15   58 1   
    30   16   59 1   
    31   16   60 1   
    32   17   18 1   
    33   17   61 1   
    34   19   20 1   
    35   21   22 1   
    36   21   62 1   
    37   22   23 1   
    38   22   30 1   
    39   22   63 1   
    40   23   24 1   
    41   23   64 1   
    42   23   65 1   
    43   24   25 1   
    44   24   29 1   
    45   25   26 1   
    46   25   66 1   
    47   26   67 1   
    48   27   28 1   
    49   27   68 1   
    50   28   69 1   
    51   29   70 1   
    52   30   31 1   
    53   30   32 1   
    54   30   71 1   
    55   31   72 1   
    56   32   33 1   
    57   32   73 1   
    58   32   74 1   
    59   33   34 1   
    60   33   75 1   
    61   34   35 1   
    62   34   76 1   
    63   34   77 1   
    64   35   37 1   
    65   36   40 1   
    66   36   78 1   
    67   37   79 1   
    68   38   39 1   
    69   38   80 1   
    70   39   81 1   
    71   41   42 1   
    72   41   43 1   
    73   41   44 1   
@<TRIPOS>SUBSTRUCTURE
     1 1QU         1 TEMP              0 ****  ****    0 ROOT
