@<TRIPOS>MOLECULE
1QV
   19    20     1     0     0
SMALL
bcc


@<TRIPOS>ATOM
      1 C01         2.8150   -0.8530    0.2810 ca        1 1QV      0.069900
      2 C02         3.0310    0.5110   -0.1050 ca        1 1QV      0.107900
      3 C03         1.9450    1.3660   -0.3510 ca        1 1QV      0.131900
      4 C04         0.6270    0.8730   -0.2180 ca        1 1QV     -0.143100
      5 C05         0.4090   -0.4930    0.1660 ca        1 1QV      0.056400
      6 C06         1.5140   -1.3590    0.4180 ca        1 1QV      0.174900
      7 C07        -1.6950    0.2090   -0.0460 cc        1 1QV      0.043600
      8 F01         3.8860   -1.6430    0.5100 f         1 1QV     -0.099900
      9 F02         4.2970    0.9620   -0.2270 f         1 1QV     -0.097900
     10 F03         2.1670    2.6490   -0.7130 f         1 1QV     -0.106900
     11 F04         1.3170   -2.6400    0.7810 f         1 1QV     -0.091900
     12 N01        -0.9310   -0.8470    0.2570 nd        1 1QV     -0.436100
     13 N02        -3.7130   -0.7720    1.2940 n3        1 1QV     -1.017700
     14 O01        -3.9630    1.3000    0.0000 o         1 1QV     -0.638300
     15 O02        -3.7400   -0.7790   -1.1770 o         1 1QV     -0.638300
     16 S01        -3.4310   -0.0000   -0.0590 sy        1 1QV      1.477000
     17 S02        -0.8500    1.6230   -0.4350 ss        1 1QV      0.282900
     18 H1         -4.0080   -0.3280    2.1290 hn        1 1QV      0.461800
     19 H2         -3.5510   -1.7430    1.4180 hn        1 1QV      0.461800
@<TRIPOS>BOND
     1    1    2 ar  
     2    1    6 ar  
     3    1    8 1   
     4    2    3 ar  
     5    2    9 1   
     6    3    4 ar  
     7    3   10 1   
     8    4    5 ar  
     9    4   17 1   
    10    5    6 ar  
    11    5   12 1   
    12    6   11 1   
    13    7   12 2   
    14    7   16 1   
    15    7   17 1   
    16   13   16 1   
    17   13   18 1   
    18   13   19 1   
    19   14   16 2   
    20   15   16 2   
@<TRIPOS>SUBSTRUCTURE
     1 1QV         1 TEMP              0 ****  ****    0 ROOT
