@<TRIPOS>MOLECULE
1QV
   20    21     1     0     0
SMALL
bcc


@<TRIPOS>ATOM
      1 C01        -0.1220   -0.2550    0.1430 ca        1 1QV      0.093900
      2 C02         1.2770    0.0760    0.0200 ca        1 1QV      0.174900
      3 C03         2.0700    0.2880    1.1590 ca        1 1QV      0.109900
      4 C04         1.4880    0.1800    2.4460 ca        1 1QV     -0.134100
      5 C05         0.0830   -0.1480    2.5740 ca        1 1QV      0.066400
      6 C06        -0.7210   -0.3710    1.4010 ca        1 1QV      0.181900
      7 C07         0.6740    0.0630    4.7250 cc        1 1QV     -0.219400
      8 F01        -0.8390   -0.4510   -0.9800 f         1 1QV     -0.068900
      9 F02         1.8090    0.1770   -1.2080 f         1 1QV     -0.058900
     10 F03         3.3780    0.5930    1.0280 f         1 1QV     -0.084900
     11 F04        -2.0200   -0.6830    1.5240 f         1 1QV     -0.069900
     12 N01        -0.3570   -0.2090    3.8600 nd        1 1QV     -0.417100
     13 N02        -0.5720   -1.4900    6.5230 n4        1 1QV     -0.786500
     14 O01         1.4310   -0.0360    7.1090 o         1 1QV     -0.550300
     15 O02        -0.6700    1.0310    6.6570 o         1 1QV     -0.550300
     16 S01         0.3240    0.1530    6.3150 sy        1 1QV      1.450000
     17 S02         2.1420    0.3680    3.9460 ss        1 1QV      0.461900
     18 H1         -0.2240   -1.9890    7.3440 hn        1 1QV      0.467133
     19 H2         -0.4710   -2.1140    5.7250 hn        1 1QV      0.467133
     20 H023       -1.5720   -1.3300    6.6580 hn        1 1QV      0.467133
@<TRIPOS>BOND
     1    1    2 ar  
     2    1    6 ar  
     3    1    8 1   
     4    2    3 ar  
     5    2    9 1   
     6    3    4 ar  
     7    3   10 1   
     8    4    5 ar  
     9    4   17 1   
    10    5    6 ar  
    11    5   12 1   
    12    6   11 1   
    13    7   12 2   
    14    7   16 1   
    15    7   17 1   
    16   13   16 1   
    17   13   18 1   
    18   13   19 1   
    19   13   20 1   
    20   14   16 2   
    21   15   16 2   
@<TRIPOS>SUBSTRUCTURE
     1 1QV         1 TEMP              0 ****  ****    0 ROOT
