@<TRIPOS>MOLECULE
1QV
   20    21     1     0     0
SMALL
bcc


@<TRIPOS>ATOM
      1 C01         0.0110   -0.2710    0.1260 ca        1 1QV      0.093900
      2 C02         1.4190    0.0380    0.0580 ca        1 1QV      0.174900
      3 C03         2.1670    0.2450    1.2280 ca        1 1QV      0.109900
      4 C04         1.5320    0.1560    2.4910 ca        1 1QV     -0.134100
      5 C05         0.1170   -0.1490    2.5630 ca        1 1QV      0.066400
      6 C06        -0.6400   -0.3680    1.3590 ca        1 1QV      0.181900
      7 C07         0.6230    0.0680    4.7340 cc        1 1QV     -0.219400
      8 F01        -0.6620   -0.4640   -1.0240 f         1 1QV     -0.068900
      9 F02         2.0020    0.1210   -1.1470 f         1 1QV     -0.058900
     10 F03         3.4840    0.5300    1.1480 f         1 1QV     -0.084900
     11 F04        -1.9490   -0.6600    1.4300 f         1 1QV     -0.069900
     12 N01        -0.3760   -0.1950    3.8300 nd        1 1QV     -0.417100
     13 N02        -0.7200   -1.4530    6.4900 nz        1 1QV     -0.786500
     14 O01         1.2800   -0.0250    7.1480 o         1 1QV     -0.550300
     15 O02        -0.7840    1.0710    6.6020 o         1 1QV     -0.550300
     16 S01         0.2090    0.1750    6.3080 sy        1 1QV      1.450000
     17 S02         2.1270    0.3460    4.0140 ss        1 1QV      0.461900
     18 H1         -0.5950   -2.0840    5.7010 hn        1 1QV      0.467133
     19 H2         -1.7230   -1.2760    6.5810 hn        1 1QV      0.467133
     20 H023       -0.4150   -1.9500    7.3280 hn        1 1QV      0.467133
@<TRIPOS>BOND
     1    1    2 ar  
     2    1    6 ar  
     3    1    8 1   
     4    2    3 ar  
     5    2    9 1   
     6    3    4 ar  
     7    3   10 1   
     8    4    5 ar  
     9    4   17 1   
    10    5    6 ar  
    11    5   12 1   
    12    6   11 1   
    13    7   12 2   
    14    7   16 1   
    15    7   17 1   
    16   13   16 1   
    17   13   18 1   
    18   13   19 1   
    19   13   20 1   
    20   14   16 2   
    21   15   16 2   
@<TRIPOS>SUBSTRUCTURE
     1 1QV         1 TEMP              0 ****  ****    0 ROOT
