@<TRIPOS>MOLECULE
1QV
   20    21     1     0     0
SMALL
bcc


@<TRIPOS>ATOM
      1 C01         0.0680   -0.2760    0.1200 ca        1 1QV      0.093900
      2 C02         1.4760    0.0380    0.0770 ca        1 1QV      0.174900
      3 C03         2.2030    0.2490    1.2600 ca        1 1QV      0.109900
      4 C04         1.5450    0.1590    2.5110 ca        1 1QV     -0.134100
      5 C05         0.1310   -0.1510    2.5580 ca        1 1QV      0.066400
      6 C06        -0.6050   -0.3740    1.3410 ca        1 1QV      0.181900
      7 C07         0.5970    0.0710    4.7380 cc        1 1QV     -0.219400
      8 F01        -0.5830   -0.4730   -1.0410 f         1 1QV     -0.068900
      9 F02         2.0810    0.1220   -1.1170 f         1 1QV     -0.058900
     10 F03         3.5200    0.5380    1.2040 f         1 1QV     -0.084900
     11 F04        -1.9130   -0.6700    1.3900 f         1 1QV     -0.069900
     12 N01        -0.3850   -0.1970    3.8160 nd        1 1QV     -0.417100
     13 N02        -0.7710   -1.4530    6.4720 n4        1 1QV     -0.786500
     14 O01         1.2110   -0.0180    7.1640 o         1 1QV     -0.550300
     15 O02        -0.8460    1.0710    6.5800 o         1 1QV     -0.550300
     16 S01         0.1550    0.1780    6.3040 sy        1 1QV      1.450000
     17 S02         2.1120    0.3520    4.0450 ss        1 1QV      0.461900
     18 H1         -1.7760   -1.2790    6.5450 hn        1 1QV      0.467133
     19 H2         -0.4800   -1.9480    7.3150 hn        1 1QV      0.467133
     20 H023       -0.6310   -2.0840    5.6860 hn        1 1QV      0.467133
@<TRIPOS>BOND
     1    1    2 ar  
     2    1    6 ar  
     3    1    8 1   
     4    2    3 ar  
     5    2    9 1   
     6    3    4 ar  
     7    3   10 1   
     8    4    5 ar  
     9    4   17 1   
    10    5    6 ar  
    11    5   12 1   
    12    6   11 1   
    13    7   12 2   
    14    7   16 1   
    15    7   17 1   
    16   13   16 1   
    17   13   18 1   
    18   13   19 1   
    19   13   20 1   
    20   14   16 2   
    21   15   16 2   
@<TRIPOS>SUBSTRUCTURE
     1 1QV         1 TEMP              0 ****  ****    0 ROOT
