@<TRIPOS>MOLECULE
1QV
   19    13     1     0     0
SMALL
bcc


@<TRIPOS>ATOM
      1 C01        -0.6630    0.0820   -3.2890 c1        1 1QV      0.087500
      2 C02         0.7470    0.0820   -3.2890 c1        1 1QV     -0.005000
      3 C03         1.4470    0.0820   -2.0790 c1        1 1QV     -0.136500
      4 C04         0.7540    0.0820   -0.8760 c1        1 1QV     -0.136500
      5 C05        -0.6710    0.0820   -0.8760 c1        1 1QV     -0.005000
      6 C06        -1.3630    0.0820   -2.0790 c1        1 1QV      0.087500
      7 C07        -0.0300    0.0800    1.4810 c1        1 1QV     -0.976000
      8 F01        -1.2810    0.0530   -4.4760 f         1 1QV     -0.061000
      9 F02         1.3900    0.0410   -4.4630 f         1 1QV     -0.067500
     10 F03         2.7820    0.1080   -2.1760 f         1 1QV     -0.067500
     11 F04        -2.6980    0.0930   -2.1830 f         1 1QV     -0.061000
     12 N01        -1.1710    0.0810    0.6280 n1        1 1QV     -0.009000
     13 N02        -0.1180   -1.0260    4.0550 n3        1 1QV     -0.944000
     14 O01         1.0950    1.1690    3.6260 o         1 1QV     -0.525900
     15 O02        -1.1230    1.2650    3.5920 o         1 1QV     -0.525900
     16 S01        -0.0440    0.3900    3.2260 s4        1 1QV      2.095800
     17 S02         1.2250    0.0810    0.5910 s         1 1QV      0.734000
     18 H1         -0.9270   -1.3700    4.2970 hn        1 1QV      0.257000
     19 H2          0.6500   -1.4570    4.2910 hn        1 1QV      0.257000
@<TRIPOS>BOND
     1    1    6 1   
     2    1    8 1   
     3    2    3 1   
     4    3    4 1   
     5    4    5 1   
     6    6   11 1   
     7    7   12 1   
     8    7   17 1   
     9   13   16 1   
    10   13   18 1   
    11   13   19 1   
    12   14   16 1   
    13   15   16 1   
@<TRIPOS>SUBSTRUCTURE
     1 1QV         1 TEMP              0 ****  ****    0 ROOT
