@<TRIPOS>MOLECULE
1QW
   49    48     1     0     0
SMALL
bcc


@<TRIPOS>ATOM
      1 CH1         0.0010    0.1910    0.4260 c3        1 1QW      0.138400
      2 CH2         1.4030   -0.2180   -0.0310 c3        1 1QW      0.140100
      3 CH3         1.7230    0.4110   -1.3920 c3        1 1QW      0.092400
      4 OH1        -0.6460   -1.0250    0.8360 os        1 1QW     -0.444900
      5 OH2         2.3040    0.2560    0.9580 oh        1 1QW     -0.599800
      6 OH3         3.0530    0.0220   -1.6980 oh        1 1QW     -0.611800
      7 C1         -1.8960   -0.9000    1.3800 c         1 1QW      0.634100
      8 O1         -2.3960    0.2250    1.4360 o         1 1QW     -0.542000
      9 C2         -2.4530   -2.2100    1.8420 c3        1 1QW     -0.127400
     10 C3         -3.9490   -2.2750    1.6170 c3        1 1QW     -0.079400
     11 C4         -4.5260   -3.5410    2.2140 c3        1 1QW     -0.078400
     12 C5         -6.0190   -3.6230    1.9760 c3        1 1QW     -0.079400
     13 C6         -6.6010   -4.8850    2.5750 c3        1 1QW     -0.079400
     14 C7         -8.0930   -4.9680    2.3370 c3        1 1QW     -0.079400
     15 C8         -8.6760   -6.2290    2.9360 c3        1 1QW     -0.078400
     16 C9        -10.1680   -6.3120    2.6980 c3        1 1QW     -0.079400
     17 C10       -10.7510   -7.5740    3.2970 c3        1 1QW     -0.079400
     18 C11       -12.2440   -7.6580    3.0600 c3        1 1QW     -0.080400
     19 C12       -12.8290   -8.9130    3.6550 c3        1 1QW     -0.092100
     20 H1          0.0480    0.8980    1.2950 h1        1 1QW      0.068200
     21 H2         -0.5930    0.6490   -0.4060 h1        1 1QW      0.068200
     22 H3          1.4840   -1.3390   -0.1070 h1        1 1QW      0.069700
     23 H4          1.6490    1.5290   -1.3330 h1        1 1QW      0.037700
     24 H5          1.0180    0.0260   -2.1740 h1        1 1QW      0.037700
     25 H6          3.1930    0.0590    0.6360 ho        1 1QW      0.421000
     26 H7          3.3000    0.4850   -2.5070 ho        1 1QW      0.410000
     27 H8         -1.9350   -3.0500    1.3080 hc        1 1QW      0.079200
     28 H9         -2.2180   -2.3040    2.9370 hc        1 1QW      0.079200
     29 H10        -4.4360   -1.3750    2.0790 hc        1 1QW      0.057200
     30 H11        -4.1650   -2.2410    0.5170 hc        1 1QW      0.057200
     31 H12        -4.0230   -4.4360    1.7610 hc        1 1QW      0.041200
     32 H13        -6.2260   -3.5990    0.8730 hc        1 1QW      0.042700
     33 H14        -6.3940   -4.9080    3.6780 hc        1 1QW      0.040200
     34 H15        -8.5960   -4.0710    2.7860 hc        1 1QW      0.040200
     35 H16        -8.4690   -6.2520    4.0390 hc        1 1QW      0.039700
     36 H17        -8.1730   -7.1260    2.4870 hc        1 1QW      0.039700
     37 H18       -10.6710   -5.4150    3.1470 hc        1 1QW      0.039700
     38 H19       -10.3750   -6.2890    1.5950 hc        1 1QW      0.039700
     39 H20       -10.5450   -7.5970    4.4000 hc        1 1QW      0.039700
     40 H21       -12.7450   -6.7600    3.5080 hc        1 1QW      0.038700
     41 H22       -12.3600   -9.8200    3.2020 hc        1 1QW      0.032700
     42 H23       -12.6570   -8.9440    4.7580 hc        1 1QW      0.032700
     43 H24       -13.9290   -8.9550    3.4680 hc        1 1QW      0.032700
     44 H25        -6.0980   -5.7820    2.1260 hc        1 1QW      0.040200
     45 H26        -8.3000   -4.9450    1.2340 hc        1 1QW      0.040200
     46 H27       -10.2490   -8.4710    2.8480 hc        1 1QW      0.039700
     47 H28       -12.4490   -7.6330    1.9560 hc        1 1QW      0.038700
     48 H29        -4.3190   -3.5670    3.3160 hc        1 1QW      0.041200
     49 H30        -6.5210   -2.7260    2.4250 hc        1 1QW      0.042700
@<TRIPOS>BOND
     1    1    2 1   
     2    1    4 1   
     3    1   20 1   
     4    1   21 1   
     5    2    3 1   
     6    2    5 1   
     7    2   22 1   
     8    3    6 1   
     9    3   23 1   
    10    3   24 1   
    11    4    7 1   
    12    5   25 1   
    13    6   26 1   
    14    7    8 2   
    15    7    9 1   
    16    9   10 1   
    17    9   27 1   
    18    9   28 1   
    19   10   11 1   
    20   10   29 1   
    21   10   30 1   
    22   11   12 1   
    23   11   31 1   
    24   11   48 1   
    25   12   13 1   
    26   12   32 1   
    27   12   49 1   
    28   13   14 1   
    29   13   33 1   
    30   13   44 1   
    31   14   15 1   
    32   14   34 1   
    33   14   45 1   
    34   15   16 1   
    35   15   35 1   
    36   15   36 1   
    37   16   17 1   
    38   16   37 1   
    39   16   38 1   
    40   17   18 1   
    41   17   39 1   
    42   17   46 1   
    43   18   19 1   
    44   18   40 1   
    45   18   47 1   
    46   19   41 1   
    47   19   42 1   
    48   19   43 1   
@<TRIPOS>SUBSTRUCTURE
     1 1QW         1 TEMP              0 ****  ****    0 ROOT
