@<TRIPOS>MOLECULE
1QW
   49    48     1     0     0
SMALL
bcc


@<TRIPOS>ATOM
      1 CH1         5.4430    0.5590   -0.7060 c3        1 1QW      0.104400
      2 CH2         6.2930   -0.3050    0.2250 c3        1 1QW      0.118100
      3 CH3         7.6540    0.3640    0.4520 c3        1 1QW      0.097400
      4 OH1         4.1740   -0.0510   -0.9490 os        1 1QW     -0.432900
      5 OH2         5.6690   -0.5430    1.4710 oh        1 1QW     -0.596800
      6 OH3         8.3130    0.4090   -0.8020 oh        1 1QW     -0.602800
      7 C1          3.1640    0.1930   -0.0580 c         1 1QW      0.645100
      8 O1          3.3890    0.9500    0.8910 o         1 1QW     -0.561000
      9 C2          1.9060   -0.5400   -0.4020 c3        1 1QW     -0.126400
     10 C3          0.6830    0.2940   -0.0810 c3        1 1QW     -0.079400
     11 C4         -0.5830   -0.5050   -0.2990 c3        1 1QW     -0.078400
     12 C5         -1.8110    0.3280    0.0020 c3        1 1QW     -0.079400
     13 C6         -3.0800   -0.4700   -0.2110 c3        1 1QW     -0.079400
     14 C7         -4.3080    0.3630    0.0890 c3        1 1QW     -0.079400
     15 C8         -5.5770   -0.4340   -0.1230 c3        1 1QW     -0.079400
     16 C9         -6.8050    0.3990    0.1760 c3        1 1QW     -0.079400
     17 C10        -8.0740   -0.3980   -0.0360 c3        1 1QW     -0.079400
     18 C11        -9.3030    0.4340    0.2630 c3        1 1QW     -0.080400
     19 C12       -10.5700   -0.3550    0.0530 c3        1 1QW     -0.092100
     20 H1          5.3080    1.5890   -0.2850 h1        1 1QW      0.078200
     21 H2          5.9210    0.6050   -1.7220 h1        1 1QW      0.078200
     22 H3          6.4370   -1.3290   -0.2210 h1        1 1QW      0.094700
     23 H4          7.5200    1.4050    0.8500 h1        1 1QW      0.034200
     24 H5          8.2450   -0.2380    1.1920 h1        1 1QW      0.034200
     25 H6          5.3140    0.2990    1.7910 ho        1 1QW      0.420000
     26 H7          9.2190    0.6910   -0.6280 ho        1 1QW      0.406000
     27 H8          1.9180   -0.8210   -1.4880 hc        1 1QW      0.081200
     28 H9          1.9010   -1.4890    0.1990 hc        1 1QW      0.081200
     29 H10         0.7390    0.6430    0.9850 hc        1 1QW      0.057200
     30 H11         0.6710    1.2090   -0.7290 hc        1 1QW      0.057200
     31 H12        -0.6240   -0.8660   -1.3610 hc        1 1QW      0.041700
     32 H13        -1.7680    0.6920    1.0620 hc        1 1QW      0.042700
     33 H14        -3.1220   -0.8350   -1.2710 hc        1 1QW      0.040200
     34 H15        -4.2650    0.7280    1.1490 hc        1 1QW      0.040200
     35 H16        -5.6190   -0.7990   -1.1830 hc        1 1QW      0.039700
     36 H17        -5.5670   -1.3400    0.5380 hc        1 1QW      0.039700
     37 H18        -6.7630    0.7640    1.2360 hc        1 1QW      0.039700
     38 H19        -6.8150    1.3050   -0.4860 hc        1 1QW      0.039700
     39 H20        -8.1170   -0.7630   -1.0960 hc        1 1QW      0.039700
     40 H21        -9.2580    0.8000    1.3220 hc        1 1QW      0.038700
     41 H22       -10.6450   -0.7080   -1.0040 hc        1 1QW      0.032700
     42 H23       -10.5920   -1.2500    0.7210 hc        1 1QW      0.032700
     43 H24       -11.4630    0.2760    0.2780 hc        1 1QW      0.032700
     44 H25        -3.0700   -1.3760    0.4500 hc        1 1QW      0.040200
     45 H26        -4.3180    1.2700   -0.5730 hc        1 1QW      0.040200
     46 H27        -8.0650   -1.3040    0.6250 hc        1 1QW      0.039700
     47 H28        -9.3100    1.3410   -0.3990 hc        1 1QW      0.038700
     48 H29        -0.5750   -1.4140    0.3600 hc        1 1QW      0.041700
     49 H30        -1.8210    1.2350   -0.6590 hc        1 1QW      0.042700
@<TRIPOS>BOND
     1    1    2 1   
     2    1    4 1   
     3    1   20 1   
     4    1   21 1   
     5    2    3 1   
     6    2    5 1   
     7    2   22 1   
     8    3    6 1   
     9    3   23 1   
    10    3   24 1   
    11    4    7 1   
    12    5   25 1   
    13    6   26 1   
    14    7    8 2   
    15    7    9 1   
    16    9   10 1   
    17    9   27 1   
    18    9   28 1   
    19   10   11 1   
    20   10   29 1   
    21   10   30 1   
    22   11   12 1   
    23   11   31 1   
    24   11   48 1   
    25   12   13 1   
    26   12   32 1   
    27   12   49 1   
    28   13   14 1   
    29   13   33 1   
    30   13   44 1   
    31   14   15 1   
    32   14   34 1   
    33   14   45 1   
    34   15   16 1   
    35   15   35 1   
    36   15   36 1   
    37   16   17 1   
    38   16   37 1   
    39   16   38 1   
    40   17   18 1   
    41   17   39 1   
    42   17   46 1   
    43   18   19 1   
    44   18   40 1   
    45   18   47 1   
    46   19   41 1   
    47   19   42 1   
    48   19   43 1   
@<TRIPOS>SUBSTRUCTURE
     1 1QW         1 TEMP              0 ****  ****    0 ROOT
