@<TRIPOS>MOLECULE
1QW
   49    48     1     0     0
SMALL
bcc


@<TRIPOS>ATOM
      1 CH1         0.0060    0.1900    0.4370 c3        1 1QW      0.138400
      2 CH2         1.4060   -0.2130   -0.0300 c3        1 1QW      0.140100
      3 CH3         1.7270    0.4440   -1.3770 c3        1 1QW      0.092400
      4 OH1        -0.6420   -1.0320    0.8250 os        1 1QW     -0.444900
      5 OH2         2.3090    0.2380    0.9680 oh        1 1QW     -0.599800
      6 OH3         3.0550    0.0580   -1.6930 oh        1 1QW     -0.611800
      7 C1         -1.8900   -0.9150    1.3780 c         1 1QW      0.634100
      8 O1         -2.3870    0.2100    1.4580 o         1 1QW     -0.542000
      9 C2         -2.4470   -2.2320    1.8180 c3        1 1QW     -0.127400
     10 C3         -3.9470   -2.2830    1.6160 c3        1 1QW     -0.079400
     11 C4         -4.5220   -3.5590    2.1920 c3        1 1QW     -0.078400
     12 C5         -6.0190   -3.6260    1.9780 c3        1 1QW     -0.079400
     13 C6         -6.5990   -4.8980    2.5570 c3        1 1QW     -0.079400
     14 C7         -8.0970   -4.9650    2.3440 c3        1 1QW     -0.079400
     15 C8         -8.6770   -6.2370    2.9240 c3        1 1QW     -0.078400
     16 C9        -10.1750   -6.3040    2.7120 c3        1 1QW     -0.079400
     17 C10       -10.7560   -7.5760    3.2910 c3        1 1QW     -0.079400
     18 C11       -12.2530   -7.6440    3.0800 c3        1 1QW     -0.080400
     19 C12       -12.8360   -8.9090    3.6550 c3        1 1QW     -0.092100
     20 H1          0.0550    0.8810    1.3180 h1        1 1QW      0.068200
     21 H2         -0.5890    0.6630   -0.3860 h1        1 1QW      0.068200
     22 H3          1.4840   -1.3330   -0.1290 h1        1 1QW      0.069700
     23 H4          1.6560    1.5600   -1.2950 h1        1 1QW      0.037700
     24 H5          1.0200    0.0760   -2.1670 h1        1 1QW      0.037700
     25 H6          3.1980    0.0450    0.6420 ho        1 1QW      0.421000
     26 H7          3.3030    0.5370   -2.4920 ho        1 1QW      0.410000
     27 H8         -1.9440   -3.0620    1.2560 hc        1 1QW      0.079200
     28 H9         -2.1950   -2.3540    2.9060 hc        1 1QW      0.079200
     29 H10        -4.1810   -2.2220    0.5210 hc        1 1QW      0.057200
     30 H11        -4.4210   -1.3910    2.1070 hc        1 1QW      0.057200
     31 H12        -4.2970   -3.6130    3.2900 hc        1 1QW      0.041200
     32 H13        -6.2450   -3.5750    0.8800 hc        1 1QW      0.042700
     33 H14        -6.3730   -4.9500    3.6550 hc        1 1QW      0.040200
     34 H15        -8.3230   -4.9140    1.2470 hc        1 1QW      0.040200
     35 H16        -8.1900   -7.1260    2.4430 hc        1 1QW      0.039700
     36 H17        -8.4500   -6.2890    4.0210 hc        1 1QW      0.039700
     37 H18       -10.4020   -6.2530    1.6140 hc        1 1QW      0.039700
     38 H19       -10.6620   -5.4150    3.1920 hc        1 1QW      0.039700
     39 H20       -10.5280   -7.6280    4.3880 hc        1 1QW      0.039700
     40 H21       -12.4790   -7.5900    1.9820 hc        1 1QW      0.038700
     41 H22       -12.3830   -9.8070    3.1710 hc        1 1QW      0.032700
     42 H23       -13.9400   -8.9380    3.4890 hc        1 1QW      0.032700
     43 H24       -12.6430   -8.9680    4.7530 hc        1 1QW      0.032700
     44 H25        -6.1110   -5.7870    2.0770 hc        1 1QW      0.040200
     45 H26        -8.5850   -4.0760    2.8240 hc        1 1QW      0.040200
     46 H27       -10.2680   -8.4650    2.8100 hc        1 1QW      0.039700
     47 H28       -12.7390   -6.7530    3.5600 hc        1 1QW      0.038700
     48 H29        -4.0330   -4.4460    1.7090 hc        1 1QW      0.041200
     49 H30        -6.5080   -2.7370    2.4580 hc        1 1QW      0.042700
@<TRIPOS>BOND
     1    1    2 1   
     2    1    4 1   
     3    1   20 1   
     4    1   21 1   
     5    2    3 1   
     6    2    5 1   
     7    2   22 1   
     8    3    6 1   
     9    3   23 1   
    10    3   24 1   
    11    4    7 1   
    12    5   25 1   
    13    6   26 1   
    14    7    8 2   
    15    7    9 1   
    16    9   10 1   
    17    9   27 1   
    18    9   28 1   
    19   10   11 1   
    20   10   29 1   
    21   10   30 1   
    22   11   12 1   
    23   11   31 1   
    24   11   48 1   
    25   12   13 1   
    26   12   32 1   
    27   12   49 1   
    28   13   14 1   
    29   13   33 1   
    30   13   44 1   
    31   14   15 1   
    32   14   34 1   
    33   14   45 1   
    34   15   16 1   
    35   15   35 1   
    36   15   36 1   
    37   16   17 1   
    38   16   37 1   
    39   16   38 1   
    40   17   18 1   
    41   17   39 1   
    42   17   46 1   
    43   18   19 1   
    44   18   40 1   
    45   18   47 1   
    46   19   41 1   
    47   19   42 1   
    48   19   43 1   
@<TRIPOS>SUBSTRUCTURE
     1 1QW         1 TEMP              0 ****  ****    0 ROOT
