@<TRIPOS>MOLECULE
1QW
   49    48     1     0     0
SMALL
bcc


@<TRIPOS>ATOM
      1 CH1         5.4100    3.5290   -1.4530 c3        1 1QW      0.138400
      2 CH2         6.9220    3.5410   -1.4440 c3        1 1QW      0.140100
      3 CH3         7.4220    4.6620   -2.3260 c3        1 1QW      0.092400
      4 OH1         4.9470    2.2740   -1.0120 os        1 1QW     -0.444900
      5 OH2         7.3820    3.7390   -0.1280 oh        1 1QW     -0.599800
      6 OH3         8.8330    4.6690   -2.3230 oh        1 1QW     -0.611800
      7 C1          3.5480    2.1750   -0.9450 c         1 1QW      0.634100
      8 O1          2.8560    3.1260   -1.2510 o         1 1QW     -0.542000
      9 C2          2.9010    0.8820   -0.5000 c3        1 1QW     -0.127400
     10 C3          1.4110    1.0900   -0.3460 c3        1 1QW     -0.079400
     11 C4          0.7600   -0.2120    0.0670 c3        1 1QW     -0.078400
     12 C5         -0.7380   -0.0190    0.1640 c3        1 1QW     -0.079400
     13 C6         -1.3980   -1.3440    0.4770 c3        1 1QW     -0.079400
     14 C7         -2.8940   -1.1490    0.5860 c3        1 1QW     -0.079400
     15 C8         -3.5540   -2.4730    0.9020 c3        1 1QW     -0.078400
     16 C9         -5.0460   -2.2710    1.0490 c3        1 1QW     -0.079400
     17 C10        -5.7000   -3.5860    1.4130 c3        1 1QW     -0.079400
     18 C11        -7.1970   -3.3940    1.5120 c3        1 1QW     -0.080400
     19 C12        -7.8520   -4.7090    1.8730 c3        1 1QW     -0.092100
     20 H1          5.0740    4.2290   -0.8550 h1        1 1QW      0.068200
     21 H2          5.0880    3.6950   -2.3630 h1        1 1QW      0.068200
     22 H3          7.2560    2.6860   -1.7810 h1        1 1QW      0.069700
     23 H4          7.0910    5.5180   -1.9860 h1        1 1QW      0.037700
     24 H5          7.0990    4.5260   -3.2410 h1        1 1QW      0.037700
     25 H6          8.1380    3.2870   -0.0070 ho        1 1QW      0.421000
     26 H7          9.1260    5.4450   -2.6410 ho        1 1QW      0.410000
     27 H8          3.2820    0.6050    0.3580 hc        1 1QW      0.079200
     28 H9          3.0660    0.1880   -1.1690 hc        1 1QW      0.079200
     29 H10         1.2450    1.7680    0.3390 hc        1 1QW      0.057200
     30 H11         1.0330    1.3870   -1.1980 hc        1 1QW      0.057200
     31 H12         1.1100   -0.4900    0.9370 hc        1 1QW      0.041200
     32 H13        -1.0780    0.3220   -0.6870 hc        1 1QW      0.042700
     33 H14        -1.0510   -1.6890    1.3240 hc        1 1QW      0.040200
     34 H15        -3.2410   -0.8050   -0.2610 hc        1 1QW      0.040200
     35 H16        -3.3810   -3.1050    0.1760 hc        1 1QW      0.039700
     36 H17        -3.1890   -2.8280    1.7370 hc        1 1QW      0.039700
     37 H18        -5.4160   -1.9450    0.2040 hc        1 1QW      0.039700
     38 H19        -5.2180   -1.6150    1.7540 hc        1 1QW      0.039700
     39 H20        -5.5010   -4.2500    0.7240 hc        1 1QW      0.039700
     40 H21        -7.3960   -2.7300    2.2030 hc        1 1QW      0.038700
     41 H22        -8.8250   -4.6210    1.8010 hc        1 1QW      0.032700
     42 H23        -7.5410   -5.4080    1.2600 hc        1 1QW      0.032700
     43 H24        -7.6130   -4.9510    2.7930 hc        1 1QW      0.032700
     44 H25        -1.2040   -1.9820   -0.2390 hc        1 1QW      0.040200
     45 H26        -3.0880   -0.5090    1.3010 hc        1 1QW      0.040200
     46 H27        -5.3530   -3.8950    2.2740 hc        1 1QW      0.039700
     47 H28        -7.5440   -3.0820    0.6520 hc        1 1QW      0.038700
     48 H29         0.9570   -0.9010   -0.5990 hc        1 1QW      0.041200
     49 H30        -0.9380    0.6210    0.8760 hc        1 1QW      0.042700
@<TRIPOS>BOND
     1    1    2 1   
     2    1    4 1   
     3    1   20 1   
     4    1   21 1   
     5    2    3 1   
     6    2    5 1   
     7    2   22 1   
     8    3    6 1   
     9    3   23 1   
    10    3   24 1   
    11    4    7 1   
    12    5   25 1   
    13    6   26 1   
    14    7    8 2   
    15    7    9 1   
    16    9   10 1   
    17    9   27 1   
    18    9   28 1   
    19   10   11 1   
    20   10   29 1   
    21   10   30 1   
    22   11   12 1   
    23   11   31 1   
    24   11   48 1   
    25   12   13 1   
    26   12   32 1   
    27   12   49 1   
    28   13   14 1   
    29   13   33 1   
    30   13   44 1   
    31   14   15 1   
    32   14   34 1   
    33   14   45 1   
    34   15   16 1   
    35   15   35 1   
    36   15   36 1   
    37   16   17 1   
    38   16   37 1   
    39   16   38 1   
    40   17   18 1   
    41   17   39 1   
    42   17   46 1   
    43   18   19 1   
    44   18   40 1   
    45   18   47 1   
    46   19   41 1   
    47   19   42 1   
    48   19   43 1   
@<TRIPOS>SUBSTRUCTURE
     1 1QW         1 TEMP              0 ****  ****    0 ROOT
