@<TRIPOS>MOLECULE
1QX
   53    52     1     0     0
SMALL
bcc


@<TRIPOS>ATOM
      1 C12        12.4240   -0.5560   -0.2470 c3        1 1QX     -0.092100
      2 C11        11.1820    0.2970   -0.2330 c3        1 1QX     -0.080400
      3 C10         9.9280   -0.5450   -0.1420 c3        1 1QX     -0.079400
      4 C9          8.6840    0.3160   -0.1280 c3        1 1QX     -0.079400
      5 C8          7.4300   -0.5270   -0.0370 c3        1 1QX     -0.078400
      6 C7          6.1860    0.3350   -0.0240 c3        1 1QX     -0.079400
      7 C6          4.9330   -0.5090    0.0670 c3        1 1QX     -0.078400
      8 C5          3.6880    0.3530    0.0810 c3        1 1QX     -0.079400
      9 C4          2.4340   -0.4900    0.1710 c3        1 1QX     -0.077400
     10 C3          1.1890    0.3720    0.1850 c3        1 1QX     -0.079400
     11 C2         -0.0630   -0.4700    0.2740 c3        1 1QX     -0.083400
     12 C1         -1.3050    0.4070    0.2870 c3        1 1QX      0.169400
     13 O1         -2.4430   -0.3970    0.3700 os        1 1QX     -0.586200
     14 P1         -3.8260    0.5380    0.3920 p5        1 1QX      1.334600
     15 O2         -3.7700    1.3280    1.6430 o         1 1QX     -0.860500
     16 C1H        -4.9720   -0.7110    0.5210 c3        1 1QX     -0.324600
     17 C2H        -6.2910   -0.1090    0.1400 c3        1 1QX     -0.091400
     18 C3H        -7.3920   -1.1590    0.1130 c3        1 1QX      0.167800
     19 N1         -8.7520   -0.7160   -0.1340 n2        1 1QX     -0.457200
     20 N2         -9.0410    0.1090   -1.0250 n1        1 1QX      0.229000
     21 N3         -9.5180    0.8340   -1.7610 n1        1 1QX     -0.108000
     22 H1         13.3360    0.0840   -0.3140 hc        1 1QX      0.030700
     23 H2         12.4910   -1.1700    0.6840 hc        1 1QX      0.030700
     24 H3         12.4150   -1.2500   -1.1220 hc        1 1QX      0.030700
     25 H4         11.2210    1.0040    0.6380 hc        1 1QX      0.037700
     26 H5         11.1450    0.9230   -1.1630 hc        1 1QX      0.037700
     27 H6          9.8870   -1.2520   -1.0130 hc        1 1QX      0.038700
     28 H7          9.9630   -1.1710    0.7890 hc        1 1QX      0.038700
     29 H8          8.7250    1.0220    0.7430 hc        1 1QX      0.038700
     30 H9          8.6490    0.9420   -1.0590 hc        1 1QX      0.038700
     31 H10         7.3890   -1.2340   -0.9080 hc        1 1QX      0.037700
     32 H11         7.4650   -1.1530    0.8930 hc        1 1QX      0.037700
     33 H12         6.2280    1.0410    0.8470 hc        1 1QX      0.038700
     34 H13         6.1520    0.9600   -0.9540 hc        1 1QX      0.038700
     35 H14         4.8910   -1.2150   -0.8040 hc        1 1QX      0.036700
     36 H15         4.9660   -1.1340    0.9970 hc        1 1QX      0.036700
     37 H16         3.7290    1.0590    0.9520 hc        1 1QX      0.037700
     38 H17         3.6540    0.9790   -0.8500 hc        1 1QX      0.037700
     39 H18         2.3920   -1.1960   -0.7000 hc        1 1QX      0.034700
     40 H19         2.4670   -1.1150    1.1010 hc        1 1QX      0.034700
     41 H20         1.2300    1.0780    1.0560 hc        1 1QX      0.037700
     42 H21         1.1550    0.9980   -0.7460 hc        1 1QX      0.037700
     43 H22        -0.1190   -1.1750   -0.5950 hc        1 1QX      0.037700
     44 H23        -0.0440   -1.0950    1.2050 hc        1 1QX      0.037700
     45 H24        -1.2900    1.1040    1.1730 h1        1 1QX      0.027700
     46 H25        -1.3660    1.0220   -0.6540 h1        1 1QX      0.027700
     47 H27        -4.7100   -1.5590   -0.1550 hc        1 1QX      0.067200
     48 H28        -5.0030   -1.1160    1.5590 hc        1 1QX      0.067200
     49 H29        -6.5350    0.7030    0.8760 hc        1 1QX      0.066700
     50 H30        -6.1740    0.3760   -0.8690 hc        1 1QX      0.066700
     51 H31        -7.1100   -1.9590   -0.6320 h1        1 1QX      0.053700
     52 H32        -7.4730   -1.6440    1.1280 h1        1 1QX      0.053700
     53 O3         -3.9070    1.1790   -0.9430 o         1 1QX     -0.860500
@<TRIPOS>BOND
     1    1    2 1   
     2    1   22 1   
     3    1   23 1   
     4    1   24 1   
     5    2    3 1   
     6    2   25 1   
     7    2   26 1   
     8    3    4 1   
     9    3   27 1   
    10    3   28 1   
    11    4    5 1   
    12    4   29 1   
    13    4   30 1   
    14    5    6 1   
    15    5   31 1   
    16    5   32 1   
    17    6    7 1   
    18    6   33 1   
    19    6   34 1   
    20    7    8 1   
    21    7   35 1   
    22    7   36 1   
    23    8    9 1   
    24    8   37 1   
    25    8   38 1   
    26    9   10 1   
    27    9   39 1   
    28    9   40 1   
    29   10   11 1   
    30   10   41 1   
    31   10   42 1   
    32   11   12 1   
    33   11   43 1   
    34   11   44 1   
    35   12   13 1   
    36   12   45 1   
    37   12   46 1   
    38   13   14 1   
    39   14   15 1   
    40   14   16 1   
    41   14   53 1   
    42   16   17 1   
    43   16   47 1   
    44   16   48 1   
    45   17   18 1   
    46   17   49 1   
    47   17   50 1   
    48   18   19 1   
    49   18   51 1   
    50   18   52 1   
    51   19   20 1   
    52   20   21 3   
@<TRIPOS>SUBSTRUCTURE
     1 1QX         1 TEMP              0 ****  ****    0 ROOT
