@<TRIPOS>MOLECULE
1QX
   53    50     1     0     0
SMALL
bcc


@<TRIPOS>ATOM
      1 C12         0.5630    0.9350   -0.3690 c3        1 1QX     -0.210000
      2 C11         1.6730    1.6310    0.3760 c3        1 1QX     -0.159000
      3 C10         2.5230    0.6470    1.1510 c3        1 1QX     -0.155000
      4 C9          3.6380    1.3540    1.8960 c3        1 1QX     -0.132000
      5 C8          4.4870    0.3960    2.6460 c2        1 1QX     -0.172000
      6 C7          4.8830    0.5760    3.9040 c2        1 1QX     -0.217000
      7 C6          6.5340   -2.6910    4.2160 c3        1 1QX     -0.211000
      8 C5          7.7440   -2.1100    4.9000 c3        1 1QX     -0.158000
      9 C4          8.1240   -2.9050    6.1340 c3        1 1QX     -0.121000
     10 C3          9.3040   -2.3220    6.8190 c2        1 1QX     -0.228000
     11 C2         10.3640   -3.0230    7.2150 c2        1 1QX     -0.195000
     12 C1         13.2370    0.1390    6.7180 c3        1 1QX     -0.064000
     13 O1         13.1690    0.8830    7.9030 os        1 1QX     -0.430000
     14 P1         13.9670   -0.0070    9.0770 p3        1 1QX      0.364000
     15 O2         12.8090   -1.2180    9.3330 os        1 1QX     -0.179000
     16 C1H        13.6350    1.0230   10.4380 c3        1 1QX     -0.330000
     17 C2H        14.9640    1.1580   11.1170 c3        1 1QX     -0.163000
     18 C3H        14.8630    2.0530   12.3470 c3        1 1QX     -0.080000
     19 N1         16.0480    2.2210   13.1680 n2        1 1QX     -0.292000
     20 N2         17.1780    2.4270   12.6820 n2        1 1QX      0.226000
     21 N3         18.2770    2.6150   12.4530 n1        1 1QX     -0.110000
     22 H1          0.9790    0.1960   -1.0970 hc        1 1QX      0.070000
     23 H2         -0.0510    1.6770   -0.9330 hc        1 1QX      0.070000
     24 H3         -0.1050    0.3890    0.3390 hc        1 1QX      0.070000
     25 H4          2.3190    2.1930   -0.3490 hc        1 1QX      0.077000
     26 H5          1.2370    2.3860    1.0820 hc        1 1QX      0.077000
     27 H6          1.8800    0.0870    1.8810 hc        1 1QX      0.080500
     28 H7          2.9600   -0.1090    0.4470 hc        1 1QX      0.080500
     29 H8          3.1990    2.1200    2.5890 hc        1 1QX      0.083000
     30 H9          4.2840    1.9070    1.1600 hc        1 1QX      0.083000
     31 H10         4.7930   -0.5000    2.0790 ha        1 1QX      0.119000
     32 H11         4.5990    1.4540    4.4990 ha        1 1QX      0.117500
     33 H12         5.5290   -0.1490    4.4210 ha        1 1QX      0.117500
     34 H13         6.2650   -2.0860    3.3150 hc        1 1QX      0.064000
     35 H14         6.7300   -3.7410    3.8910 hc        1 1QX      0.064000
     36 H15         5.6560   -2.6980    4.9070 hc        1 1QX      0.064000
     37 H16         7.5380   -1.0460    5.1910 hc        1 1QX      0.079000
     38 H17         8.6100   -2.0940    4.1880 hc        1 1QX      0.079000
     39 H18         7.2540   -2.9180    6.8460 hc        1 1QX      0.068000
     40 H19         8.3230   -3.9710    5.8400 hc        1 1QX      0.068000
     41 H20        11.2330   -2.5690    7.7450 ha        1 1QX      0.148000
     42 H21         9.2450   -1.2370    7.0010 ha        1 1QX      0.118000
     43 H22        10.4450   -4.1050    7.0430 ha        1 1QX      0.148000
     44 H23        14.3030    0.0500    6.3860 h1        1 1QX      0.060333
     45 H24        12.8090   -0.8860    6.8770 h1        1 1QX      0.060333
     46 H25        12.6460    0.7030    5.9500 h1        1 1QX      0.060333
     47 H27        12.8760    0.5370   11.0910 hc        1 1QX      0.089500
     48 H28        13.2400    1.9990   10.0790 hc        1 1QX      0.089500
     49 H29        15.6990    1.5810   10.3820 hc        1 1QX      0.090000
     50 H30        15.3280    0.1360   11.4010 hc        1 1QX      0.090000
     51 H31        14.4730    3.0630   12.0280 h1        1 1QX      0.095500
     52 H32        14.1220    1.6080   13.0720 h1        1 1QX      0.095500
     53 O3         13.0260   -2.2270    8.6920 o         1 1QX     -0.656000
@<TRIPOS>BOND
     1    1    2 1   
     2    1   22 1   
     3    1   23 1   
     4    1   24 1   
     5    2    3 1   
     6    2   25 1   
     7    2   26 1   
     8    3    4 1   
     9    3   27 1   
    10    3   28 1   
    11    4    5 1   
    12    4   29 1   
    13    4   30 1   
    14    5    6 1   
    15    5   31 1   
    16    6   32 1   
    17    6   33 1   
    18    7    8 1   
    19    7   34 1   
    20    7   35 1   
    21    7   36 1   
    22    8    9 1   
    23    8   37 1   
    24    8   38 1   
    25    9   10 1   
    26    9   39 1   
    27    9   40 1   
    28   10   11 1   
    29   10   42 1   
    30   11   41 1   
    31   11   43 1   
    32   12   13 1   
    33   12   44 1   
    34   12   45 1   
    35   12   46 1   
    36   13   14 1   
    37   14   15 1   
    38   14   16 1   
    39   15   53 1   
    40   16   17 1   
    41   16   47 1   
    42   16   48 1   
    43   17   18 1   
    44   17   49 1   
    45   17   50 1   
    46   18   19 1   
    47   18   51 1   
    48   18   52 1   
    49   19   20 1   
    50   20   21 1   
@<TRIPOS>SUBSTRUCTURE
     1 1QX         1 TEMP              0 ****  ****    0 ROOT
