@<TRIPOS>MOLECULE
1QX
   53    52     1     0     0
SMALL
bcc


@<TRIPOS>ATOM
      1 C12        -8.3940   -0.0560   -5.8420 c3        1 1QX     -0.092100
      2 C11        -6.9950    0.2860   -5.7680 c3        1 1QX     -0.080400
      3 C10        -6.5500    0.3050   -4.3820 c3        1 1QX     -0.079400
      4 C9         -4.9310    0.6130   -4.3550 c3        1 1QX     -0.079400
      5 C8         -4.4230    0.4260   -3.0260 c3        1 1QX     -0.078400
      6 C7         -2.9670    0.5970   -3.0310 c3        1 1QX     -0.079400
      7 C6         -2.3660    0.2890   -1.4630 c3        1 1QX     -0.078400
      8 C5         -0.9090    0.4870   -1.4210 c3        1 1QX     -0.079400
      9 C4         -0.4550    0.1860   -0.1150 c3        1 1QX     -0.077400
     10 C3          1.1740    0.2710   -0.0550 c3        1 1QX     -0.079400
     11 C2          1.6210    0.0520    1.3490 c3        1 1QX     -0.083400
     12 C1          3.1810    0.0190    1.4030 c3        1 1QX      0.169400
     13 O1          3.6470    0.0420    2.8770 os        1 1QX     -0.586200
     14 P1          5.2150   -0.1340    3.1860 p5        1 1QX      1.334600
     15 O2          5.7540   -1.4420    2.4720 o         1 1QX     -0.860500
     16 C1H         5.4850   -0.2740    5.0010 c3        1 1QX     -0.324600
     17 C2H         6.8350   -0.5930    5.1990 c3        1 1QX     -0.091400
     18 C3H         7.1020   -0.7600    6.4840 c3        1 1QX      0.167800
     19 N1          8.4390   -1.5760    6.6960 n2        1 1QX     -0.457200
     20 N2          8.9040   -1.9570    8.1860 n1        1 1QX      0.229000
     21 N3          9.4310   -2.3890    9.8840 n1        1 1QX     -0.108000
     22 H1         -8.9730    0.6470   -5.2510 hc        1 1QX      0.030700
     23 H2         -8.5220   -0.9150   -5.5140 hc        1 1QX      0.030700
     24 H3         -8.7480   -0.0080   -6.9790 hc        1 1QX      0.030700
     25 H4         -6.4690   -0.3830   -6.2660 hc        1 1QX      0.037700
     26 H5         -6.8540    1.1910   -6.1720 hc        1 1QX      0.037700
     27 H6         -6.7360   -0.6080   -3.9470 hc        1 1QX      0.038700
     28 H7         -7.0210    0.9950   -3.8970 hc        1 1QX      0.038700
     29 H8         -4.7360    1.7190   -4.6970 hc        1 1QX      0.038700
     30 H9         -4.4840    0.0120   -4.9520 hc        1 1QX      0.038700
     31 H10        -4.9160    1.2280   -2.2910 hc        1 1QX      0.037700
     32 H11        -4.6540   -0.5310   -2.7000 hc        1 1QX      0.037700
     33 H12        -2.6190    0.0450   -3.5860 hc        1 1QX      0.038700
     34 H13        -2.7280    1.5950   -3.3190 hc        1 1QX      0.038700
     35 H14        -2.5780   -0.6580   -1.2030 hc        1 1QX      0.036700
     36 H15        -2.7520    0.8420   -0.8860 hc        1 1QX      0.036700
     37 H16        -0.4470   -0.1520   -2.1090 hc        1 1QX      0.037700
     38 H17        -0.6860    1.4510   -1.6450 hc        1 1QX      0.037700
     39 H18        -0.8760    0.8900    0.5770 hc        1 1QX      0.034700
     40 H19        -0.7420   -0.7190    0.1270 hc        1 1QX      0.034700
     41 H20         1.4550    1.1220   -0.3430 hc        1 1QX      0.037700
     42 H21         1.6330   -0.5380   -0.7370 hc        1 1QX      0.037700
     43 H22         1.2320   -0.8760    1.7010 hc        1 1QX      0.037700
     44 H23         1.2530    0.8630    1.9780 hc        1 1QX      0.037700
     45 H24         3.5110   -0.8140    0.9610 h1        1 1QX      0.027700
     46 H25         3.5650    0.8500    0.9070 h1        1 1QX      0.027700
     47 H27         4.9740   -0.9120    5.3270 hc        1 1QX      0.067200
     48 H28         5.2930    0.4790    5.3860 hc        1 1QX      0.067200
     49 H29         7.4400    0.2180    4.8110 hc        1 1QX      0.066700
     50 H30         7.0510   -1.4780    4.6880 hc        1 1QX      0.066700
     51 H31         6.0770   -1.4690    7.0940 h1        1 1QX      0.053700
     52 H32         7.2260    0.3570    7.0320 h1        1 1QX      0.053700
     53 O3          6.0310    1.1650    2.6210 o         1 1QX     -0.860500
@<TRIPOS>BOND
     1    1    2 1   
     2    1   22 1   
     3    1   23 1   
     4    1   24 1   
     5    2    3 1   
     6    2   25 1   
     7    2   26 1   
     8    3    4 1   
     9    3   27 1   
    10    3   28 1   
    11    4    5 1   
    12    4   29 1   
    13    4   30 1   
    14    5    6 1   
    15    5   31 1   
    16    5   32 1   
    17    6    7 1   
    18    6   33 1   
    19    6   34 1   
    20    7    8 1   
    21    7   35 1   
    22    7   36 1   
    23    8    9 1   
    24    8   37 1   
    25    8   38 1   
    26    9   10 1   
    27    9   39 1   
    28    9   40 1   
    29   10   11 1   
    30   10   41 1   
    31   10   42 1   
    32   11   12 1   
    33   11   43 1   
    34   11   44 1   
    35   12   13 1   
    36   12   45 1   
    37   12   46 1   
    38   13   14 1   
    39   14   15 1   
    40   14   16 1   
    41   14   53 1   
    42   16   17 1   
    43   16   47 1   
    44   16   48 1   
    45   17   18 1   
    46   17   49 1   
    47   17   50 1   
    48   18   19 1   
    49   18   51 1   
    50   18   52 1   
    51   19   20 1   
    52   20   21 3   
@<TRIPOS>SUBSTRUCTURE
     1 1QX         1 TEMP              0 ****  ****    0 ROOT
