@<TRIPOS>MOLECULE
1QX
   53    50     1     0     0
SMALL
bcc


@<TRIPOS>ATOM
      1 C12        -0.1390   -0.2740    0.5350 c3        1 1QX     -0.210000
      2 C11         1.2720    0.1840    0.2750 c3        1 1QX     -0.159000
      3 C10         2.1510   -0.0050    1.4920 c3        1 1QX     -0.155000
      4 C9          3.5700    0.4570    1.2220 c3        1 1QX     -0.133000
      5 C8          4.4430    0.2600    2.4050 c2        1 1QX     -0.168000
      6 C7          5.2980    1.1720    2.8610 c2        1 1QX     -0.221000
      7 C6          6.3180   -0.7530    5.8200 c3        1 1QX     -0.212000
      8 C5          7.7870   -0.5960    5.5230 c3        1 1QX     -0.158000
      9 C4          8.5620   -0.1820    6.7580 c3        1 1QX     -0.126000
     10 C3         10.0070   -0.0130    6.4660 c2        1 1QX     -0.204000
     11 C2         10.9840   -0.5200    7.2130 c2        1 1QX     -0.196000
     12 C1         15.2220    0.0200    6.1910 c3        1 1QX     -0.064000
     13 O1         14.3230   -0.2230    7.2380 os        1 1QX     -0.433000
     14 P1         15.2470   -0.4140    8.6270 p3        1 1QX      0.311000
     15 O2         15.8920   -1.9620    8.3180 os        1 1QX     -0.161000
     16 C1H        13.9580   -0.8360    9.7180 c3        1 1QX     -0.319000
     17 C2H        14.1500    0.0960   10.8750 c3        1 1QX     -0.163000
     18 C3H        13.0870   -0.1300   11.9440 c3        1 1QX     -0.080000
     19 N1         13.1820    0.6330   13.1750 n2        1 1QX     -0.293000
     20 N2         13.4380    1.8550   13.1900 n2        1 1QX      0.226000
     21 N3         13.6580    2.9460   13.4270 n1        1 1QX     -0.111000
     22 H1         -0.1580   -1.3580    0.8050 hc        1 1QX      0.071000
     23 H2         -0.7700   -0.1260   -0.3740 hc        1 1QX      0.071000
     24 H3         -0.5920    0.3030    1.3770 hc        1 1QX      0.071000
     25 H4          1.7020   -0.3890   -0.5890 hc        1 1QX      0.077000
     26 H5          1.2680    1.2680   -0.0190 hc        1 1QX      0.077000
     27 H6          1.7270    0.5720    2.3560 hc        1 1QX      0.081000
     28 H7          2.1570   -1.0870    1.7880 hc        1 1QX      0.081000
     29 H8          3.5600    1.5360    0.9120 hc        1 1QX      0.084000
     30 H9          3.9930   -0.1290    0.3600 hc        1 1QX      0.084000
     31 H10         4.3500   -0.7250    2.8940 ha        1 1QX      0.119000
     32 H11         5.4160    2.1620    2.4010 ha        1 1QX      0.115000
     33 H12         5.9430    0.9820    3.7320 ha        1 1QX      0.115000
     34 H13         5.7630   -1.0510    4.8960 hc        1 1QX      0.067333
     35 H14         6.1550   -1.5370    6.5980 hc        1 1QX      0.067333
     36 H15         5.8860    0.2060    6.1940 hc        1 1QX      0.067333
     37 H16         7.9270    0.1740    4.7180 hc        1 1QX      0.079000
     38 H17         8.1990   -1.5620    5.1310 hc        1 1QX      0.079000
     39 H18         8.1520    0.7910    7.1440 hc        1 1QX      0.076500
     40 H19         8.4090   -0.9460    7.5660 hc        1 1QX      0.076500
     41 H20        12.0530   -0.3670    6.9840 ha        1 1QX      0.134500
     42 H21        10.2310    0.5870    5.5690 ha        1 1QX      0.114000
     43 H22        10.7910   -1.1250    8.1100 ha        1 1QX      0.134500
     44 H23        15.7410    0.9990    6.3580 h1        1 1QX      0.060333
     45 H24        15.9840   -0.8010    6.1320 h1        1 1QX      0.060333
     46 H25        14.6130    0.0700    5.2500 h1        1 1QX      0.060333
     47 H27        14.0650   -1.9040   10.0120 hc        1 1QX      0.087000
     48 H28        12.9780   -0.6890    9.2100 hc        1 1QX      0.087000
     49 H29        14.1090    1.1500   10.4950 hc        1 1QX      0.090000
     50 H30        15.1760   -0.0650   11.2990 hc        1 1QX      0.090000
     51 H31        12.0690    0.0220   11.4790 h1        1 1QX      0.095000
     52 H32        13.1450   -1.1950   12.3100 h1        1 1QX      0.095000
     53 O3         16.9790   -1.9410    7.7950 o         1 1QX     -0.637000
@<TRIPOS>BOND
     1    1    2 1   
     2    1   22 1   
     3    1   23 1   
     4    1   24 1   
     5    2    3 1   
     6    2   25 1   
     7    2   26 1   
     8    3    4 1   
     9    3   27 1   
    10    3   28 1   
    11    4    5 1   
    12    4   29 1   
    13    4   30 1   
    14    5    6 1   
    15    5   31 1   
    16    6   32 1   
    17    6   33 1   
    18    7    8 1   
    19    7   34 1   
    20    7   35 1   
    21    7   36 1   
    22    8    9 1   
    23    8   37 1   
    24    8   38 1   
    25    9   10 1   
    26    9   39 1   
    27    9   40 1   
    28   10   11 1   
    29   10   42 1   
    30   11   41 1   
    31   11   43 1   
    32   12   13 1   
    33   12   44 1   
    34   12   45 1   
    35   12   46 1   
    36   13   14 1   
    37   14   15 1   
    38   14   16 1   
    39   15   53 1   
    40   16   17 1   
    41   16   47 1   
    42   16   48 1   
    43   17   18 1   
    44   17   49 1   
    45   17   50 1   
    46   18   19 1   
    47   18   51 1   
    48   18   52 1   
    49   19   20 1   
    50   20   21 1   
@<TRIPOS>SUBSTRUCTURE
     1 1QX         1 TEMP              0 ****  ****    0 ROOT
