@<TRIPOS>MOLECULE
1QY
   59    58     1     0     0
SMALL
bcc


@<TRIPOS>ATOM
      1 C14       -13.8000    0.6100    0.0170 c3        1 1QY     -0.092100
      2 C13       -12.5570   -0.1210   -0.4210 c3        1 1QY     -0.080400
      3 C12       -11.3040    0.5550    0.0940 c3        1 1QY     -0.079400
      4 C11       -10.0580   -0.1820   -0.3480 c3        1 1QY     -0.079400
      5 C10        -8.8060    0.4940    0.1680 c3        1 1QY     -0.078400
      6 C9         -7.5600   -0.2430   -0.2750 c3        1 1QY     -0.079400
      7 C8         -6.3080    0.4340    0.2410 c3        1 1QY     -0.078400
      8 C7         -5.0620   -0.3030   -0.2010 c3        1 1QY     -0.079400
      9 C6         -3.8100    0.3730    0.3140 c3        1 1QY     -0.078400
     10 C5         -2.5640   -0.3640   -0.1280 c3        1 1QY     -0.079400
     11 C4         -1.3110    0.3110    0.3870 c3        1 1QY     -0.077400
     12 C3         -0.0640   -0.4250   -0.0550 c3        1 1QY     -0.079400
     13 C2          1.1870    0.2500    0.4600 c3        1 1QY     -0.083400
     14 C1          2.4310   -0.4990    0.0090 c3        1 1QY      0.169400
     15 O1          3.5670    0.1460    0.4980 os        1 1QY     -0.586200
     16 P1          4.9520   -0.6570    0.0230 p5        1 1QY      1.334600
     17 O2          5.0300   -0.5030   -1.4490 o         1 1QY     -0.860500
     18 C1H         6.0960    0.3430    0.7860 c3        1 1QY     -0.324600
     19 C2H         7.4150    0.0350    0.1440 c3        1 1QY     -0.091400
     20 C3H         8.5140    0.9470    0.6690 c3        1 1QY      0.167800
     21 N1          9.8740    0.7040    0.2240 n2        1 1QY     -0.457200
     22 N2         10.1610    0.4700   -0.9680 n1        1 1QY      0.229000
     23 N3         10.6370    0.2410   -1.9760 n1        1 1QY     -0.108000
     24 H1        -14.7110    0.0960   -0.3740 hc        1 1QY      0.031033
     25 H2        -13.8640    0.6450    1.1310 hc        1 1QY      0.031033
     26 H3        -13.7960    1.6590   -0.3660 hc        1 1QY      0.031033
     27 H4        -12.5900   -1.1790   -0.0490 hc        1 1QY      0.037700
     28 H5        -12.5220   -0.1670   -1.5420 hc        1 1QY      0.037700
     29 H6        -11.2670    1.6130   -0.2790 hc        1 1QY      0.038700
     30 H7        -11.3360    0.6010    1.2150 hc        1 1QY      0.038700
     31 H8        -10.0940   -1.2400    0.0250 hc        1 1QY      0.038700
     32 H9        -10.0260   -0.2280   -1.4690 hc        1 1QY      0.038700
     33 H10        -8.7690    1.5520   -0.2050 hc        1 1QY      0.038700
     34 H11        -8.8380    0.5400    1.2880 hc        1 1QY      0.038700
     35 H12        -7.5960   -1.3000    0.0980 hc        1 1QY      0.038700
     36 H13        -7.5280   -0.2880   -1.3950 hc        1 1QY      0.038700
     37 H14        -6.2710    1.4910   -0.1320 hc        1 1QY      0.037700
     38 H15        -6.3400    0.4790    1.3620 hc        1 1QY      0.037700
     39 H16        -5.0980   -1.3610    0.1710 hc        1 1QY      0.038700
     40 H17        -5.0300   -0.3490   -1.3220 hc        1 1QY      0.038700
     41 H18        -3.7730    1.4300   -0.0580 hc        1 1QY      0.036700
     42 H19        -3.8410    0.4180    1.4350 hc        1 1QY      0.036700
     43 H20        -2.6000   -1.4220    0.2440 hc        1 1QY      0.037700
     44 H21        -2.5310   -0.4100   -1.2490 hc        1 1QY      0.037700
     45 H22        -1.2740    1.3690    0.0150 hc        1 1QY      0.034700
     46 H23        -1.3420    0.3570    1.5080 hc        1 1QY      0.034700
     47 H24        -0.1010   -1.4830    0.3170 hc        1 1QY      0.037700
     48 H25        -0.0320   -0.4710   -1.1760 hc        1 1QY      0.037700
     49 H26         1.2380    1.3060    0.0870 hc        1 1QY      0.037700
     50 H27         1.1700    0.2940    1.5790 hc        1 1QY      0.037700
     51 H28         2.4200   -1.5570    0.3970 h1        1 1QY      0.027700
     52 H29         2.4900   -0.5300   -1.1160 h1        1 1QY      0.027700
     53 H31         5.8300    1.4190    0.6560 hc        1 1QY      0.067200
     54 H32         6.1300    0.1440    1.8820 hc        1 1QY      0.067200
     55 H33         7.6640   -1.0410    0.3450 hc        1 1QY      0.066700
     56 H34         7.2950    0.1510   -0.9690 hc        1 1QY      0.066700
     57 H35         8.2280    2.0180    0.4550 h1        1 1QY      0.053700
     58 H36         8.5970    0.8280    1.7880 h1        1 1QY      0.053700
     59 O3          4.9020   -1.9850    0.6750 o         1 1QY     -0.860500
@<TRIPOS>BOND
     1    1    2 1   
     2    1   24 1   
     3    1   25 1   
     4    1   26 1   
     5    2    3 1   
     6    2   27 1   
     7    2   28 1   
     8    3    4 1   
     9    3   29 1   
    10    3   30 1   
    11    4    5 1   
    12    4   31 1   
    13    4   32 1   
    14    5    6 1   
    15    5   33 1   
    16    5   34 1   
    17    6    7 1   
    18    6   35 1   
    19    6   36 1   
    20    7    8 1   
    21    7   37 1   
    22    7   38 1   
    23    8    9 1   
    24    8   39 1   
    25    8   40 1   
    26    9   10 1   
    27    9   41 1   
    28    9   42 1   
    29   10   11 1   
    30   10   43 1   
    31   10   44 1   
    32   11   12 1   
    33   11   45 1   
    34   11   46 1   
    35   12   13 1   
    36   12   47 1   
    37   12   48 1   
    38   13   14 1   
    39   13   49 1   
    40   13   50 1   
    41   14   15 1   
    42   14   51 1   
    43   14   52 1   
    44   15   16 1   
    45   16   17 1   
    46   16   18 1   
    47   16   59 1   
    48   18   19 1   
    49   18   53 1   
    50   18   54 1   
    51   19   20 1   
    52   19   55 1   
    53   19   56 1   
    54   20   21 1   
    55   20   57 1   
    56   20   58 1   
    57   21   22 1   
    58   22   23 3   
@<TRIPOS>SUBSTRUCTURE
     1 1QY         1 TEMP              0 ****  ****    0 ROOT
