@<TRIPOS>MOLECULE
1QY
   59    57     1     0     0
SMALL
bcc


@<TRIPOS>ATOM
      1 C14        -9.6680    0.1040   -6.0330 c3        1 1QY     -0.210000
      2 C13        -8.2000   -0.0260   -6.1820 c3        1 1QY     -0.159000
      3 C12        -7.5290    0.2150   -4.8320 c3        1 1QY     -0.158000
      4 C11        -5.8710    0.3350   -5.0410 c3        1 1QY     -0.158000
      5 C10        -5.2040   -0.1000   -3.8410 c3        1 1QY     -0.157000
      6 C9         -3.8590    0.5490   -3.7400 c3        1 1QY     -0.158000
      7 C8         -3.3120    0.4400   -2.1180 c3        1 1QY     -0.157000
      8 C7         -1.7560    0.7420   -2.0330 c3        1 1QY     -0.158000
      9 C6         -1.2960    0.4610   -0.7130 c3        1 1QY     -0.157000
     10 C5          0.2780    0.6600   -0.6510 c3        1 1QY     -0.158000
     11 C4          0.8150    0.2640    0.7640 c3        1 1QY     -0.156000
     12 C3          2.2990    0.6730    0.8690 c3        1 1QY     -0.158000
     13 C2          2.8260    0.4430    2.3440 c3        1 1QY     -0.162000
     14 C1          4.2830    0.5770    2.3510 c3        1 1QY      0.019000
     15 O1          4.7010    0.6130    3.5680 os        1 1QY     -0.749000
     16 P1          6.4580    0.4850    3.8870 p3        1 1QY      2.614000
     17 O2          7.0450    1.8430    3.9610 o         1 1QY     -1.178500
     18 C1H         6.7230   -0.4070    5.5140 c2        1 1QY     -0.830000
     19 C2H         8.0530   -1.1040    5.4910 c3        1 1QY     -0.166000
     20 C3H         8.3690   -1.6410    6.8360 c3        1 1QY     -0.068000
     21 N1          7.5900   -2.8140    7.0960 n2        1 1QY     -0.307000
     22 N2          7.7170   -3.4310    8.2490 n2        1 1QY      0.237000
     23 N3          7.8360   -4.0110    9.3330 n1        1 1QY     -0.110000
     24 H1         -9.8870    0.9830   -5.6120 hc        1 1QY      0.070333
     25 H2        -10.0610    0.0560   -6.8550 hc        1 1QY      0.070333
     26 H3         -9.9840   -0.5820   -5.4980 hc        1 1QY      0.070333
     27 H4         -7.8290    0.7400   -6.9350 hc        1 1QY      0.077000
     28 H5         -7.9670   -0.9900   -6.5180 hc        1 1QY      0.077000
     29 H6         -7.8530    1.0110   -4.4670 hc        1 1QY      0.078000
     30 H7         -7.7930   -0.7660   -4.0330 hc        1 1QY      0.078000
     31 H8         -5.6500   -0.1200   -5.6470 hc        1 1QY      0.078000
     32 H9         -5.6200    1.3150   -5.2360 hc        1 1QY      0.078000
     33 H10        -5.7660    0.1600   -3.0320 hc        1 1QY      0.078000
     34 H11        -5.0960   -1.0360   -3.8640 hc        1 1QY      0.078000
     35 H12        -3.2010    0.0750   -4.3540 hc        1 1QY      0.078000
     36 H13        -3.9210    1.3480   -3.9600 hc        1 1QY      0.078000
     37 H14        -3.4780   -0.4580   -1.7850 hc        1 1QY      0.077000
     38 H15        -3.8000    1.0870   -1.5640 hc        1 1QY      0.077000
     39 H16        -1.1760    0.0550   -2.8050 hc        1 1QY      0.078000
     40 H17        -1.5860    1.7230   -2.2450 hc        1 1QY      0.078000
     41 H18        -1.7630    1.1250   -0.0280 hc        1 1QY      0.076000
     42 H19        -1.5150   -0.4390   -0.4870 hc        1 1QY      0.076000
     43 H20         0.7740    0.0090   -1.4410 hc        1 1QY      0.077000
     44 H21         0.4880    1.5940   -0.8200 hc        1 1QY      0.077000
     45 H22         0.2460    0.7730    1.5190 hc        1 1QY      0.074500
     46 H23         0.7380   -0.6410    0.8790 hc        1 1QY      0.074500
     47 H24         2.8500    0.1100    0.2260 hc        1 1QY      0.076500
     48 H25         2.4060    1.7700    0.5980 hc        1 1QY      0.076500
     49 H26         2.4270    1.1220    2.9530 hc        1 1QY      0.077500
     50 H27         2.5900   -0.4030    2.6300 hc        1 1QY      0.077500
     51 H28         4.5620    1.4880    1.8470 h1        1 1QY      0.067500
     52 H29         4.7390   -0.2930    1.8250 h1        1 1QY      0.067500
     53 H31         5.9780   -1.0920    5.6520 ha        1 1QY      0.110000
     54 H32         6.7100    0.3510    6.3610 ha        1 1QY      0.110000
     55 H33         8.0310   -1.7180    4.9410 hc        1 1QY      0.107500
     56 H34         8.7890   -0.4200    5.2260 hc        1 1QY      0.107500
     57 H35         8.1050   -0.7720    7.6820 h1        1 1QY      0.093000
     58 H36         9.1560   -1.8250    6.8780 h1        1 1QY      0.093000
     59 O3          7.0600   -0.2070    2.8900 o         1 1QY     -1.178500
@<TRIPOS>BOND
     1    1    2 1   
     2    1   24 1   
     3    1   25 1   
     4    1   26 1   
     5    2    3 1   
     6    2   27 1   
     7    2   28 1   
     8    3    4 1   
     9    3   29 1   
    10    3   30 1   
    11    4    5 1   
    12    4   31 1   
    13    4   32 1   
    14    5    6 1   
    15    5   33 1   
    16    5   34 1   
    17    6    7 1   
    18    6   35 1   
    19    6   36 1   
    20    7    8 1   
    21    7   37 1   
    22    7   38 1   
    23    8    9 1   
    24    8   39 1   
    25    8   40 1   
    26    9   10 1   
    27    9   41 1   
    28    9   42 1   
    29   10   11 1   
    30   10   43 1   
    31   10   44 1   
    32   11   12 1   
    33   11   45 1   
    34   11   46 1   
    35   12   13 1   
    36   12   47 1   
    37   12   48 1   
    38   13   14 1   
    39   13   49 1   
    40   13   50 1   
    41   14   15 1   
    42   14   51 1   
    43   14   52 1   
    44   15   16 1   
    45   16   17 1   
    46   16   59 1   
    47   18   19 1   
    48   18   53 1   
    49   18   54 1   
    50   19   20 1   
    51   19   55 1   
    52   19   56 1   
    53   20   21 1   
    54   20   57 1   
    55   20   58 1   
    56   21   22 1   
    57   22   23 1   
@<TRIPOS>SUBSTRUCTURE
     1 1QY         1 TEMP              0 ****  ****    0 ROOT
