@<TRIPOS>MOLECULE
1QY
   59    58     1     0     0
SMALL
bcc


@<TRIPOS>ATOM
      1 C14         0.1780   -0.0200   -0.1250 c3        1 1QY     -0.092100
      2 C13         1.6830   -0.0010   -0.0490 c3        1 1QY     -0.080400
      3 C12         2.1680   -0.0180    1.3850 c3        1 1QY     -0.079400
      4 C11         3.6790    0.0010    1.4570 c3        1 1QY     -0.079400
      5 C10         4.1630   -0.0150    2.8910 c3        1 1QY     -0.078400
      6 C9          5.6750    0.0030    2.9620 c3        1 1QY     -0.079400
      7 C8          6.1580   -0.0140    4.3960 c3        1 1QY     -0.078400
      8 C7          7.6700    0.0030    4.4680 c3        1 1QY     -0.079400
      9 C6          8.1540   -0.0140    5.9020 c3        1 1QY     -0.078400
     10 C5          9.6660    0.0010    5.9740 c3        1 1QY     -0.079400
     11 C4         10.1510   -0.0150    7.4070 c3        1 1QY     -0.077400
     12 C3         11.6630   -0.0030    7.4790 c3        1 1QY     -0.079400
     13 C2         12.1470   -0.0190    8.9120 c3        1 1QY     -0.083400
     14 C1         13.6670   -0.0090    8.9700 c3        1 1QY      0.169400
     15 O1         14.0830   -0.0240   10.3020 os        1 1QY     -0.586200
     16 P1         15.7500   -0.0190   10.3990 p5        1 1QY      1.334600
     17 O2         16.1870    1.2970    9.8770 o         1 1QY     -0.860500
     18 C1H        15.9020   -0.0680   12.0920 c3        1 1QY     -0.324600
     19 C2H        17.3130    0.3400   12.3950 c3        1 1QY     -0.091400
     20 C3H        17.5500    0.4390   13.8950 c3        1 1QY      0.167800
     21 N1         18.8980    0.7200   14.3560 n2        1 1QY     -0.457200
     22 N2         19.6200    1.5930   13.8350 n1        1 1QY      0.229000
     23 N3         20.4330    2.3210   13.5130 n1        1 1QY     -0.108000
     24 H1         -0.2540    0.8710    0.3920 hc        1 1QY      0.031033
     25 H2         -0.1580   -0.0070   -1.1900 hc        1 1QY      0.031033
     26 H3         -0.2300   -0.9380    0.3620 hc        1 1QY      0.031033
     27 H4          2.0750    0.9160   -0.5650 hc        1 1QY      0.037700
     28 H5          2.0990   -0.8890   -0.5940 hc        1 1QY      0.037700
     29 H6          1.7540    0.8710    1.9310 hc        1 1QY      0.038700
     30 H7          1.7780   -0.9340    1.9020 hc        1 1QY      0.038700
     31 H8          4.0930   -0.8870    0.9100 hc        1 1QY      0.038700
     32 H9          4.0690    0.9180    0.9390 hc        1 1QY      0.038700
     33 H10         3.7500    0.8740    3.4370 hc        1 1QY      0.038700
     34 H11         3.7730   -0.9310    3.4090 hc        1 1QY      0.038700
     35 H12         6.0880   -0.8860    2.4160 hc        1 1QY      0.038700
     36 H13         6.0650    0.9180    2.4450 hc        1 1QY      0.038700
     37 H14         5.7680   -0.9290    4.9150 hc        1 1QY      0.037700
     38 H15         5.7470    0.8760    4.9420 hc        1 1QY      0.037700
     39 H16         8.0820   -0.8870    3.9220 hc        1 1QY      0.038700
     40 H17         8.0610    0.9180    3.9500 hc        1 1QY      0.038700
     41 H18         7.7440    0.8770    6.4480 hc        1 1QY      0.036700
     42 H19         7.7620   -0.9280    6.4210 hc        1 1QY      0.036700
     43 H20        10.0770   -0.8900    5.4280 hc        1 1QY      0.037700
     44 H21        10.0590    0.9150    5.4550 hc        1 1QY      0.037700
     45 H22         9.7420    0.8760    7.9530 hc        1 1QY      0.034700
     46 H23         9.7580   -0.9290    7.9270 hc        1 1QY      0.034700
     47 H24        12.0730   -0.8940    6.9350 hc        1 1QY      0.037700
     48 H25        12.0570    0.9100    6.9600 hc        1 1QY      0.037700
     49 H26        11.7520    0.8720    9.4640 hc        1 1QY      0.037700
     50 H27        11.7650   -0.9310    9.4390 hc        1 1QY      0.037700
     51 H28        14.0760    0.9160    8.4740 h1        1 1QY      0.027700
     52 H29        14.0900   -0.9140    8.4480 h1        1 1QY      0.027700
     53 H31        15.6900   -1.0910   12.4810 hc        1 1QY      0.067200
     54 H32        15.1740    0.6250   12.5750 hc        1 1QY      0.067200
     55 H33        18.0060   -0.4130   11.9340 hc        1 1QY      0.066700
     56 H34        17.5050    1.3280   11.8930 hc        1 1QY      0.066700
     57 H35        17.3280   -0.5560   14.3770 h1        1 1QY      0.053700
     58 H36        16.8340    1.2000   14.3250 h1        1 1QY      0.053700
     59 O3         16.2010   -1.2950    9.7970 o         1 1QY     -0.860500
@<TRIPOS>BOND
     1    1    2 1   
     2    1   24 1   
     3    1   25 1   
     4    1   26 1   
     5    2    3 1   
     6    2   27 1   
     7    2   28 1   
     8    3    4 1   
     9    3   29 1   
    10    3   30 1   
    11    4    5 1   
    12    4   31 1   
    13    4   32 1   
    14    5    6 1   
    15    5   33 1   
    16    5   34 1   
    17    6    7 1   
    18    6   35 1   
    19    6   36 1   
    20    7    8 1   
    21    7   37 1   
    22    7   38 1   
    23    8    9 1   
    24    8   39 1   
    25    8   40 1   
    26    9   10 1   
    27    9   41 1   
    28    9   42 1   
    29   10   11 1   
    30   10   43 1   
    31   10   44 1   
    32   11   12 1   
    33   11   45 1   
    34   11   46 1   
    35   12   13 1   
    36   12   47 1   
    37   12   48 1   
    38   13   14 1   
    39   13   49 1   
    40   13   50 1   
    41   14   15 1   
    42   14   51 1   
    43   14   52 1   
    44   15   16 1   
    45   16   17 1   
    46   16   18 1   
    47   16   59 1   
    48   18   19 1   
    49   18   53 1   
    50   18   54 1   
    51   19   20 1   
    52   19   55 1   
    53   19   56 1   
    54   20   21 1   
    55   20   57 1   
    56   20   58 1   
    57   21   22 1   
    58   22   23 3   
@<TRIPOS>SUBSTRUCTURE
     1 1QY         1 TEMP              0 ****  ****    0 ROOT
