@<TRIPOS>MOLECULE
1QY
   59    58     1     0     0
SMALL
bcc


@<TRIPOS>ATOM
      1 C14         0.1780   -0.0150   -0.1240 c3        1 1QY     -0.092100
      2 C13         1.6830    0.0120   -0.0480 c3        1 1QY     -0.080400
      3 C12         2.1680   -0.0180    1.3850 c3        1 1QY     -0.079400
      4 C11         3.6800    0.0090    1.4570 c3        1 1QY     -0.079400
      5 C10         4.1640   -0.0210    2.8900 c3        1 1QY     -0.078400
      6 C9          5.6760    0.0050    2.9620 c3        1 1QY     -0.079400
      7 C8          6.1600   -0.0240    4.3950 c3        1 1QY     -0.078400
      8 C7          7.6720    0.0020    4.4670 c3        1 1QY     -0.079400
      9 C6          8.1560   -0.0270    5.9000 c3        1 1QY     -0.078400
     10 C5          9.6680   -0.0010    5.9720 c3        1 1QY     -0.079400
     11 C4         10.1540   -0.0300    7.4050 c3        1 1QY     -0.077400
     12 C3         11.6660   -0.0040    7.4770 c3        1 1QY     -0.079400
     13 C2         12.1500   -0.0330    8.9090 c3        1 1QY     -0.083400
     14 C1         13.6690   -0.0060    8.9670 c3        1 1QY      0.169400
     15 O1         14.0860   -0.0340   10.2990 os        1 1QY     -0.586200
     16 P1         15.7530   -0.0100   10.3960 p5        1 1QY      1.334600
     17 O2         16.1730    1.3190    9.8910 o         1 1QY     -0.860500
     18 C1H        15.9060   -0.0780   12.0880 c3        1 1QY     -0.324600
     19 C2H        17.3100    0.3490   12.3970 c3        1 1QY     -0.091400
     20 C3H        17.5450    0.4330   13.8990 c3        1 1QY      0.167800
     21 N1         18.8870    0.7300   14.3640 n2        1 1QY     -0.457200
     22 N2         19.5950    1.6220   13.8540 n1        1 1QY      0.229000
     23 N3         20.3950    2.3690   13.5430 n1        1 1QY     -0.108000
     24 H1         -0.2590    0.8680    0.4030 hc        1 1QY      0.031033
     25 H2         -0.1580    0.0080   -1.1890 hc        1 1QY      0.031033
     26 H3         -0.2240   -0.9410    0.3530 hc        1 1QY      0.031033
     27 H4          2.0700    0.9360   -0.5540 hc        1 1QY      0.037700
     28 H5          2.1040   -0.8680   -0.6030 hc        1 1QY      0.037700
     29 H6          1.7500    0.8620    1.9420 hc        1 1QY      0.038700
     30 H7          1.7840   -0.9420    1.8930 hc        1 1QY      0.038700
     31 H8          4.0980   -0.8710    0.9000 hc        1 1QY      0.038700
     32 H9          4.0640    0.9330    0.9500 hc        1 1QY      0.038700
     33 H10         3.7460    0.8590    3.4470 hc        1 1QY      0.038700
     34 H11         3.7800   -0.9450    3.3980 hc        1 1QY      0.038700
     35 H12         6.0940   -0.8750    2.4050 hc        1 1QY      0.038700
     36 H13         6.0600    0.9290    2.4540 hc        1 1QY      0.038700
     37 H14         5.7760   -0.9480    4.9030 hc        1 1QY      0.037700
     38 H15         5.7420    0.8560    4.9520 hc        1 1QY      0.037700
     39 H16         8.0900   -0.8780    3.9100 hc        1 1QY      0.038700
     40 H17         8.0560    0.9260    3.9590 hc        1 1QY      0.038700
     41 H18         7.7390    0.8530    6.4570 hc        1 1QY      0.036700
     42 H19         7.7730   -0.9510    6.4080 hc        1 1QY      0.036700
     43 H20        10.0870   -0.8810    5.4160 hc        1 1QY      0.037700
     44 H21        10.0530    0.9230    5.4640 hc        1 1QY      0.037700
     45 H22         9.7360    0.8500    7.9620 hc        1 1QY      0.034700
     46 H23         9.7700   -0.9540    7.9130 hc        1 1QY      0.034700
     47 H24        12.0840   -0.8840    6.9210 hc        1 1QY      0.037700
     48 H25        12.0500    0.9200    6.9690 hc        1 1QY      0.037700
     49 H26        11.7450    0.8470    9.4730 hc        1 1QY      0.037700
     50 H27        11.7790   -0.9560    9.4250 hc        1 1QY      0.037700
     51 H28        14.0690    0.9300    8.4830 h1        1 1QY      0.027700
     52 H29        14.1030   -0.8990    8.4340 h1        1 1QY      0.027700
     53 H31        15.7110   -1.1090   12.4630 hc        1 1QY      0.067200
     54 H32        15.1660    0.5960   12.5800 hc        1 1QY      0.067200
     55 H33        18.0150   -0.3860   11.9270 hc        1 1QY      0.066700
     56 H34        17.4850    1.3470   11.9080 hc        1 1QY      0.066700
     57 H35        17.3390   -0.5720   14.3670 h1        1 1QY      0.053700
     58 H36        16.8160    1.1750   14.3370 h1        1 1QY      0.053700
     59 O3         16.2190   -1.2720    9.7780 o         1 1QY     -0.860500
@<TRIPOS>BOND
     1    1    2 1   
     2    1   24 1   
     3    1   25 1   
     4    1   26 1   
     5    2    3 1   
     6    2   27 1   
     7    2   28 1   
     8    3    4 1   
     9    3   29 1   
    10    3   30 1   
    11    4    5 1   
    12    4   31 1   
    13    4   32 1   
    14    5    6 1   
    15    5   33 1   
    16    5   34 1   
    17    6    7 1   
    18    6   35 1   
    19    6   36 1   
    20    7    8 1   
    21    7   37 1   
    22    7   38 1   
    23    8    9 1   
    24    8   39 1   
    25    8   40 1   
    26    9   10 1   
    27    9   41 1   
    28    9   42 1   
    29   10   11 1   
    30   10   43 1   
    31   10   44 1   
    32   11   12 1   
    33   11   45 1   
    34   11   46 1   
    35   12   13 1   
    36   12   47 1   
    37   12   48 1   
    38   13   14 1   
    39   13   49 1   
    40   13   50 1   
    41   14   15 1   
    42   14   51 1   
    43   14   52 1   
    44   15   16 1   
    45   16   17 1   
    46   16   18 1   
    47   16   59 1   
    48   18   19 1   
    49   18   53 1   
    50   18   54 1   
    51   19   20 1   
    52   19   55 1   
    53   19   56 1   
    54   20   21 1   
    55   20   57 1   
    56   20   58 1   
    57   21   22 1   
    58   22   23 3   
@<TRIPOS>SUBSTRUCTURE
     1 1QY         1 TEMP              0 ****  ****    0 ROOT
