@<TRIPOS>MOLECULE
1QZ
   57    60     1     0     0
SMALL
bcc


@<TRIPOS>ATOM
      1 CAA        -0.3770    0.6380    0.4440 c3        1 1QZ     -0.087100
      2 CAQ         1.0570    0.2440    0.1870 c3        1 1QZ     -0.138700
      3 C4          1.8310    0.0850    1.4700 ca        1 1QZ      0.538600
      4 N3          2.0670    1.1910    2.2010 nb        1 1QZ     -0.792000
      5 C2          2.7710    1.0190    3.3890 ca        1 1QZ      0.914900
      6 NAD         2.9190    2.1370    4.2130 nv        1 1QZ     -0.930500
      7 N1          3.2890   -0.1760    3.8510 nb        1 1QZ     -0.831000
      8 C6          3.0530   -1.2830    3.0800 ca        1 1QZ      0.744200
      9 NAE         3.6070   -2.4860    3.4660 nv        1 1QZ     -0.953500
     10 C5          2.2880   -1.1990    1.8560 ca        1 1QZ     -0.336600
     11 CAF         2.0330   -2.3500    1.1070 cg        1 1QZ     -0.078000
     12 CAG         1.8290   -3.3570    0.4870 c1        1 1QZ     -0.157100
     13 CBF         1.5660   -4.5610   -0.2560 c3        1 1QZ      0.069700
     14 CAC         2.5140   -4.6950   -1.4420 c3        1 1QZ     -0.086100
     15 CAZ         1.6620   -5.7780    0.6230 ca        1 1QZ     -0.042300
     16 CAP         0.6500   -6.7450    0.5810 ca        1 1QZ     -0.146000
     17 CAO         2.7560   -5.9480    1.4700 ca        1 1QZ     -0.149000
     18 CAX         2.8290   -7.0970    2.2780 ca        1 1QZ      0.122100
     19 OAU         3.9450   -7.1600    3.0910 os        1 1QZ     -0.329900
     20 CAN         1.8290   -8.0730    2.2350 ca        1 1QZ     -0.194000
     21 CAY         0.7340   -7.8920    1.3780 cp        1 1QZ     -0.006000
     22 CBC        -0.3430   -8.8850    1.3370 cp        1 1QZ     -0.037000
     23 CBE        -0.0770  -10.2470    1.0050 ca        1 1QZ      0.001000
     24 CAL         1.2150  -10.7340    0.6590 ca        1 1QZ     -0.230300
     25 CAI         1.3740  -12.0720    0.3490 ca        1 1QZ      0.380200
     26 NAR         0.3490  -12.9830    0.3530 nb        1 1QZ     -0.663000
     27 CAM        -0.8570  -12.5410    0.6660 ca        1 1QZ      0.421200
     28 CBD        -1.1520  -11.1760    1.0010 ca        1 1QZ     -0.162300
     29 CAK        -2.4650  -10.7460    1.3130 ca        1 1QZ     -0.098000
     30 CAH        -2.7010   -9.4260    1.6140 ca        1 1QZ     -0.133000
     31 CAJ        -1.6390   -8.4950    1.6230 ca        1 1QZ     -0.100000
     32 CAB         4.0620   -8.3170    3.9100 c3        1 1QZ      0.112700
     33 H1         -0.9270    0.7080   -0.5250 hc        1 1QZ      0.040367
     34 H2         -0.8860   -0.1200    1.0870 hc        1 1QZ      0.040367
     35 H3         -0.4320    1.6290    0.9560 hc        1 1QZ      0.040367
     36 H4          1.0890   -0.7210   -0.3860 hc        1 1QZ      0.061700
     37 H5          1.5550    1.0270   -0.4480 hc        1 1QZ      0.061700
     38 H6          2.7710    3.0250    3.7940 hn        1 1QZ      0.429300
     39 H7          3.6120    2.0880    4.9220 hn        1 1QZ      0.429300
     40 H8          4.0020   -2.5750    4.3710 hn        1 1QZ      0.437800
     41 H9          3.2750   -3.3070    3.0180 hn        1 1QZ      0.437800
     42 H10         0.5090   -4.4910   -0.6600 hc        1 1QZ      0.069700
     43 H11         2.2530   -5.6050   -2.0330 hc        1 1QZ      0.044700
     44 H12         2.4320   -3.7980   -2.1000 hc        1 1QZ      0.044700
     45 H13         3.5700   -4.7870   -1.0900 hc        1 1QZ      0.044700
     46 H14        -0.2160   -6.6070   -0.0830 ha        1 1QZ      0.140000
     47 H15         3.5590   -5.1980    1.5140 ha        1 1QZ      0.153000
     48 H16         1.8800   -8.9730    2.8640 ha        1 1QZ      0.147000
     49 H17         2.0680  -10.0400    0.6340 ha        1 1QZ      0.152000
     50 H18         2.3590  -12.4880    0.0730 h4        1 1QZ      0.023100
     51 H19        -1.6770  -13.2830    0.6610 h4        1 1QZ      0.022100
     52 H20        -3.2820  -11.4820    1.3060 ha        1 1QZ      0.138000
     53 H21        -3.7160   -9.0780    1.8540 ha        1 1QZ      0.138000
     54 H22        -1.8530   -7.4420    1.8700 ha        1 1QZ      0.142000
     55 H23         4.1190   -9.2400    3.2840 h1        1 1QZ      0.046033
     56 H24         5.0240   -8.1520    4.4580 h1        1 1QZ      0.046033
     57 H25         3.2060   -8.3820    4.6260 h1        1 1QZ      0.046033
@<TRIPOS>BOND
     1    1    2 1   
     2    1   33 1   
     3    1   34 1   
     4    1   35 1   
     5    2    3 1   
     6    2   36 1   
     7    2   37 1   
     8    3    4 ar  
     9    3   10 ar  
    10    4    5 ar  
    11    5    6 1   
    12    5    7 ar  
    13    6   38 1   
    14    6   39 1   
    15    7    8 ar  
    16    8    9 1   
    17    8   10 ar  
    18    9   40 1   
    19    9   41 1   
    20   10   11 1   
    21   11   12 3   
    22   12   13 1   
    23   13   14 1   
    24   13   15 1   
    25   13   42 1   
    26   14   43 1   
    27   14   44 1   
    28   14   45 1   
    29   15   16 ar  
    30   15   17 ar  
    31   16   21 ar  
    32   16   46 1   
    33   17   18 ar  
    34   17   47 1   
    35   18   19 1   
    36   18   20 ar  
    37   19   32 1   
    38   20   21 ar  
    39   20   48 1   
    40   21   22 1   
    41   22   23 ar  
    42   22   31 ar  
    43   23   24 ar  
    44   23   28 ar  
    45   24   25 ar  
    46   24   49 1   
    47   25   26 ar  
    48   25   50 1   
    49   26   27 ar  
    50   27   28 ar  
    51   27   51 1   
    52   28   29 ar  
    53   29   30 ar  
    54   29   52 1   
    55   30   31 ar  
    56   30   53 1   
    57   31   54 1   
    58   32   55 1   
    59   32   56 1   
    60   32   57 1   
@<TRIPOS>SUBSTRUCTURE
     1 1QZ         1 TEMP              0 ****  ****    0 ROOT
