@<TRIPOS>MOLECULE
1QZ
   57    60     1     0     0
SMALL
bcc


@<TRIPOS>ATOM
      1 CAA        -0.3660    0.0880    0.6860 c3        1 1QZ     -0.088100
      2 CAQ         1.0710   -0.2040    0.3340 c3        1 1QZ     -0.138700
      3 C4          1.9810   -0.0320    1.5230 ca        1 1QZ      0.540600
      4 N3          2.1640    1.2160    1.9960 nb        1 1QZ     -0.792000
      5 C2          3.0070    1.3530    3.0940 ca        1 1QZ      0.916900
      6 NAD         3.1250    2.6260    3.6550 nh        1 1QZ     -0.933500
      7 N1          3.7060    0.3290    3.7050 nb        1 1QZ     -0.833000
      8 C6          3.4880   -0.9320    3.2180 ca        1 1QZ      0.746200
      9 NAE         4.0990   -1.9960    3.8490 nh        1 1QZ     -0.958500
     10 C5          2.6150   -1.1660    2.0910 ca        1 1QZ     -0.337600
     11 CAF         2.4230   -2.4590    1.5960 cg        1 1QZ     -0.079000
     12 CAG         2.2590   -3.5710    1.1770 c1        1 1QZ     -0.157100
     13 CBF         2.0710   -4.9090    0.6840 c3        1 1QZ      0.070700
     14 CAC         0.7300   -5.4760    1.1340 c3        1 1QZ     -0.086100
     15 CAZ         2.1810   -4.9710   -0.8150 ca        1 1QZ     -0.045300
     16 CAP         3.0180   -5.9230   -1.4100 ca        1 1QZ     -0.148000
     17 CAO         1.4440   -4.0950   -1.6100 ca        1 1QZ     -0.139000
     18 CAX         1.5480   -4.1840   -3.0100 ca        1 1QZ      0.124100
     19 OAU         0.7750   -3.2720   -3.7040 os        1 1QZ     -0.326900
     20 CAN         2.3730   -5.1390   -3.6120 ca        1 1QZ     -0.194000
     21 CAY         3.1120   -6.0120   -2.8020 cp        1 1QZ     -0.009000
     22 CBC         4.0090   -7.0000   -3.4090 cp        1 1QZ     -0.035000
     23 CBE         3.5150   -7.9800   -4.3220 ca        1 1QZ      0.001000
     24 CAL         2.1430   -8.0980   -4.6810 ca        1 1QZ     -0.229300
     25 CAI         1.7590   -9.0830   -5.5720 ca        1 1QZ      0.380200
     26 NAR         2.6300   -9.9730   -6.1470 nb        1 1QZ     -0.663000
     27 CAM         3.9060   -9.8770   -5.8150 ca        1 1QZ      0.420200
     28 CBD         4.4280   -8.9020   -4.8990 ca        1 1QZ     -0.162300
     29 CAK         5.8020   -8.8490   -4.5610 ca        1 1QZ     -0.098000
     30 CAH         6.2530   -7.9060   -3.6690 ca        1 1QZ     -0.133000
     31 CAJ         5.3540   -6.9830   -3.0900 ca        1 1QZ     -0.101000
     32 CAB         0.8990   -3.2940   -5.1220 c3        1 1QZ      0.112700
     33 H1         -1.0150   -0.0880   -0.2060 hc        1 1QZ      0.041367
     34 H2         -0.7150   -0.5760    1.5130 hc        1 1QZ      0.041367
     35 H3         -0.4890    1.1500    1.0100 hc        1 1QZ      0.041367
     36 H4          1.4060    0.4840   -0.4890 hc        1 1QZ      0.063200
     37 H5          1.1610   -1.2550   -0.0530 hc        1 1QZ      0.063200
     38 H6          2.8300    3.3940    3.0990 hn        1 1QZ      0.430800
     39 H7          3.8810    2.7820    4.2770 hn        1 1QZ      0.430800
     40 H8          4.7950   -1.8300    4.5330 hn        1 1QZ      0.436800
     41 H9          4.0900   -2.8710    3.3840 hn        1 1QZ      0.436800
     42 H10         2.8900   -5.5550    1.1300 hc        1 1QZ      0.065700
     43 H11         0.6540   -5.4420    2.2470 hc        1 1QZ      0.044700
     44 H12         0.6350   -6.5360    0.7960 hc        1 1QZ      0.044700
     45 H13        -0.1100   -4.8840    0.6980 hc        1 1QZ      0.044700
     46 H14         3.6060   -6.6100   -0.7820 ha        1 1QZ      0.138000
     47 H15         0.7910   -3.3340   -1.1590 ha        1 1QZ      0.156000
     48 H16         2.4590   -5.2110   -4.7060 ha        1 1QZ      0.146000
     49 H17         1.4060   -7.4120   -4.2410 ha        1 1QZ      0.153000
     50 H18         0.7050   -9.2100   -5.8750 h4        1 1QZ      0.023100
     51 H19         4.5990  -10.6030   -6.2820 h4        1 1QZ      0.022100
     52 H20         6.4930   -9.5710   -5.0220 ha        1 1QZ      0.137000
     53 H21         7.3180   -7.8560   -3.3950 ha        1 1QZ      0.137000
     54 H22         5.7410   -6.2350   -2.3790 ha        1 1QZ      0.141000
     55 H23         1.9520   -3.0880   -5.4310 h1        1 1QZ      0.045367
     56 H24         0.2200   -2.4680   -5.4540 h1        1 1QZ      0.045367
     57 H25         0.5550   -4.2750   -5.5320 h1        1 1QZ      0.045367
@<TRIPOS>BOND
     1    1    2 1   
     2    1   33 1   
     3    1   34 1   
     4    1   35 1   
     5    2    3 1   
     6    2   36 1   
     7    2   37 1   
     8    3    4 ar  
     9    3   10 ar  
    10    4    5 ar  
    11    5    6 1   
    12    5    7 ar  
    13    6   38 1   
    14    6   39 1   
    15    7    8 ar  
    16    8    9 1   
    17    8   10 ar  
    18    9   40 1   
    19    9   41 1   
    20   10   11 1   
    21   11   12 3   
    22   12   13 1   
    23   13   14 1   
    24   13   15 1   
    25   13   42 1   
    26   14   43 1   
    27   14   44 1   
    28   14   45 1   
    29   15   16 ar  
    30   15   17 ar  
    31   16   21 ar  
    32   16   46 1   
    33   17   18 ar  
    34   17   47 1   
    35   18   19 1   
    36   18   20 ar  
    37   19   32 1   
    38   20   21 ar  
    39   20   48 1   
    40   21   22 1   
    41   22   23 ar  
    42   22   31 ar  
    43   23   24 ar  
    44   23   28 ar  
    45   24   25 ar  
    46   24   49 1   
    47   25   26 ar  
    48   25   50 1   
    49   26   27 ar  
    50   27   28 ar  
    51   27   51 1   
    52   28   29 ar  
    53   29   30 ar  
    54   29   52 1   
    55   30   31 ar  
    56   30   53 1   
    57   31   54 1   
    58   32   55 1   
    59   32   56 1   
    60   32   57 1   
@<TRIPOS>SUBSTRUCTURE
     1 1QZ         1 TEMP              0 ****  ****    0 ROOT
