@<TRIPOS>MOLECULE
1QZ
   57    47     1     0     0
SMALL
bcc


@<TRIPOS>ATOM
      1 CAA         2.5460    4.1690    2.4860 c3        1 1QZ     -0.205000
      2 CAQ         1.5890    3.6450    1.3450 c3        1 1QZ     -0.125000
      3 C4          0.6410    4.7590    0.9260 c2        1 1QZ      0.116000
      4 N3          0.8240    6.0020    1.3880 n1        1 1QZ     -0.265000
      5 C2          0.0020    7.0310    0.9520 c1        1 1QZ      0.198000
      6 NAD         0.1850    8.3730    1.4680 n2        1 1QZ     -0.329000
      7 N1         -1.0050    6.7720    0.0390 n1        1 1QZ     -0.304000
      8 C6         -1.1880    5.5300   -0.4240 c1        1 1QZ      0.225000
      9 NAE        -2.2410    5.2610   -1.3390 n3        1 1QZ     -0.354000
     10 C5         -0.3720    4.5030    0.0090 c2        1 1QZ     -0.207000
     11 CAF        -0.5100    3.1040   -0.6150 c1        1 1QZ     -0.089000
     12 CAG        -0.6220    2.0030   -1.1110 c1        1 1QZ     -0.179000
     13 CBF        -0.7620    0.6210   -1.7350 c2        1 1QZ      0.048000
     14 CAC         0.0450    0.5590   -3.0060 c3        1 1QZ     -0.203000
     15 CAZ        -0.2560   -0.4360   -0.7520 c1        1 1QZ     -0.035000
     16 CAP        -0.9530   -1.6440   -0.6020 c1        1 1QZ     -0.149000
     17 CAO         0.9450   -0.2330   -0.0700 c1        1 1QZ     -0.189000
     18 CAX         1.4570   -1.2390    0.7680 c1        1 1QZ      0.034000
     19 OAU         2.6240   -0.9970    1.5280 o         1 1QZ     -0.210000
     20 CAN         0.7570   -2.4550    0.9190 c1        1 1QZ     -0.149000
     21 CAY        -0.4380   -2.6570    0.2400 c1        1 1QZ      0.034000
     22 CBC        -1.1140   -4.0420    0.2760 c1        1 1QZ     -0.035000
     23 CBE        -1.0670   -5.2290   -0.5110 c2        1 1QZ      0.002000
     24 CAL        -0.2140   -5.3070   -1.6050 c2        1 1QZ     -0.163000
     25 CAI        -0.2160   -6.4510   -2.4140 c1        1 1QZ     -0.086000
     26 NAR        -1.0590   -7.4950   -2.1260 n1        1 1QZ     -0.137000
     27 CAM        -1.9060   -7.4200   -1.0420 c1        1 1QZ     -0.045000
     28 CBD        -1.9070   -6.2720   -0.2260 c1        1 1QZ     -0.097000
     29 CAK        -2.8200   -6.1710    0.8460 c1        1 1QZ     -0.115500
     30 CAH        -2.8660   -5.0070    1.6200 c1        1 1QZ     -0.115500
     31 CAJ        -2.0090   -3.9430    1.3300 c1        1 1QZ     -0.100000
     32 CAB         3.8390   -1.4030    0.8780 c3        1 1QZ     -0.080000
     33 H1          3.0250    3.4180    2.8780 hc        1 1QZ      0.079667
     34 H2          3.1940    4.8090    2.1040 hc        1 1QZ      0.079667
     35 H3          2.0080    4.6210    3.1880 hc        1 1QZ      0.079667
     36 H4          2.1290    3.3600    0.5660 hc        1 1QZ      0.103500
     37 H5          1.0630    2.8740    1.6830 hc        1 1QZ      0.103500
     38 H6          0.9420    8.5790    1.9820 hn        1 1QZ      0.226000
     39 H7         -0.4380    9.0380    1.2690 hn        1 1QZ      0.226000
     40 H8         -2.9050    5.8740   -1.4660 hn        1 1QZ      0.232500
     41 H9         -2.2560    4.4740   -1.7970 hn        1 1QZ      0.232500
     42 H10        -1.7010    0.4510   -1.9400 ha        1 1QZ      0.112000
     43 H11        -0.0500   -0.3300   -3.4130 hc        1 1QZ      0.081667
     44 H12        -0.2820    1.2460   -3.6380 hc        1 1QZ      0.081667
     45 H13         0.9940    0.7270   -2.8020 hc        1 1QZ      0.081667
     46 H14        -1.8130   -1.7890   -1.0890 ha        1 1QZ      0.147500
     47 H15         1.4320    0.6320   -0.1660 ha        1 1QZ      0.150000
     48 H16         1.1260   -3.1810    1.5230 ha        1 1QZ      0.147500
     49 H17         0.3860   -4.5680   -1.8100 ha        1 1QZ      0.152000
     50 H18         0.3680   -6.5040   -3.1650 ha        1 1QZ      0.159000
     51 H19        -2.5030   -8.1620   -0.8360 ha        1 1QZ      0.159000
     52 H20        -3.4330   -6.9320    1.0530 ha        1 1QZ      0.137500
     53 H21        -3.5090   -4.9360    2.3720 ha        1 1QZ      0.137500
     54 H22        -2.0400   -3.1240    1.8710 ha        1 1QZ      0.142000
     55 H23         4.1070   -0.7260    0.2460 h1        1 1QZ      0.086333
     56 H24         4.5390   -1.5210    1.5430 h1        1 1QZ      0.086333
     57 H25         3.6890   -2.2610    0.4020 h1        1 1QZ      0.086333
@<TRIPOS>BOND
     1    1    2 1   
     2    1   33 1   
     3    1   34 1   
     4    1   35 1   
     5    2    3 1   
     6    2   36 1   
     7    2   37 1   
     8    3    4 1   
     9    3   10 1   
    10    5    7 1   
    11    6   38 1   
    12    6   39 1   
    13    8    9 1   
    14    8   10 1   
    15    9   40 1   
    16    9   41 1   
    17   10   11 1   
    18   11   12 1   
    19   13   14 1   
    20   13   15 1   
    21   13   42 1   
    22   14   43 1   
    23   14   44 1   
    24   14   45 1   
    25   15   17 1   
    26   16   21 1   
    27   16   46 1   
    28   17   47 1   
    29   18   20 1   
    30   19   32 1   
    31   20   48 1   
    32   22   23 1   
    33   22   31 1   
    34   23   24 1   
    35   23   28 1   
    36   24   25 1   
    37   24   49 1   
    38   25   50 1   
    39   26   27 1   
    40   27   51 1   
    41   29   30 1   
    42   29   52 1   
    43   30   53 1   
    44   31   54 1   
    45   32   55 1   
    46   32   56 1   
    47   32   57 1   
@<TRIPOS>SUBSTRUCTURE
     1 1QZ         1 TEMP              0 ****  ****    0 ROOT
