@<TRIPOS>MOLECULE
1QZ
   57    60     1     0     0
SMALL
bcc


@<TRIPOS>ATOM
      1 CAA         5.5410    3.3490   -0.3170 c3        1 1QZ     -0.087100
      2 CAQ         5.4080    2.1210   -1.1840 c3        1 1QZ     -0.138700
      3 C4          5.5310    0.8540   -0.3770 ca        1 1QZ      0.538600
      4 N3          6.7300    0.5710    0.1680 nb        1 1QZ     -0.792000
      5 C2          6.8170   -0.5960    0.9200 ca        1 1QZ      0.914900
      6 NAD         8.0200   -0.8390    1.5870 nh        1 1QZ     -0.930500
      7 N1          5.7970   -1.5100    1.1090 nb        1 1QZ     -0.831000
      8 C6          4.5940   -1.2100    0.5280 ca        1 1QZ      0.744200
      9 NAE         3.5650   -2.1230    0.6340 nh        1 1QZ     -0.953500
     10 C5          4.4050    0.0070   -0.2290 ca        1 1QZ     -0.336600
     11 CAF         3.1560    0.3040   -0.7810 cg        1 1QZ     -0.078000
     12 CAG         2.0720    0.5320   -1.2410 c1        1 1QZ     -0.157100
     13 CBF         0.7710    0.8220   -1.7840 c3        1 1QZ      0.069700
     14 CAC         0.7020    0.4730   -3.2660 c3        1 1QZ     -0.086100
     15 CAZ        -0.3090    0.0960   -1.0310 ca        1 1QZ     -0.042300
     16 CAP        -1.4500    0.7910   -0.6130 ca        1 1QZ     -0.146000
     17 CAO        -0.1810   -1.2650   -0.7560 ca        1 1QZ     -0.149000
     18 CAX        -1.2080   -1.9250   -0.0580 ca        1 1QZ      0.122100
     19 OAU        -0.9740   -3.2680    0.1760 os        1 1QZ     -0.329900
     20 CAN        -2.3560   -1.2410    0.3540 ca        1 1QZ     -0.194000
     21 CAY        -2.4740    0.1270    0.0710 cp        1 1QZ     -0.006000
     22 CBC        -3.6520    0.8740    0.5190 cp        1 1QZ     -0.037000
     23 CBE        -4.9660    0.4900    0.1120 ca        1 1QZ      0.001000
     24 CAL        -5.2300   -0.5960   -0.7690 ca        1 1QZ     -0.230300
     25 CAI        -6.5380   -0.8900   -1.1090 ca        1 1QZ      0.380200
     26 NAR        -7.6220   -0.1900   -0.6440 nb        1 1QZ     -0.663000
     27 CAM        -7.3890    0.8260    0.1690 ca        1 1QZ      0.421200
     28 CBD        -6.0770    1.2330    0.5910 ca        1 1QZ     -0.162300
     29 CAK        -5.8760    2.3400    1.4510 ca        1 1QZ     -0.098000
     30 CAH        -4.6010    2.7010    1.8180 ca        1 1QZ     -0.133000
     31 CAJ        -3.4890    1.9680    1.3480 ca        1 1QZ     -0.100000
     32 CAB        -1.9990   -3.9730    0.8660 c3        1 1QZ      0.112700
     33 H1          5.4050    4.2650   -0.9410 hc        1 1QZ      0.040700
     34 H2          4.7670    3.3510    0.4870 hc        1 1QZ      0.040700
     35 H3          6.5480    3.3920    0.1620 hc        1 1QZ      0.040700
     36 H4          4.4150    2.1310   -1.7060 hc        1 1QZ      0.061700
     37 H5          6.2050    2.1300   -1.9760 hc        1 1QZ      0.061700
     38 H6          8.8160   -0.3350    1.2730 hn        1 1QZ      0.429300
     39 H7          8.1770   -1.7630    1.9150 hn        1 1QZ      0.429300
     40 H8          3.6450   -2.8800    1.2690 hn        1 1QZ      0.437800
     41 H9          2.6550   -1.8170    0.3830 hn        1 1QZ      0.437800
     42 H10         0.5960    1.9370   -1.6790 hc        1 1QZ      0.069700
     43 H11        -0.2950    0.7610   -3.6750 hc        1 1QZ      0.044700
     44 H12         1.4960    1.0230   -3.8260 hc        1 1QZ      0.044700
     45 H13         0.8500   -0.6230   -3.4170 hc        1 1QZ      0.044700
     46 H14        -1.5490    1.8670   -0.8240 ha        1 1QZ      0.140000
     47 H15         0.7080   -1.8250   -1.0790 ha        1 1QZ      0.153000
     48 H16        -3.1600   -1.7520    0.9010 ha        1 1QZ      0.147000
     49 H17        -4.3930   -1.1830   -1.1740 ha        1 1QZ      0.152000
     50 H18        -6.7850   -1.7220   -1.7910 h4        1 1QZ      0.023100
     51 H19        -8.2700    1.3860    0.5340 h4        1 1QZ      0.022100
     52 H20        -6.7510    2.9000    1.8130 ha        1 1QZ      0.138000
     53 H21        -4.4300    3.5620    2.4810 ha        1 1QZ      0.138000
     54 H22        -2.4780    2.2760    1.6580 ha        1 1QZ      0.142000
     55 H23        -2.9530   -3.9520    0.2850 h1        1 1QZ      0.046033
     56 H24        -1.5990   -5.0170    0.9290 h1        1 1QZ      0.046033
     57 H25        -2.1530   -3.5480    1.8870 h1        1 1QZ      0.046033
@<TRIPOS>BOND
     1    1    2 1   
     2    1   33 1   
     3    1   34 1   
     4    1   35 1   
     5    2    3 1   
     6    2   36 1   
     7    2   37 1   
     8    3    4 ar  
     9    3   10 ar  
    10    4    5 ar  
    11    5    6 1   
    12    5    7 ar  
    13    6   38 1   
    14    6   39 1   
    15    7    8 ar  
    16    8    9 1   
    17    8   10 ar  
    18    9   40 1   
    19    9   41 1   
    20   10   11 1   
    21   11   12 3   
    22   12   13 1   
    23   13   14 1   
    24   13   15 1   
    25   13   42 1   
    26   14   43 1   
    27   14   44 1   
    28   14   45 1   
    29   15   16 ar  
    30   15   17 ar  
    31   16   21 ar  
    32   16   46 1   
    33   17   18 ar  
    34   17   47 1   
    35   18   19 1   
    36   18   20 ar  
    37   19   32 1   
    38   20   21 ar  
    39   20   48 1   
    40   21   22 1   
    41   22   23 ar  
    42   22   31 ar  
    43   23   24 ar  
    44   23   28 ar  
    45   24   25 ar  
    46   24   49 1   
    47   25   26 ar  
    48   25   50 1   
    49   26   27 ar  
    50   27   28 ar  
    51   27   51 1   
    52   28   29 ar  
    53   29   30 ar  
    54   29   52 1   
    55   30   31 ar  
    56   30   53 1   
    57   31   54 1   
    58   32   55 1   
    59   32   56 1   
    60   32   57 1   
@<TRIPOS>SUBSTRUCTURE
     1 1QZ         1 TEMP              0 ****  ****    0 ROOT
