@<TRIPOS>MOLECULE
1QZ
   59    62     1     0     0
SMALL
bcc


@<TRIPOS>ATOM
      1 CAA         0.7800    1.5460    0.0690 c3        1 1QZ     -0.101100
      2 CAQ         1.0090    0.0730    0.2840 c3        1 1QZ     -0.148700
      3 C4          1.7780   -0.2870    1.5210 ca        1 1QZ      0.533600
      4 N3          2.2500    0.6580    2.3490 nb        1 1QZ     -0.635000
      5 C2          2.9460    0.2220    3.4610 ca        1 1QZ      0.724900
      6 NAD         3.4590    1.2970    4.3600 n4        1 1QZ     -0.813300
      7 N1          3.2110   -1.0600    3.8210 nb        1 1QZ     -0.663000
      8 C6          2.7250   -2.0150    2.9660 ca        1 1QZ      0.484200
      9 NAE         2.9900   -3.4230    3.3140 n4        1 1QZ     -0.821300
     10 C5          1.9970   -1.6950    1.7880 ca        1 1QZ     -0.027600
     11 CAF         1.5390   -2.7020    0.9530 cg        1 1QZ     -0.320000
     12 CAG         1.1950   -3.6370    0.2720 c1        1 1QZ      0.147900
     13 CBF         0.9160   -4.9150   -0.3470 c3        1 1QZ      0.018700
     14 CAC         1.5550   -5.0360   -1.7220 c3        1 1QZ     -0.092100
     15 CAZ         1.4330   -5.9600    0.6120 ca        1 1QZ     -0.062300
     16 CAP         0.7180   -7.1230    0.8820 ca        1 1QZ     -0.121000
     17 CAO         2.6300   -5.6920    1.2930 ca        1 1QZ     -0.257000
     18 CAX         3.0270   -6.5430    2.3310 ca        1 1QZ      0.104100
     19 OAU         4.0850   -6.0730    3.0960 os        1 1QZ     -0.421900
     20 CAN         2.3260   -7.7220    2.6050 ca        1 1QZ     -0.160000
     21 CAY         1.1840   -8.0300    1.8530 cp        1 1QZ      0.059000
     22 CBC         0.4400   -9.2640    2.1070 cp        1 1QZ     -0.101000
     23 CBE         1.0910  -10.5330    2.0810 ca        1 1QZ      0.017000
     24 CAL         2.4650  -10.7130    1.7540 ca        1 1QZ     -0.267300
     25 CAI         2.9990  -11.9890    1.7530 ca        1 1QZ      0.415200
     26 NAR         2.2800  -13.1170    2.0540 nb        1 1QZ     -0.646000
     27 CAM         1.0000  -12.9670    2.3460 ca        1 1QZ      0.444200
     28 CBD         0.3270  -11.6950    2.3720 ca        1 1QZ     -0.170300
     29 CAK        -1.0530  -11.5880    2.6650 ca        1 1QZ     -0.054000
     30 CAH        -1.6650  -10.3550    2.6610 ca        1 1QZ     -0.146000
     31 CAJ        -0.9170   -9.1940    2.3770 ca        1 1QZ     -0.075000
     32 CAB         4.9230   -7.0810    3.6740 c3        1 1QZ      0.117700
     33 H1          0.1950    1.6880   -0.8750 hc        1 1QZ      0.066700
     34 H2          0.1990    1.9950    0.9090 hc        1 1QZ      0.066700
     35 H3          1.7460    2.0980   -0.0350 hc        1 1QZ      0.066700
     36 H4          0.0190   -0.4630    0.3430 hc        1 1QZ      0.103200
     37 H5          1.5720   -0.3590   -0.5920 hc        1 1QZ      0.103200
     38 H6          4.0940    1.9080    3.8230 hn        1 1QZ      0.495800
     39 H7          3.9640    0.8930    5.1620 hn        1 1QZ      0.495800
     40 H8          2.9510   -3.5740    4.3320 hn        1 1QZ      0.495467
     41 H9          2.2890   -4.0380    2.8510 hn        1 1QZ      0.495467
     42 H10        -0.2060   -5.0290   -0.4630 hc        1 1QZ      0.122700
     43 H11         1.3090   -6.0390   -2.1510 hc        1 1QZ      0.069700
     44 H12         1.1610   -4.2470   -2.4060 hc        1 1QZ      0.069700
     45 H13         2.6660   -4.9430   -1.6550 hc        1 1QZ      0.069700
     46 H14        -0.2090   -7.3520    0.3310 ha        1 1QZ      0.168000
     47 H15         3.2910   -4.8780    0.9630 ha        1 1QZ      0.130000
     48 H16         2.6650   -8.4120    3.3960 ha        1 1QZ      0.175000
     49 H17         3.0840   -9.8480    1.4860 ha        1 1QZ      0.134000
     50 H18         4.0590  -12.1750    1.4990 h4        1 1QZ      0.034100
     51 H19         0.4280  -13.8870    2.5770 h4        1 1QZ      0.042100
     52 H20        -1.6250  -12.5030    2.8900 ha        1 1QZ      0.158000
     53 H21        -2.7400  -10.2610    2.8780 ha        1 1QZ      0.154000
     54 H22        -1.4310   -8.2190    2.3830 ha        1 1QZ      0.129000
     55 H23         5.1840   -7.8600    2.9180 h1        1 1QZ      0.065367
     56 H24         5.8350   -6.5170    3.9960 h1        1 1QZ      0.065367
     57 H25         4.4050   -7.5380    4.5520 h1        1 1QZ      0.065367
     58 HAD3        2.6620    1.8570    4.7010 hn        1 1QZ      0.495800
     59 HAE3        3.9250   -3.7150    2.9770 hn        1 1QZ      0.495467
@<TRIPOS>BOND
     1    1    2 1   
     2    1   33 1   
     3    1   34 1   
     4    1   35 1   
     5    2    3 1   
     6    2   36 1   
     7    2   37 1   
     8    3    4 ar  
     9    3   10 ar  
    10    4    5 ar  
    11    5    6 1   
    12    5    7 ar  
    13    6   38 1   
    14    6   39 1   
    15    6   58 1   
    16    7    8 ar  
    17    8    9 1   
    18    8   10 ar  
    19    9   40 1   
    20    9   41 1   
    21    9   59 1   
    22   10   11 1   
    23   11   12 3   
    24   12   13 1   
    25   13   14 1   
    26   13   15 1   
    27   13   42 1   
    28   14   43 1   
    29   14   44 1   
    30   14   45 1   
    31   15   16 ar  
    32   15   17 ar  
    33   16   21 ar  
    34   16   46 1   
    35   17   18 ar  
    36   17   47 1   
    37   18   19 1   
    38   18   20 ar  
    39   19   32 1   
    40   20   21 ar  
    41   20   48 1   
    42   21   22 1   
    43   22   23 ar  
    44   22   31 ar  
    45   23   24 ar  
    46   23   28 ar  
    47   24   25 ar  
    48   24   49 1   
    49   25   26 ar  
    50   25   50 1   
    51   26   27 ar  
    52   27   28 ar  
    53   27   51 1   
    54   28   29 ar  
    55   29   30 ar  
    56   29   52 1   
    57   30   31 ar  
    58   30   53 1   
    59   31   54 1   
    60   32   55 1   
    61   32   56 1   
    62   32   57 1   
@<TRIPOS>SUBSTRUCTURE
     1 1QZ         1 TEMP              0 ****  ****    0 ROOT
