@<TRIPOS>MOLECULE
1R0
   54    57     1     0     0
SMALL
bcc


@<TRIPOS>ATOM
      1 CAA        -0.6280   -0.0580   -0.2320 c3        1 1R0     -0.087100
      2 CAP         0.8680    0.0810   -0.0920 c3        1 1R0     -0.138700
      3 C4          1.2890    0.1550    1.3530 ca        1 1R0      0.539600
      4 N3          0.9200    1.2420    2.0580 nb        1 1R0     -0.791000
      5 C2          1.3390    1.3010    3.3840 ca        1 1R0      0.917900
      6 NAC         1.0600    2.4700    4.0910 nv        1 1R0     -0.933500
      7 N1          2.0580    0.3220    4.0450 nb        1 1R0     -0.830000
      8 C6          2.4070   -0.7790    3.3110 ca        1 1R0      0.741200
      9 NAD         3.0660   -1.8140    3.9460 nv        1 1R0     -0.951500
     10 C5          2.0520   -0.9000    1.9150 ca        1 1R0     -0.338600
     11 CAF         2.4510   -2.0170    1.1770 cg        1 1R0     -0.083000
     12 CAE         2.8020   -2.9810    0.5560 c1        1 1R0     -0.158100
     13 CAQ         3.2320   -4.1140   -0.2080 c3        1 1R0      0.050000
     14 CAW         3.1840   -5.4010    0.5500 ca        1 1R0     -0.046300
     15 CAN         4.2080   -6.3360    0.3860 ca        1 1R0     -0.153000
     16 CAM         2.1040   -5.6840    1.3930 ca        1 1R0     -0.191000
     17 CAY         2.0650   -6.9090    2.0660 ca        1 1R0      0.124100
     18 OAU         1.0520   -7.2970    2.9220 os        1 1R0     -0.326900
     19 CAB        -0.0090   -6.3650    3.1020 c3        1 1R0      0.111700
     20 CAO         3.0920   -7.8570    1.9070 ca        1 1R0     -0.147000
     21 CAZ         4.1660   -7.5630    1.0660 cp        1 1R0     -0.012000
     22 CBC         5.2410   -8.5380    0.8600 cp        1 1R0     -0.034000
     23 CBE         5.9960   -9.0480    1.9590 ca        1 1R0      0.002000
     24 CAK         5.7930   -8.6430    3.3090 ca        1 1R0     -0.227300
     25 CAH         6.5780   -9.1920    4.3060 ca        1 1R0      0.380200
     26 NAR         7.5620  -10.1190    4.0790 nb        1 1R0     -0.663000
     27 CAL         7.7640  -10.4990    2.8280 ca        1 1R0      0.420200
     28 CBD         7.0180  -10.0010    1.7060 ca        1 1R0     -0.162300
     29 CAJ         7.2800  -10.4300    0.3820 ca        1 1R0     -0.098000
     30 CAG         6.5490   -9.9160   -0.6620 ca        1 1R0     -0.134000
     31 CAI         5.5310   -8.9670   -0.4220 ca        1 1R0     -0.101000
     32 H1         -1.1530    0.8350    0.1860 hc        1 1R0      0.040367
     33 H2         -0.8970   -0.1550   -1.3120 hc        1 1R0      0.040367
     34 H3         -0.9940   -0.9660    0.3060 hc        1 1R0      0.040367
     35 H4          1.3770   -0.7920   -0.5810 hc        1 1R0      0.063200
     36 H5          1.2120    1.0100   -0.6220 hc        1 1R0      0.063200
     37 H6          0.3660    3.0720    3.7150 hn        1 1R0      0.432300
     38 H7          1.1450    2.4390    5.0790 hn        1 1R0      0.432300
     39 H8          3.4470   -1.6640    4.8490 hn        1 1R0      0.435300
     40 H9          3.4940   -2.4980    3.3690 hn        1 1R0      0.435300
     41 H10         2.5730   -4.2140   -1.1190 hc        1 1R0      0.069200
     42 H11         4.2820   -3.9300   -0.5790 hc        1 1R0      0.069200
     43 H12         5.0590   -6.1140   -0.2750 ha        1 1R0      0.138000
     44 H13         1.3060   -4.9370    1.5170 ha        1 1R0      0.150000
     45 H14         0.3710   -5.4130    3.5450 h1        1 1R0      0.046700
     46 H15        -0.5280   -6.1660    2.1330 h1        1 1R0      0.046700
     47 H16        -0.6940   -6.8880    3.8170 h1        1 1R0      0.046700
     48 H17         3.0340   -8.8160    2.4420 ha        1 1R0      0.158000
     49 H18         5.0180   -7.8990    3.5430 ha        1 1R0      0.154000
     50 H19         6.4510   -8.9040    5.3650 h4        1 1R0      0.023100
     51 H20         8.5610  -11.2460    2.6560 h4        1 1R0      0.021100
     52 H21         8.0740  -11.1720    0.2090 ha        1 1R0      0.137000
     53 H22         6.7440  -10.2380   -1.6960 ha        1 1R0      0.137000
     54 H23         4.9580   -8.5720   -1.2760 ha        1 1R0      0.140000
@<TRIPOS>BOND
     1    1    2 1   
     2    1   32 1   
     3    1   33 1   
     4    1   34 1   
     5    2    3 1   
     6    2   35 1   
     7    2   36 1   
     8    3    4 ar  
     9    3   10 ar  
    10    4    5 ar  
    11    5    6 1   
    12    5    7 ar  
    13    6   37 1   
    14    6   38 1   
    15    7    8 ar  
    16    8    9 1   
    17    8   10 ar  
    18    9   39 1   
    19    9   40 1   
    20   10   11 1   
    21   11   12 3   
    22   12   13 1   
    23   13   14 1   
    24   13   41 1   
    25   13   42 1   
    26   14   15 ar  
    27   14   16 ar  
    28   15   21 ar  
    29   15   43 1   
    30   16   17 ar  
    31   16   44 1   
    32   17   18 1   
    33   17   20 ar  
    34   18   19 1   
    35   19   45 1   
    36   19   46 1   
    37   19   47 1   
    38   20   21 ar  
    39   20   48 1   
    40   21   22 1   
    41   22   23 ar  
    42   22   31 ar  
    43   23   24 ar  
    44   23   28 ar  
    45   24   25 ar  
    46   24   49 1   
    47   25   26 ar  
    48   25   50 1   
    49   26   27 ar  
    50   27   28 ar  
    51   27   51 1   
    52   28   29 ar  
    53   29   30 ar  
    54   29   52 1   
    55   30   31 ar  
    56   30   53 1   
    57   31   54 1   
@<TRIPOS>SUBSTRUCTURE
     1 1R0         1 TEMP              0 ****  ****    0 ROOT
