@<TRIPOS>MOLECULE
1R0
   56    59     1     0     0
SMALL
bcc


@<TRIPOS>ATOM
      1 CAA         0.0800    1.1840    1.7940 c3        1 1R0     -0.101100
      2 CAP         0.5690   -0.2170    1.5400 c3        1 1R0     -0.147700
      3 C4          1.9740   -0.5040    1.9820 ca        1 1R0      0.529600
      4 N3          2.7230    0.4450    2.5630 nb        1 1R0     -0.635000
      5 C2          4.0050    0.0860    2.9360 ca        1 1R0      0.724900
      6 NAC         4.8130    1.1600    3.5850 n4        1 1R0     -0.813300
      7 N1          4.6010   -1.1220    2.7790 nb        1 1R0     -0.657000
      8 C6          3.8220   -2.0820    2.1850 ca        1 1R0      0.481200
      9 NAD         4.4300   -3.4090    1.9970 n4        1 1R0     -0.827300
     10 C5          2.4900   -1.8440    1.7600 ca        1 1R0     -0.026600
     11 CAF         1.7130   -2.8290    1.1680 cg        1 1R0     -0.329000
     12 CAE         0.9860   -3.6420    0.6510 c1        1 1R0      0.154900
     13 CAQ         0.1340   -4.6160    0.0370 c3        1 1R0     -0.011000
     14 CAW         0.5170   -6.0250    0.3520 ca        1 1R0     -0.062300
     15 CAN         1.8510   -6.3700    0.5530 ca        1 1R0     -0.182000
     16 CAM        -0.4830   -7.0030    0.4110 ca        1 1R0     -0.191000
     17 CAY        -0.1200   -8.3310    0.6690 ca        1 1R0      0.166100
     18 OAU        -1.0010   -9.3790    0.7470 os        1 1R0     -0.303900
     19 CAB        -2.3760   -9.0900    0.4950 c3        1 1R0      0.105700
     20 CAO         1.2310   -8.6870    0.8810 ca        1 1R0     -0.122000
     21 CAZ         2.2110   -7.7000    0.8280 cp        1 1R0     -0.002000
     22 CBC         3.6220   -8.0320    1.0360 cp        1 1R0     -0.049000
     23 CBE         4.3910   -7.3120    1.9950 ca        1 1R0     -0.022000
     24 CAK         3.8220   -6.3680    2.9000 ca        1 1R0     -0.260300
     25 CAH         4.6520   -5.6830    3.7690 ca        1 1R0      0.285200
     26 NAR         6.0160   -5.8380    3.8020 nb        1 1R0     -0.690000
     27 CAL         6.5460   -6.7640    3.0200 ca        1 1R0      0.447200
     28 CBD         5.7860   -7.5630    2.0960 ca        1 1R0     -0.158300
     29 CAJ         6.3810   -8.5760    1.3070 ca        1 1R0     -0.090000
     30 CAG         5.6060   -9.3060    0.4330 ca        1 1R0     -0.101000
     31 CAI         4.2280   -9.0290    0.2900 ca        1 1R0     -0.067000
     32 H1          0.7040    1.9370    1.2540 hc        1 1R0      0.067033
     33 H2         -0.9730    1.2750    1.4240 hc        1 1R0      0.067033
     34 H3          0.0870    1.4270    2.8840 hc        1 1R0      0.067033
     35 H4         -0.1000   -0.9560    2.0690 hc        1 1R0      0.099700
     36 H5          0.5170   -0.4460    0.4370 hc        1 1R0      0.099700
     37 H6          4.9000    1.9550    2.9340 hn        1 1R0      0.496800
     38 H7          5.7510    0.8120    3.8320 hn        1 1R0      0.496800
     39 H8          4.8250   -3.4680    1.0490 hn        1 1R0      0.494467
     40 H9          3.7060   -4.1480    2.1140 hn        1 1R0      0.494467
     41 H10        -0.9320   -4.4200    0.3620 hc        1 1R0      0.121700
     42 H11         0.1650   -4.4700   -1.0870 hc        1 1R0      0.121700
     43 H12         2.6370   -5.6060    0.4740 ha        1 1R0      0.092000
     44 H13        -1.5360   -6.7290    0.2500 ha        1 1R0      0.156000
     45 H14        -2.7730   -8.3810    1.2610 h1        1 1R0      0.060700
     46 H15        -2.5100   -8.6830   -0.5360 h1        1 1R0      0.060700
     47 H16        -2.8650  -10.0950    0.5930 h1        1 1R0      0.060700
     48 H17         1.4850   -9.7380    1.0900 ha        1 1R0      0.178000
     49 H18         2.7270   -6.2600    2.9450 ha        1 1R0      0.161000
     50 H19         4.2470   -5.0240    4.5590 h4        1 1R0      0.022100
     51 H20         7.6410   -6.9180    3.1000 h4        1 1R0      0.051100
     52 H21         7.4600   -8.7760    1.4110 ha        1 1R0      0.162000
     53 H22         6.0530  -10.1140   -0.1710 ha        1 1R0      0.169000
     54 H23         3.6350   -9.6150   -0.4320 ha        1 1R0      0.165000
     55 HAC3        4.3270    1.4750    4.4390 hn        1 1R0      0.496800
     56 HAD3        5.1830   -3.5830    2.6900 hn        1 1R0      0.494467
@<TRIPOS>BOND
     1    1    2 1   
     2    1   32 1   
     3    1   33 1   
     4    1   34 1   
     5    2    3 1   
     6    2   35 1   
     7    2   36 1   
     8    3    4 ar  
     9    3   10 ar  
    10    4    5 ar  
    11    5    6 1   
    12    5    7 ar  
    13    6   37 1   
    14    6   38 1   
    15    6   55 1   
    16    7    8 ar  
    17    8    9 1   
    18    8   10 ar  
    19    9   39 1   
    20    9   40 1   
    21    9   56 1   
    22   10   11 1   
    23   11   12 3   
    24   12   13 1   
    25   13   14 1   
    26   13   41 1   
    27   13   42 1   
    28   14   15 ar  
    29   14   16 ar  
    30   15   21 ar  
    31   15   43 1   
    32   16   17 ar  
    33   16   44 1   
    34   17   18 1   
    35   17   20 ar  
    36   18   19 1   
    37   19   45 1   
    38   19   46 1   
    39   19   47 1   
    40   20   21 ar  
    41   20   48 1   
    42   21   22 1   
    43   22   23 ar  
    44   22   31 ar  
    45   23   24 ar  
    46   23   28 ar  
    47   24   25 ar  
    48   24   49 1   
    49   25   26 ar  
    50   25   50 1   
    51   26   27 ar  
    52   27   28 ar  
    53   27   51 1   
    54   28   29 ar  
    55   29   30 ar  
    56   29   52 1   
    57   30   31 ar  
    58   30   53 1   
    59   31   54 1   
@<TRIPOS>SUBSTRUCTURE
     1 1R0         1 TEMP              0 ****  ****    0 ROOT
