@<TRIPOS>MOLECULE
1R0
   54    57     1     0     0
SMALL
bcc


@<TRIPOS>ATOM
      1 CAA        -6.0360    2.5110    1.2540 c3        1 1R0     -0.087100
      2 CAP        -5.5910    1.1400    1.7000 c3        1 1R0     -0.138700
      3 C4         -5.5010    0.1790    0.5430 ca        1 1R0      0.539600
      4 N3         -6.6480   -0.1830   -0.0620 nb        1 1R0     -0.792000
      5 C2         -6.5430   -1.0720   -1.1270 ca        1 1R0      0.918900
      6 NAC        -7.7130   -1.3760   -1.8230 nh        1 1R0     -0.933500
      7 N1         -5.3710   -1.6460   -1.5830 nb        1 1R0     -0.833000
      8 C6         -4.2160   -1.2470   -0.9640 ca        1 1R0      0.746200
      9 NAD        -3.0140   -1.7260   -1.4420 nh        1 1R0     -0.956500
     10 C5         -4.2340   -0.3160    0.1410 ca        1 1R0     -0.340600
     11 CAF        -3.0450    0.0590    0.7710 cg        1 1R0     -0.082000
     12 CAE        -2.0150    0.3720    1.3000 c1        1 1R0     -0.159100
     13 CAQ        -0.7980    0.7410    1.9580 c3        1 1R0      0.050000
     14 CAW         0.3540    0.9330    1.0240 ca        1 1R0     -0.046300
     15 CAN         1.6250    0.4970    1.4010 ca        1 1R0     -0.153000
     16 CAM         0.1670    1.5760   -0.2040 ca        1 1R0     -0.191000
     17 CAY         1.2660    1.7740   -1.0450 ca        1 1R0      0.125100
     18 OAU         1.2030    2.3930   -2.2790 os        1 1R0     -0.326900
     19 CAB        -0.0810    2.8560   -2.6840 c3        1 1R0      0.111700
     20 CAO         2.5510    1.3360   -0.6760 ca        1 1R0     -0.147000
     21 CAZ         2.7250    0.6940    0.5510 cp        1 1R0     -0.012000
     22 CBC         4.0540    0.2470    0.9780 cp        1 1R0     -0.034000
     23 CBE         4.8200   -0.6560    0.1810 ca        1 1R0      0.002000
     24 CAK         4.3590   -1.2080   -1.0480 ca        1 1R0     -0.227300
     25 CAH         5.1740   -2.0790   -1.7470 ca        1 1R0      0.380200
     26 NAR         6.4230   -2.4590   -1.3270 nb        1 1R0     -0.663000
     27 CAL         6.8600   -1.9580   -0.1840 ca        1 1R0      0.420200
     28 CBD         6.1090   -1.0480    0.6340 ca        1 1R0     -0.162300
     29 CAJ         6.6150   -0.5480    1.8590 ca        1 1R0     -0.098000
     30 CAG         5.8550    0.3120    2.6150 ca        1 1R0     -0.133000
     31 CAI         4.5720    0.7070    2.1750 ca        1 1R0     -0.101000
     32 H1         -7.0610    2.4730    0.8120 hc        1 1R0      0.041033
     33 H2         -6.0530    3.2040    2.1290 hc        1 1R0      0.041033
     34 H3         -5.3370    2.9250    0.4880 hc        1 1R0      0.041033
     35 H4         -4.5890    1.2110    2.2010 hc        1 1R0      0.062200
     36 H5         -6.3160    0.7360    2.4580 hc        1 1R0      0.062200
     37 H6         -8.5740   -1.1690   -1.3760 hn        1 1R0      0.431800
     38 H7         -7.6940   -2.1640   -2.4270 hn        1 1R0      0.431800
     39 H8         -3.0060   -2.4620   -2.1040 hn        1 1R0      0.438300
     40 H9         -2.2100   -1.5900   -0.8780 hn        1 1R0      0.438300
     41 H10        -0.9620    1.7070    2.5210 hc        1 1R0      0.068700
     42 H11        -0.5390   -0.0470    2.7230 hc        1 1R0      0.068700
     43 H12         1.7730   -0.0100    2.3660 ha        1 1R0      0.138000
     44 H13        -0.8400    1.9120   -0.4900 ha        1 1R0      0.150000
     45 H14        -0.7980    2.0040   -2.7710 h1        1 1R0      0.047033
     46 H15        -0.4680    3.6220   -1.9700 h1        1 1R0      0.047033
     47 H16         0.1140    3.3130   -3.6870 h1        1 1R0      0.047033
     48 H17         3.4010    1.5110   -1.3520 ha        1 1R0      0.158000
     49 H18         3.3630   -0.9360   -1.4260 ha        1 1R0      0.154000
     50 H19         4.8530   -2.5270   -2.7040 h4        1 1R0      0.023100
     51 H20         7.8670   -2.2730    0.1460 h4        1 1R0      0.021100
     52 H21         7.6170   -0.8610    2.1880 ha        1 1R0      0.137000
     53 H22         6.2350    0.7060    3.5700 ha        1 1R0      0.137000
     54 H23         3.9840    1.3980    2.7980 ha        1 1R0      0.140000
@<TRIPOS>BOND
     1    1    2 1   
     2    1   32 1   
     3    1   33 1   
     4    1   34 1   
     5    2    3 1   
     6    2   35 1   
     7    2   36 1   
     8    3    4 ar  
     9    3   10 ar  
    10    4    5 ar  
    11    5    6 1   
    12    5    7 ar  
    13    6   37 1   
    14    6   38 1   
    15    7    8 ar  
    16    8    9 1   
    17    8   10 ar  
    18    9   39 1   
    19    9   40 1   
    20   10   11 1   
    21   11   12 3   
    22   12   13 1   
    23   13   14 1   
    24   13   41 1   
    25   13   42 1   
    26   14   15 ar  
    27   14   16 ar  
    28   15   21 ar  
    29   15   43 1   
    30   16   17 ar  
    31   16   44 1   
    32   17   18 1   
    33   17   20 ar  
    34   18   19 1   
    35   19   45 1   
    36   19   46 1   
    37   19   47 1   
    38   20   21 ar  
    39   20   48 1   
    40   21   22 1   
    41   22   23 ar  
    42   22   31 ar  
    43   23   24 ar  
    44   23   28 ar  
    45   24   25 ar  
    46   24   49 1   
    47   25   26 ar  
    48   25   50 1   
    49   26   27 ar  
    50   27   28 ar  
    51   27   51 1   
    52   28   29 ar  
    53   29   30 ar  
    54   29   52 1   
    55   30   31 ar  
    56   30   53 1   
    57   31   54 1   
@<TRIPOS>SUBSTRUCTURE
     1 1R0         1 TEMP              0 ****  ****    0 ROOT
