@<TRIPOS>MOLECULE
1R0
   54    57     1     0     0
SMALL
bcc


@<TRIPOS>ATOM
      1 CAA        -0.2340    0.2500   -0.4200 c3        1 1R0     -0.087100
      2 CAP         1.2350    0.0640   -0.1340 c3        1 1R0     -0.138700
      3 C4          1.5280    0.1220    1.3430 ca        1 1R0      0.539600
      4 N3          1.3460    1.2990    1.9720 nb        1 1R0     -0.791000
      5 C2          1.6440    1.3370    3.3310 ca        1 1R0      0.917900
      6 NAC         1.5670    2.5760    3.9680 nh        1 1R0     -0.933500
      7 N1          2.0650    0.2630    4.0920 nb        1 1R0     -0.830000
      8 C6          2.2280   -0.9260    3.4330 ca        1 1R0      0.741200
      9 NAD         2.5790   -2.0430    4.1650 nh        1 1R0     -0.951500
     10 C5          1.9840   -1.0410    2.0140 ca        1 1R0     -0.338600
     11 CAF         2.1920   -2.2560    1.3570 cg        1 1R0     -0.082000
     12 CAE         2.3760   -3.3060    0.8060 c1        1 1R0     -0.158100
     13 CAQ         2.6130   -4.5450    0.1270 c3        1 1R0      0.050000
     14 CAW         2.2220   -5.7480    0.9230 ca        1 1R0     -0.046300
     15 CAN         3.0330   -6.8840    0.8970 ca        1 1R0     -0.152000
     16 CAM         1.0340   -5.7500    1.6610 ca        1 1R0     -0.191000
     17 CAY         0.6720   -6.8990    2.3700 ca        1 1R0      0.124100
     18 OAU        -0.4740   -7.0170    3.1330 os        1 1R0     -0.326900
     19 CAB        -1.3230   -5.8760    3.1700 c3        1 1R0      0.111700
     20 CAO         1.4840   -8.0490    2.3520 ca        1 1R0     -0.147000
     21 CAZ         2.6680   -8.0340    1.6140 cp        1 1R0     -0.012000
     22 CBC         3.5240   -9.2230    1.5540 cp        1 1R0     -0.034000
     23 CBE         4.0480   -9.8160    2.7420 ca        1 1R0      0.002000
     24 CAK         3.8140   -9.3010    4.0490 ca        1 1R0     -0.227300
     25 CAH         4.3690   -9.9440    5.1400 ca        1 1R0      0.380200
     26 NAR         5.1480  -11.0680    5.0480 nb        1 1R0     -0.663000
     27 CAL         5.3780  -11.5520    3.8390 ca        1 1R0      0.420200
     28 CBD         4.8620  -10.9750    2.6300 ca        1 1R0     -0.162300
     29 CAJ         5.1470  -11.5230    1.3550 ca        1 1R0     -0.098000
     30 CAG         4.6410  -10.9290    0.2240 ca        1 1R0     -0.134000
     31 CAI         3.8320   -9.7760    0.3250 ca        1 1R0     -0.101000
     32 H1         -0.4180    0.1550   -1.5180 hc        1 1R0      0.040700
     33 H2         -0.5810    1.2580   -0.0890 hc        1 1R0      0.040700
     34 H3         -0.8420   -0.5240    0.1070 hc        1 1R0      0.040700
     35 H4          1.5780   -0.9250   -0.5400 hc        1 1R0      0.063200
     36 H5          1.8260    0.8640   -0.6560 hc        1 1R0      0.063200
     37 H6          1.0610    3.2930    3.5040 hn        1 1R0      0.432300
     38 H7          1.5520    2.5800    4.9600 hn        1 1R0      0.432300
     39 H8          2.8970   -2.8340    3.6580 hn        1 1R0      0.435300
     40 H9          2.9000   -1.9310    5.0970 hn        1 1R0      0.435300
     41 H10         2.0280   -4.5530   -0.8390 hc        1 1R0      0.069200
     42 H11         3.7050   -4.6100   -0.1490 hc        1 1R0      0.069200
     43 H12         3.9690   -6.8830    0.3180 ha        1 1R0      0.138000
     44 H13         0.4060   -4.8470    1.6760 ha        1 1R0      0.150000
     45 H14        -0.7900   -5.0010    3.6150 h1        1 1R0      0.046700
     46 H15        -2.1670   -6.2020    3.8300 h1        1 1R0      0.046700
     47 H16        -1.6970   -5.6280    2.1470 h1        1 1R0      0.046700
     48 H17         1.1730   -8.9430    2.9120 ha        1 1R0      0.158000
     49 H18         3.1970   -8.3990    4.1750 ha        1 1R0      0.154000
     50 H19         4.2100   -9.5760    6.1690 h4        1 1R0      0.023100
     51 H20         6.0100  -12.4580    3.7760 h4        1 1R0      0.021100
     52 H21         5.7760  -12.4240    1.2920 ha        1 1R0      0.137000
     53 H22         4.8570  -11.3430   -0.7720 ha        1 1R0      0.137000
     54 H23         3.4370   -9.3190   -0.5970 ha        1 1R0      0.140000
@<TRIPOS>BOND
     1    1    2 1   
     2    1   32 1   
     3    1   33 1   
     4    1   34 1   
     5    2    3 1   
     6    2   35 1   
     7    2   36 1   
     8    3    4 ar  
     9    3   10 ar  
    10    4    5 ar  
    11    5    6 1   
    12    5    7 ar  
    13    6   37 1   
    14    6   38 1   
    15    7    8 ar  
    16    8    9 1   
    17    8   10 ar  
    18    9   39 1   
    19    9   40 1   
    20   10   11 1   
    21   11   12 3   
    22   12   13 1   
    23   13   14 1   
    24   13   41 1   
    25   13   42 1   
    26   14   15 ar  
    27   14   16 ar  
    28   15   21 ar  
    29   15   43 1   
    30   16   17 ar  
    31   16   44 1   
    32   17   18 1   
    33   17   20 ar  
    34   18   19 1   
    35   19   45 1   
    36   19   46 1   
    37   19   47 1   
    38   20   21 ar  
    39   20   48 1   
    40   21   22 1   
    41   22   23 ar  
    42   22   31 ar  
    43   23   24 ar  
    44   23   28 ar  
    45   24   25 ar  
    46   24   49 1   
    47   25   26 ar  
    48   25   50 1   
    49   26   27 ar  
    50   27   28 ar  
    51   27   51 1   
    52   28   29 ar  
    53   29   30 ar  
    54   29   52 1   
    55   30   31 ar  
    56   30   53 1   
    57   31   54 1   
@<TRIPOS>SUBSTRUCTURE
     1 1R0         1 TEMP              0 ****  ****    0 ROOT
