@<TRIPOS>MOLECULE
1R0
   54    43     1     0     0
SMALL
bcc


@<TRIPOS>ATOM
      1 CAA         1.0610    3.7630    2.5010 c3        1 1R0     -0.201000
      2 CAP         0.3800    3.2750    1.2530 c3        1 1R0     -0.123000
      3 C4         -0.2710    4.4690    0.5160 c2        1 1R0      0.119000
      4 N3         -0.0120    5.7320    0.9140 n1        1 1R0     -0.262000
      5 C2         -0.5540    6.7930    0.2290 c1        1 1R0      0.198000
      6 NAC        -0.2950    8.1150    0.6520 n2        1 1R0     -0.330000
      7 N1         -1.3650    6.5680   -0.8690 n1        1 1R0     -0.305000
      8 C6         -1.6210    5.3260   -1.2620 c1        1 1R0      0.225000
      9 NAD        -2.4880    5.0940   -2.3670 n3        1 1R0     -0.352000
     10 C5         -1.0700    4.2450   -0.5660 c2        1 1R0     -0.214000
     11 CAF        -1.2710    2.8130   -1.0850 c1        1 1R0     -0.088000
     12 CAE        -1.4310    1.6690   -1.5030 c1        1 1R0     -0.185000
     13 CAQ        -1.6350    0.2070   -2.0440 c2        1 1R0     -0.008000
     14 CAW        -1.3770   -0.7990   -0.9210 c1        1 1R0     -0.041000
     15 CAN        -0.1380   -1.4410   -0.8370 c1        1 1R0     -0.145000
     16 CAM        -2.4210   -1.1970   -0.0970 c1        1 1R0     -0.153000
     17 CAY        -2.2320   -2.2400    0.8160 c1        1 1R0      0.012000
     18 OAU        -3.2950   -2.6110    1.7200 o         1 1R0     -0.211000
     19 CAB        -3.9830   -3.8040    1.3520 c3        1 1R0     -0.077000
     20 CAO        -0.9950   -2.8790    0.8980 c1        1 1R0     -0.145000
     21 CAZ         0.0500   -2.4780    0.0710 c1        1 1R0      0.012000
     22 CBC         1.4240   -3.1790    0.1670 c1        1 1R0      0.012000
     23 CBE         2.1270   -4.2330   -0.4700 c1        1 1R0      0.001000
     24 CAK         1.4950   -4.9970   -1.4690 c2        1 1R0     -0.165000
     25 CAH         2.2310   -5.9790   -2.1810 c1        1 1R0     -0.086000
     26 NAR         3.5610   -6.1850   -1.8950 n1        1 1R0     -0.137000
     27 CAL         4.1930   -5.4310   -0.9060 c1        1 1R0     -0.045000
     28 CBD         3.4640   -4.4430   -0.1860 c1        1 1R0     -0.098000
     29 CAJ         4.1320   -3.6070    0.7390 c1        1 1R0     -0.115500
     30 CAG         3.4290   -2.5520    1.3750 c1        1 1R0     -0.115500
     31 CAI         2.0860   -2.3440    1.0890 c1        1 1R0     -0.145000
     32 H1          0.5170    4.4510    2.9200 hc        1 1R0      0.079333
     33 H2          1.1790    3.0080    3.1300 hc        1 1R0      0.079333
     34 H3          1.9320    4.1320    2.2730 hc        1 1R0      0.079333
     35 H4          1.0370    2.8530    0.6700 hc        1 1R0      0.104000
     36 H5         -0.3180    2.6150    1.4950 hc        1 1R0      0.104000
     37 H6          0.1700    8.2650    1.4290 hn        1 1R0      0.226000
     38 H7         -0.6500    8.8500    0.1610 hn        1 1R0      0.226000
     39 H8         -3.0480    5.7910   -2.6840 hn        1 1R0      0.231000
     40 H9         -2.4530    4.3010   -2.8110 hn        1 1R0      0.231000
     41 H10        -2.5740    0.1010   -2.3750 ha        1 1R0      0.109000
     42 H11        -0.9930    0.0360   -2.7990 ha        1 1R0      0.109000
     43 H12         0.6120   -1.1550   -1.4300 ha        1 1R0      0.145000
     44 H13        -3.3340   -0.7850   -0.2100 ha        1 1R0      0.151000
     45 H14        -4.1720   -3.7890    0.3940 h1        1 1R0      0.085000
     46 H15        -3.4240   -4.5800    1.5630 h1        1 1R0      0.085000
     47 H16        -4.8470   -3.8640    1.8630 h1        1 1R0      0.085000
     48 H17        -0.8590   -3.6210    1.5490 ha        1 1R0      0.145000
     49 H18         0.5570   -4.8520   -1.6700 ha        1 1R0      0.152000
     50 H19         1.7880   -6.5150   -2.8840 ha        1 1R0      0.159000
     51 H20         5.1470   -5.5830   -0.7070 ha        1 1R0      0.159000
     52 H21         5.0760   -3.7550    0.9380 ha        1 1R0      0.138000
     53 H22         3.8880   -1.9720    2.0150 ha        1 1R0      0.138000
     54 H23         1.5910   -1.6020    1.5350 ha        1 1R0      0.145000
@<TRIPOS>BOND
     1    1    2 1   
     2    1   32 1   
     3    1   33 1   
     4    1   34 1   
     5    2    3 1   
     6    2   35 1   
     7    2   36 1   
     8    3    4 1   
     9    3   10 1   
    10    5    7 1   
    11    6   37 1   
    12    6   38 1   
    13    8    9 1   
    14    8   10 1   
    15    9   39 1   
    16    9   40 1   
    17   10   11 1   
    18   11   12 1   
    19   13   14 1   
    20   13   41 1   
    21   13   42 1   
    22   14   16 1   
    23   15   21 1   
    24   15   43 1   
    25   16   44 1   
    26   17   20 1   
    27   18   19 1   
    28   19   45 1   
    29   19   46 1   
    30   19   47 1   
    31   20   48 1   
    32   22   31 1   
    33   23   24 1   
    34   23   28 1   
    35   24   25 1   
    36   24   49 1   
    37   25   50 1   
    38   26   27 1   
    39   27   51 1   
    40   29   30 1   
    41   29   52 1   
    42   30   53 1   
    43   31   54 1   
@<TRIPOS>SUBSTRUCTURE
     1 1R0         1 TEMP              0 ****  ****    0 ROOT
