@<TRIPOS>MOLECULE
1R1
   65    64     1     0     0
SMALL
bcc


@<TRIPOS>ATOM
      1 C16         5.2800   -9.1900   -6.8860 c3        1 1R1     -0.092100
      2 C15         5.7770   -7.8370   -6.1060 c3        1 1R1     -0.080400
      3 C14         4.6550   -6.8320   -6.0690 c3        1 1R1     -0.079400
      4 C13         4.8650   -5.8520   -4.8320 c3        1 1R1     -0.078400
      5 C12         4.2450   -4.5820   -5.1130 c3        1 1R1     -0.076400
      6 C11         3.4500   -4.0430   -3.7620 c3        1 1R1     -0.078400
      7 C10         3.6490   -2.7740   -2.9220 c3        1 1R1     -0.079400
      8 C9          2.3400   -2.1370   -2.6710 c3        1 1R1     -0.079400
      9 C8          2.3900   -1.4180   -1.3720 c3        1 1R1     -0.079400
     10 C7          1.3490   -0.2970   -1.3610 c3        1 1R1     -0.078400
     11 C6          0.7940   -0.1090    0.1200 c3        1 1R1     -0.079400
     12 C5          0.2780    1.4270    0.3280 c3        1 1R1     -0.079400
     13 C4         -1.0020    1.4210    1.3080 c3        1 1R1     -0.078400
     14 C3         -1.2950    2.8320    1.8040 c3        1 1R1     -0.074400
     15 C2         -2.5470    2.7730    2.8190 c3        1 1R1     -0.112400
     16 C1         -2.6890    4.1980    3.6070 c3        1 1R1      0.201400
     17 O1         -3.8910    4.2020    4.3690 os        1 1R1     -0.592200
     18 P1         -4.6530    5.6340    4.6050 p5        1 1R1      1.336600
     19 O2         -5.7890    5.8330    3.4690 o         1 1R1     -0.858500
     20 C1H        -5.4340    5.6420    6.2150 c3        1 1R1     -0.336600
     21 C2H        -6.0020    7.0100    6.4980 c3        1 1R1     -0.083400
     22 C3H        -7.2850    6.8830    7.0460 c3        1 1R1      0.163800
     23 N1         -7.6870    8.1880    7.7910 n2        1 1R1     -0.460200
     24 N2         -9.1200    8.4120    8.1600 n1        1 1R1      0.231000
     25 N3        -10.8810    8.6870    8.6130 n1        1 1R1     -0.108000
     26 H1          5.9180   -9.8560   -6.7830 hc        1 1R1      0.031367
     27 H2          5.1440   -8.9640   -7.9990 hc        1 1R1      0.031367
     28 H3          4.4790   -9.4740   -6.5290 hc        1 1R1      0.031367
     29 H4          6.0690   -8.0860   -5.1010 hc        1 1R1      0.038200
     30 H5          6.4630   -7.4910   -6.5280 hc        1 1R1      0.038200
     31 H6          3.7740   -7.3150   -5.9700 hc        1 1R1      0.039200
     32 H7          4.6540   -6.2890   -6.9400 hc        1 1R1      0.039200
     33 H8          4.4300   -6.2750   -3.9700 hc        1 1R1      0.039700
     34 H9          5.7230   -5.7330   -4.6970 hc        1 1R1      0.039700
     35 H10         3.6500   -4.6810   -5.7940 hc        1 1R1      0.036700
     36 H11         4.9600   -3.9070   -5.3830 hc        1 1R1      0.036700
     37 H12         3.1980   -3.4200   -4.3510 hc        1 1R1      0.039200
     38 H13         4.4530   -4.2750   -3.3070 hc        1 1R1      0.039200
     39 H14         4.0710   -3.0180   -2.0510 hc        1 1R1      0.038700
     40 H15         4.3270   -2.0430   -3.4850 hc        1 1R1      0.038700
     41 H16         1.6550   -2.8120   -2.6390 hc        1 1R1      0.038200
     42 H17         2.1490   -1.5210   -3.3690 hc        1 1R1      0.038200
     43 H18         2.2050   -2.0310   -0.6630 hc        1 1R1      0.038200
     44 H19         3.3000   -1.0290   -1.2430 hc        1 1R1      0.038200
     45 H20         0.6260   -0.5270   -1.9490 hc        1 1R1      0.037700
     46 H21         1.7600    0.5270   -1.6590 hc        1 1R1      0.037700
     47 H22         1.5630   -0.3210    0.8120 hc        1 1R1      0.037700
     48 H23        -0.0150   -0.7750    0.2770 hc        1 1R1      0.037700
     49 H24         1.0670    2.0160    0.7670 hc        1 1R1      0.036200
     50 H25         0.0080    1.8370   -0.5960 hc        1 1R1      0.036200
     51 H26        -1.8500    1.0480    0.7840 hc        1 1R1      0.037700
     52 H27        -0.8320    0.8950    2.0100 hc        1 1R1      0.037700
     53 H28        -1.5290    3.4480    0.9900 hc        1 1R1      0.032700
     54 H29        -0.4210    3.2290    2.3220 hc        1 1R1      0.032700
     55 H30        -3.4350    2.5810    2.2710 hc        1 1R1      0.048200
     56 H31        -2.4010    2.0360    3.4830 hc        1 1R1      0.048200
     57 H32        -2.7100    4.8940    2.9960 h1        1 1R1      0.018200
     58 H33        -1.9710    4.3090    4.1710 h1        1 1R1      0.018200
     59 H35        -6.1470    4.9880    6.2240 hc        1 1R1      0.074200
     60 H36        -4.7280    5.4050    6.9480 hc        1 1R1      0.074200
     61 H37        -6.0420    7.5240    5.6570 hc        1 1R1      0.059700
     62 H38        -5.3670    7.5200    7.2110 hc        1 1R1      0.059700
     63 H39        -7.2860    6.0510    7.7550 h1        1 1R1      0.058200
     64 H40        -8.1050    6.6630    6.1510 h1        1 1R1      0.058200
     65 O3         -3.6020    6.8010    4.5160 o         1 1R1     -0.858500
@<TRIPOS>BOND
     1    1    2 1   
     2    1   26 1   
     3    1   27 1   
     4    1   28 1   
     5    2    3 1   
     6    2   29 1   
     7    2   30 1   
     8    3    4 1   
     9    3   31 1   
    10    3   32 1   
    11    4    5 1   
    12    4   33 1   
    13    4   34 1   
    14    5    6 1   
    15    5   35 1   
    16    5   36 1   
    17    6    7 1   
    18    6   37 1   
    19    6   38 1   
    20    7    8 1   
    21    7   39 1   
    22    7   40 1   
    23    8    9 1   
    24    8   41 1   
    25    8   42 1   
    26    9   10 1   
    27    9   43 1   
    28    9   44 1   
    29   10   11 1   
    30   10   45 1   
    31   10   46 1   
    32   11   12 1   
    33   11   47 1   
    34   11   48 1   
    35   12   13 1   
    36   12   49 1   
    37   12   50 1   
    38   13   14 1   
    39   13   51 1   
    40   13   52 1   
    41   14   15 1   
    42   14   53 1   
    43   14   54 1   
    44   15   16 1   
    45   15   55 1   
    46   15   56 1   
    47   16   17 1   
    48   16   57 1   
    49   16   58 1   
    50   17   18 1   
    51   18   19 1   
    52   18   20 1   
    53   18   65 1   
    54   20   21 1   
    55   20   59 1   
    56   20   60 1   
    57   21   22 1   
    58   21   61 1   
    59   21   62 1   
    60   22   23 1   
    61   22   63 1   
    62   22   64 1   
    63   23   24 1   
    64   24   25 3   
@<TRIPOS>SUBSTRUCTURE
     1 1R1         1 TEMP              0 ****  ****    0 ROOT
