@<TRIPOS>MOLECULE
1R1
   65    64     1     0     0
SMALL
bcc


@<TRIPOS>ATOM
      1 C16         0.1240   -0.0020   -0.1690 c3        1 1R1     -0.092100
      2 C15         1.6280    0.0360   -0.1000 c3        1 1R1     -0.080400
      3 C14         2.1200   -0.0010    1.3320 c3        1 1R1     -0.079400
      4 C13         3.6310    0.0370    1.3970 c3        1 1R1     -0.079400
      5 C12         4.1220   -0.0010    2.8290 c3        1 1R1     -0.078400
      6 C11         5.6330    0.0370    2.8940 c3        1 1R1     -0.079400
      7 C10         6.1240   -0.0010    4.3250 c3        1 1R1     -0.078400
      8 C9          7.6350    0.0370    4.3900 c3        1 1R1     -0.079400
      9 C8          8.1260   -0.0010    5.8220 c3        1 1R1     -0.078400
     10 C7          9.6370    0.0370    5.8870 c3        1 1R1     -0.079400
     11 C6         10.1290   -0.0000    7.3180 c3        1 1R1     -0.078400
     12 C5         11.6400    0.0370    7.3840 c3        1 1R1     -0.079400
     13 C4         12.1320   -0.0000    8.8150 c3        1 1R1     -0.077400
     14 C3         13.6440    0.0370    8.8800 c3        1 1R1     -0.079400
     15 C2         14.1350   -0.0000   10.3100 c3        1 1R1     -0.083400
     16 C1         15.6540    0.0380   10.3620 c3        1 1R1      0.169400
     17 O1         16.0760    0.0020   11.6920 os        1 1R1     -0.586200
     18 P1         17.7440    0.0370   11.7820 p5        1 1R1      1.334600
     19 O2         18.1510    1.3740   11.2870 o         1 1R1     -0.860500
     20 C1H        17.9050   -0.0440   13.4730 c3        1 1R1     -0.324600
     21 C2H        19.3060    0.3900   13.7800 c3        1 1R1     -0.091400
     22 C3H        19.5470    0.4620   15.2810 c3        1 1R1      0.167800
     23 N1         20.8900    0.7640   15.7430 n2        1 1R1     -0.457200
     24 N2         21.5890    1.6650   15.2380 n1        1 1R1      0.229000
     25 N3         22.3830    2.4200   14.9300 n1        1 1R1     -0.108000
     26 H1         -0.2700   -0.9350    0.3020 hc        1 1R1      0.031033
     27 H2         -0.2170    0.0270   -1.2320 hc        1 1R1      0.031033
     28 H3         -0.3180    0.8730    0.3660 hc        1 1R1      0.031033
     29 H4          2.0540   -0.8350   -0.6640 hc        1 1R1      0.037700
     30 H5          2.0050    0.9680   -0.5990 hc        1 1R1      0.037700
     31 H6          1.6970    0.8710    1.8970 hc        1 1R1      0.038700
     32 H7          1.7450   -0.9330    1.8330 hc        1 1R1      0.038700
     33 H8          4.0060    0.9680    0.8960 hc        1 1R1      0.038700
     34 H9          4.0540   -0.8350    0.8320 hc        1 1R1      0.038700
     35 H10         3.7470   -0.9320    3.3300 hc        1 1R1      0.038700
     36 H11         3.6990    0.8710    3.3940 hc        1 1R1      0.038700
     37 H12         6.0560   -0.8350    2.3280 hc        1 1R1      0.038700
     38 H13         6.0080    0.9680    2.3920 hc        1 1R1      0.038700
     39 H14         5.7490   -0.9320    4.8270 hc        1 1R1      0.038700
     40 H15         5.7010    0.8710    4.8910 hc        1 1R1      0.038700
     41 H16         8.0580   -0.8350    3.8250 hc        1 1R1      0.038700
     42 H17         8.0100    0.9680    3.8890 hc        1 1R1      0.038700
     43 H18         7.7030    0.8720    6.3870 hc        1 1R1      0.037700
     44 H19         7.7510   -0.9310    6.3230 hc        1 1R1      0.037700
     45 H20        10.0130    0.9680    5.3860 hc        1 1R1      0.038700
     46 H21        10.0600   -0.8350    5.3220 hc        1 1R1      0.038700
     47 H22         9.7540   -0.9310    7.8200 hc        1 1R1      0.036700
     48 H23         9.7060    0.8720    7.8840 hc        1 1R1      0.036700
     49 H24        12.0630   -0.8350    6.8190 hc        1 1R1      0.037700
     50 H25        12.0150    0.9680    6.8820 hc        1 1R1      0.037700
     51 H26        11.7580   -0.9310    9.3170 hc        1 1R1      0.034700
     52 H27        11.7100    0.8720    9.3800 hc        1 1R1      0.034700
     53 H28        14.0190    0.9680    8.3790 hc        1 1R1      0.037700
     54 H29        14.0670   -0.8350    8.3150 hc        1 1R1      0.037700
     55 H30        13.7730   -0.9300   10.8200 hc        1 1R1      0.037700
     56 H31        13.7250    0.8720   10.8830 hc        1 1R1      0.037700
     57 H32        16.0440    0.9810    9.8850 h1        1 1R1      0.027700
     58 H33        16.0920   -0.8470    9.8200 h1        1 1R1      0.027700
     59 H35        17.7180   -1.0800   13.8400 hc        1 1R1      0.067200
     60 H36        17.1620    0.6200   13.9730 hc        1 1R1      0.067200
     61 H37        20.0150   -0.3370   13.3000 hc        1 1R1      0.066700
     62 H38        19.4730    1.3930   13.2980 hc        1 1R1      0.066700
     63 H39        19.3510   -0.5490   15.7420 h1        1 1R1      0.053700
     64 H40        18.8150    1.1950   15.7300 h1        1 1R1      0.053700
     65 O3         18.2170   -1.2150   11.1510 o         1 1R1     -0.860500
@<TRIPOS>BOND
     1    1    2 1   
     2    1   26 1   
     3    1   27 1   
     4    1   28 1   
     5    2    3 1   
     6    2   29 1   
     7    2   30 1   
     8    3    4 1   
     9    3   31 1   
    10    3   32 1   
    11    4    5 1   
    12    4   33 1   
    13    4   34 1   
    14    5    6 1   
    15    5   35 1   
    16    5   36 1   
    17    6    7 1   
    18    6   37 1   
    19    6   38 1   
    20    7    8 1   
    21    7   39 1   
    22    7   40 1   
    23    8    9 1   
    24    8   41 1   
    25    8   42 1   
    26    9   10 1   
    27    9   43 1   
    28    9   44 1   
    29   10   11 1   
    30   10   45 1   
    31   10   46 1   
    32   11   12 1   
    33   11   47 1   
    34   11   48 1   
    35   12   13 1   
    36   12   49 1   
    37   12   50 1   
    38   13   14 1   
    39   13   51 1   
    40   13   52 1   
    41   14   15 1   
    42   14   53 1   
    43   14   54 1   
    44   15   16 1   
    45   15   55 1   
    46   15   56 1   
    47   16   17 1   
    48   16   57 1   
    49   16   58 1   
    50   17   18 1   
    51   18   19 1   
    52   18   20 1   
    53   18   65 1   
    54   20   21 1   
    55   20   59 1   
    56   20   60 1   
    57   21   22 1   
    58   21   61 1   
    59   21   62 1   
    60   22   23 1   
    61   22   63 1   
    62   22   64 1   
    63   23   24 1   
    64   24   25 3   
@<TRIPOS>SUBSTRUCTURE
     1 1R1         1 TEMP              0 ****  ****    0 ROOT
