@<TRIPOS>MOLECULE
1R1
   65    64     1     0     0
SMALL
bcc


@<TRIPOS>ATOM
      1 C16        15.1660    0.5790   -0.0200 c3        1 1R1     -0.092100
      2 C15        13.9220   -0.1550    0.4090 c3        1 1R1     -0.080400
      3 C14        12.6700    0.5370   -0.0860 c3        1 1R1     -0.079400
      4 C13        11.4230   -0.2040    0.3470 c3        1 1R1     -0.079400
      5 C12        10.1720    0.4890   -0.1480 c3        1 1R1     -0.078400
      6 C11         8.9250   -0.2520    0.2850 c3        1 1R1     -0.079400
      7 C10         7.6730    0.4400   -0.2100 c3        1 1R1     -0.078400
      8 C9          6.4260   -0.3000    0.2230 c3        1 1R1     -0.079400
      9 C8          5.1750    0.3920   -0.2720 c3        1 1R1     -0.078400
     10 C7          3.9280   -0.3490    0.1610 c3        1 1R1     -0.079400
     11 C6          2.6760    0.3420   -0.3350 c3        1 1R1     -0.078400
     12 C5          1.4290   -0.3980    0.0980 c3        1 1R1     -0.079400
     13 C4          0.1770    0.2930   -0.3970 c3        1 1R1     -0.077400
     14 C3         -1.0710   -0.4480    0.0350 c3        1 1R1     -0.079400
     15 C2         -2.3220    0.2420   -0.4600 c3        1 1R1     -0.083400
     16 C1         -3.5670   -0.5120   -0.0190 c3        1 1R1      0.169400
     17 O1         -4.7020    0.1480   -0.4900 os        1 1R1     -0.586200
     18 P1         -6.0890   -0.6590   -0.0260 p5        1 1R1      1.334600
     19 O2         -6.1590   -0.5360    1.4490 o         1 1R1     -0.860500
     20 C1H        -7.2320    0.3610   -0.7630 c3        1 1R1     -0.324600
     21 C2H        -8.5490    0.0430   -0.1220 c3        1 1R1     -0.091400
     22 C3H        -9.6470    0.9710   -0.6240 c3        1 1R1      0.167800
     23 N1        -11.0060    0.7230   -0.1780 n2        1 1R1     -0.457200
     24 N2        -11.2890    0.4650    1.0100 n1        1 1R1      0.229000
     25 N3        -11.7620    0.2160    2.0140 n1        1 1R1     -0.108000
     26 H1         15.2260    0.6370   -1.1340 hc        1 1R1      0.031033
     27 H2         15.1690    1.6210    0.3840 hc        1 1R1      0.031033
     28 H3         16.0770    0.0530    0.3550 hc        1 1R1      0.031033
     29 H4         13.9490   -1.2050    0.0140 hc        1 1R1      0.037700
     30 H5         13.8930   -0.2240    1.5280 hc        1 1R1      0.037700
     31 H6         12.6400    1.5870    0.3090 hc        1 1R1      0.038700
     32 H7         12.6970    0.6060   -1.2050 hc        1 1R1      0.038700
     33 H8         11.4530   -1.2540   -0.0470 hc        1 1R1      0.038700
     34 H9         11.3960   -0.2730    1.4670 hc        1 1R1      0.038700
     35 H10        10.1410    1.5380    0.2470 hc        1 1R1      0.038700
     36 H11        10.1980    0.5580   -1.2680 hc        1 1R1      0.038700
     37 H12         8.9550   -1.3020   -0.1090 hc        1 1R1      0.038700
     38 H13         8.8980   -0.3210    1.4050 hc        1 1R1      0.038700
     39 H14         7.6430    1.4900    0.1840 hc        1 1R1      0.038700
     40 H15         7.7000    0.5090   -1.3290 hc        1 1R1      0.038700
     41 H16         6.4570   -1.3500   -0.1710 hc        1 1R1      0.038700
     42 H17         6.4000   -0.3690    1.3430 hc        1 1R1      0.038700
     43 H18         5.1440    1.4410    0.1220 hc        1 1R1      0.037700
     44 H19         5.2010    0.4600   -1.3920 hc        1 1R1      0.037700
     45 H20         3.9580   -1.3990   -0.2330 hc        1 1R1      0.038700
     46 H21         3.9010   -0.4180    1.2810 hc        1 1R1      0.038700
     47 H22         2.6450    1.3920    0.0600 hc        1 1R1      0.036700
     48 H23         2.7030    0.4110   -1.4540 hc        1 1R1      0.036700
     49 H24         1.4590   -1.4480   -0.2960 hc        1 1R1      0.037700
     50 H25         1.4020   -0.4670    1.2180 hc        1 1R1      0.037700
     51 H26         0.1450    1.3420   -0.0030 hc        1 1R1      0.034700
     52 H27         0.2030    0.3610   -1.5160 hc        1 1R1      0.034700
     53 H28        -1.0400   -1.4980   -0.3590 hc        1 1R1      0.037700
     54 H29        -1.0980   -0.5170    1.1550 hc        1 1R1      0.037700
     55 H30        -2.3670    1.2900   -0.0650 hc        1 1R1      0.037700
     56 H31        -2.3090    0.3100   -1.5780 hc        1 1R1      0.037700
     57 H32        -3.5620   -1.5610   -0.4290 h1        1 1R1      0.027700
     58 H33        -3.6210   -0.5660    1.1050 h1        1 1R1      0.027700
     59 H35        -6.9620    1.4320   -0.6120 hc        1 1R1      0.067200
     60 H36        -7.2700    0.1850   -1.8630 hc        1 1R1      0.067200
     61 H37        -8.8020   -1.0270   -0.3450 hc        1 1R1      0.066700
     62 H38        -8.4250    0.1360    0.9930 hc        1 1R1      0.066700
     63 H39        -9.3560    2.0360   -0.3880 h1        1 1R1      0.053700
     64 H40        -9.7350    0.8760   -1.7440 h1        1 1R1      0.053700
     65 O3         -6.0460   -1.9740   -0.7060 o         1 1R1     -0.860500
@<TRIPOS>BOND
     1    1    2 1   
     2    1   26 1   
     3    1   27 1   
     4    1   28 1   
     5    2    3 1   
     6    2   29 1   
     7    2   30 1   
     8    3    4 1   
     9    3   31 1   
    10    3   32 1   
    11    4    5 1   
    12    4   33 1   
    13    4   34 1   
    14    5    6 1   
    15    5   35 1   
    16    5   36 1   
    17    6    7 1   
    18    6   37 1   
    19    6   38 1   
    20    7    8 1   
    21    7   39 1   
    22    7   40 1   
    23    8    9 1   
    24    8   41 1   
    25    8   42 1   
    26    9   10 1   
    27    9   43 1   
    28    9   44 1   
    29   10   11 1   
    30   10   45 1   
    31   10   46 1   
    32   11   12 1   
    33   11   47 1   
    34   11   48 1   
    35   12   13 1   
    36   12   49 1   
    37   12   50 1   
    38   13   14 1   
    39   13   51 1   
    40   13   52 1   
    41   14   15 1   
    42   14   53 1   
    43   14   54 1   
    44   15   16 1   
    45   15   55 1   
    46   15   56 1   
    47   16   17 1   
    48   16   57 1   
    49   16   58 1   
    50   17   18 1   
    51   18   19 1   
    52   18   20 1   
    53   18   65 1   
    54   20   21 1   
    55   20   59 1   
    56   20   60 1   
    57   21   22 1   
    58   21   61 1   
    59   21   62 1   
    60   22   23 1   
    61   22   63 1   
    62   22   64 1   
    63   23   24 1   
    64   24   25 3   
@<TRIPOS>SUBSTRUCTURE
     1 1R1         1 TEMP              0 ****  ****    0 ROOT
