@<TRIPOS>MOLECULE
1R1
   65    64     1     0     0
SMALL
bcc


@<TRIPOS>ATOM
      1 C16         0.1210   -0.0110   -0.1660 c3        1 1R1     -0.092100
      2 C15         1.6260    0.0210   -0.0970 c3        1 1R1     -0.080400
      3 C14         2.1180   -0.0040    1.3350 c3        1 1R1     -0.079400
      4 C13         3.6290    0.0270    1.3990 c3        1 1R1     -0.079400
      5 C12         4.1200    0.0010    2.8310 c3        1 1R1     -0.078400
      6 C11         5.6320    0.0320    2.8950 c3        1 1R1     -0.079400
      7 C10         6.1220    0.0060    4.3270 c3        1 1R1     -0.078400
      8 C9          7.6340    0.0360    4.3910 c3        1 1R1     -0.079400
      9 C8          8.1250    0.0090    5.8230 c3        1 1R1     -0.078400
     10 C7          9.6370    0.0390    5.8870 c3        1 1R1     -0.079400
     11 C6         10.1280    0.0110    7.3190 c3        1 1R1     -0.078400
     12 C5         11.6400    0.0400    7.3840 c3        1 1R1     -0.079400
     13 C4         12.1320    0.0110    8.8150 c3        1 1R1     -0.077400
     14 C3         13.6440    0.0390    8.8800 c3        1 1R1     -0.079400
     15 C2         14.1340    0.0100   10.3110 c3        1 1R1     -0.083400
     16 C1         15.6540    0.0380   10.3620 c3        1 1R1      0.169400
     17 O1         16.0760    0.0090   11.6920 os        1 1R1     -0.586200
     18 P1         17.7430    0.0330   11.7820 p5        1 1R1      1.334600
     19 O2         18.1610    1.3630   11.2770 o         1 1R1     -0.860500
     20 C1H        17.9040   -0.0370   13.4730 c3        1 1R1     -0.324600
     21 C2H        19.3100    0.3850   13.7770 c3        1 1R1     -0.091400
     22 C3H        19.5520    0.4660   15.2770 c3        1 1R1      0.167800
     23 N1         20.8980    0.7590   15.7370 n2        1 1R1     -0.457200
     24 N2         21.6060    1.6490   15.2250 n1        1 1R1      0.229000
     25 N3         22.4070    2.3940   14.9110 n1        1 1R1     -0.108000
     26 H1         -0.2770   -0.9370    0.3150 hc        1 1R1      0.031033
     27 H2         -0.2200    0.0090   -1.2290 hc        1 1R1      0.031033
     28 H3         -0.3170    0.8720    0.3610 hc        1 1R1      0.031033
     29 H4          2.0470   -0.8580   -0.6520 hc        1 1R1      0.037700
     30 H5          2.0070    0.9460   -0.6060 hc        1 1R1      0.037700
     31 H6          1.6990    0.8750    1.8910 hc        1 1R1      0.038700
     32 H7          1.7380   -0.9290    1.8450 hc        1 1R1      0.038700
     33 H8          4.0080    0.9520    0.8880 hc        1 1R1      0.038700
     34 H9          4.0480   -0.8530    0.8420 hc        1 1R1      0.038700
     35 H10         3.7410   -0.9230    3.3410 hc        1 1R1      0.038700
     36 H11         3.7020    0.8810    3.3870 hc        1 1R1      0.038700
     37 H12         6.0500   -0.8480    2.3380 hc        1 1R1      0.038700
     38 H13         6.0110    0.9570    2.3850 hc        1 1R1      0.038700
     39 H14         5.7430   -0.9180    4.8370 hc        1 1R1      0.038700
     40 H15         5.7050    0.8860    4.8830 hc        1 1R1      0.038700
     41 H16         8.0520   -0.8440    3.8340 hc        1 1R1      0.038700
     42 H17         8.0140    0.9610    3.8810 hc        1 1R1      0.038700
     43 H18         7.7080    0.8890    6.3800 hc        1 1R1      0.037700
     44 H19         7.7450   -0.9150    6.3330 hc        1 1R1      0.037700
     45 H20        10.0170    0.9630    5.3770 hc        1 1R1      0.038700
     46 H21        10.0540   -0.8410    5.3300 hc        1 1R1      0.038700
     47 H22         9.7470   -0.9130    7.8290 hc        1 1R1      0.036700
     48 H23         9.7110    0.8910    7.8760 hc        1 1R1      0.036700
     49 H24        12.0570   -0.8400    6.8260 hc        1 1R1      0.037700
     50 H25        12.0210    0.9640    6.8740 hc        1 1R1      0.037700
     51 H26        11.7510   -0.9120    9.3250 hc        1 1R1      0.034700
     52 H27        11.7160    0.8910    9.3730 hc        1 1R1      0.034700
     53 H28        14.0250    0.9630    8.3710 hc        1 1R1      0.037700
     54 H29        14.0600   -0.8410    8.3230 hc        1 1R1      0.037700
     55 H30        13.7650   -0.9130   10.8280 hc        1 1R1      0.037700
     56 H31        13.7310    0.8900   10.8760 hc        1 1R1      0.037700
     57 H32        16.0500    0.9740    9.8770 h1        1 1R1      0.027700
     58 H33        16.0850   -0.8550    9.8260 h1        1 1R1      0.027700
     59 H35        17.7070   -1.0690   13.8480 hc        1 1R1      0.067200
     60 H36        17.1680    0.6380   13.9690 hc        1 1R1      0.067200
     61 H37        20.0110   -0.3510   13.3020 hc        1 1R1      0.066700
     62 H38        19.4860    1.3840   13.2880 hc        1 1R1      0.066700
     63 H39        19.3460   -0.5390   15.7450 h1        1 1R1      0.053700
     64 H40        18.8270    1.2100   15.7200 h1        1 1R1      0.053700
     65 O3         18.2070   -1.2280   11.1600 o         1 1R1     -0.860500
@<TRIPOS>BOND
     1    1    2 1   
     2    1   26 1   
     3    1   27 1   
     4    1   28 1   
     5    2    3 1   
     6    2   29 1   
     7    2   30 1   
     8    3    4 1   
     9    3   31 1   
    10    3   32 1   
    11    4    5 1   
    12    4   33 1   
    13    4   34 1   
    14    5    6 1   
    15    5   35 1   
    16    5   36 1   
    17    6    7 1   
    18    6   37 1   
    19    6   38 1   
    20    7    8 1   
    21    7   39 1   
    22    7   40 1   
    23    8    9 1   
    24    8   41 1   
    25    8   42 1   
    26    9   10 1   
    27    9   43 1   
    28    9   44 1   
    29   10   11 1   
    30   10   45 1   
    31   10   46 1   
    32   11   12 1   
    33   11   47 1   
    34   11   48 1   
    35   12   13 1   
    36   12   49 1   
    37   12   50 1   
    38   13   14 1   
    39   13   51 1   
    40   13   52 1   
    41   14   15 1   
    42   14   53 1   
    43   14   54 1   
    44   15   16 1   
    45   15   55 1   
    46   15   56 1   
    47   16   17 1   
    48   16   57 1   
    49   16   58 1   
    50   17   18 1   
    51   18   19 1   
    52   18   20 1   
    53   18   65 1   
    54   20   21 1   
    55   20   59 1   
    56   20   60 1   
    57   21   22 1   
    58   21   61 1   
    59   21   62 1   
    60   22   23 1   
    61   22   63 1   
    62   22   64 1   
    63   23   24 1   
    64   24   25 3   
@<TRIPOS>SUBSTRUCTURE
     1 1R1         1 TEMP              0 ****  ****    0 ROOT
