@<TRIPOS>MOLECULE
1R2
   28    29     1     0     0
SMALL
bcc


@<TRIPOS>ATOM
      1 OAA         0.3050   -1.2860   -0.3980 o         1 1R2     -0.818800
      2 CAN         1.4000   -0.6880   -0.2130 c         1 1R2      0.910200
      3 OAC         1.9170   -0.4540    0.9140 o         1 1R2     -0.818800
      4 CAR         2.1670   -0.2240   -1.4500 ca        1 1R2     -0.086600
      5 CAK         1.5870   -0.3320   -2.7190 ca        1 1R2     -0.148000
      6 CAJ         3.4570    0.2910   -1.3180 ca        1 1R2     -0.178000
      7 CAO         4.1720    0.6860   -2.4570 ca        1 1R2      0.096100
      8 OAD         5.4540    1.2010   -2.3810 oh        1 1R2     -0.520100
      9 CAI         3.6250    0.5670   -3.7400 ca        1 1R2     -0.177000
     10 CAQ         2.3230    0.0590   -3.8390 ca        1 1R2      0.060100
     11 OAM         1.7450    0.0680   -5.1190 os        1 1R2     -0.248200
     12 CAP         1.4910   -1.1640   -5.6890 ca        1 1R2      0.137100
     13 CAL         1.0430   -1.1040   -7.0210 ca        1 1R2     -0.112000
     14 CAS         0.7510   -2.3060   -7.6780 ca        1 1R2     -0.151200
     15 NAT         0.2820   -2.2670   -9.0870 no        1 1R2      0.312200
     16 OAE         0.0330   -3.3010   -9.6520 o         1 1R2     -0.223000
     17 OAB         0.1610   -1.2060   -9.6410 o         1 1R2     -0.223000
     18 CAH         0.8950   -3.5470   -7.0360 ca        1 1R2     -0.118000
     19 CAF         1.3400   -3.5730   -5.7160 ca        1 1R2     -0.108000
     20 CAG         1.6410   -2.3960   -5.0350 ca        1 1R2     -0.141000
     21 H2          0.5620   -0.7270   -2.8040 ha        1 1R2      0.169000
     22 H3          3.8870    0.3780   -0.3070 ha        1 1R2      0.162000
     23 H4          5.6880    1.2430   -1.4430 ho        1 1R2      0.414000
     24 H5          4.1880    0.8760   -4.6280 ha        1 1R2      0.144000
     25 H6          0.9270   -0.1280   -7.5200 ha        1 1R2      0.179000
     26 H7          0.6570   -4.4810   -7.5680 ha        1 1R2      0.160000
     27 H8          1.4500   -4.5390   -5.2010 ha        1 1R2      0.146000
     28 H9          1.9830   -2.4280   -3.9870 ha        1 1R2      0.182000
@<TRIPOS>BOND
     1    1    2 1   
     2    2    3 1   
     3    2    4 1   
     4    4    5 ar  
     5    4    6 ar  
     6    5   10 ar  
     7    5   21 1   
     8    6    7 ar  
     9    6   22 1   
    10    7    8 1   
    11    7    9 ar  
    12    8   23 1   
    13    9   10 ar  
    14    9   24 1   
    15   10   11 1   
    16   11   12 1   
    17   12   13 ar  
    18   12   20 ar  
    19   13   14 ar  
    20   13   25 1   
    21   14   15 1   
    22   14   18 ar  
    23   15   16 1   
    24   15   17 1   
    25   18   19 ar  
    26   18   26 1   
    27   19   20 ar  
    28   19   27 1   
    29   20   28 1   
@<TRIPOS>SUBSTRUCTURE
     1 1R2         1 TEMP              0 ****  ****    0 ROOT
