@<TRIPOS>MOLECULE
1R2
   28    29     1     0     0
SMALL
bcc


@<TRIPOS>ATOM
      1 OAA         0.3330   -1.3040   -0.3880 o         1 1R2     -0.818800
      2 CAN         1.4260   -0.7020   -0.2080 c         1 1R2      0.910200
      3 OAC         1.9500   -0.4690    0.9160 o         1 1R2     -0.818800
      4 CAR         2.1830   -0.2310   -1.4490 ca        1 1R2     -0.086600
      5 CAK         1.5950   -0.3380   -2.7140 ca        1 1R2     -0.148000
      6 CAJ         3.4710    0.2890   -1.3240 ca        1 1R2     -0.178000
      7 CAO         4.1770    0.6910   -2.4660 ca        1 1R2      0.096100
      8 OAD         5.4570    1.2120   -2.3980 oh        1 1R2     -0.520100
      9 CAI         3.6220    0.5730   -3.7470 ca        1 1R2     -0.177000
     10 CAQ         2.3220    0.0590   -3.8380 ca        1 1R2      0.060100
     11 OAM         1.7360    0.0690   -5.1140 os        1 1R2     -0.248200
     12 CAP         1.4830   -1.1630   -5.6860 ca        1 1R2      0.137100
     13 CAL         1.0260   -1.1010   -7.0150 ca        1 1R2     -0.112000
     14 CAS         0.7350   -2.3020   -7.6740 ca        1 1R2     -0.151200
     15 NAT         0.2560   -2.2610   -9.0790 no        1 1R2      0.312200
     16 OAE         0.0070   -3.2950   -9.6450 o         1 1R2     -0.223000
     17 OAB         0.1270   -1.1990   -9.6300 o         1 1R2     -0.223000
     18 CAH         0.8880   -3.5440   -7.0350 ca        1 1R2     -0.118000
     19 CAF         1.3420   -3.5720   -5.7190 ca        1 1R2     -0.108000
     20 CAG         1.6420   -2.3960   -5.0370 ca        1 1R2     -0.141000
     21 H2          0.5710   -0.7380   -2.7930 ha        1 1R2      0.169000
     22 H3          3.9070    0.3750   -0.3160 ha        1 1R2      0.162000
     23 H4          5.6970    1.2520   -1.4610 ho        1 1R2      0.414000
     24 H5          4.1780    0.8870   -4.6380 ha        1 1R2      0.144000
     25 H6          0.9020   -0.1240   -7.5100 ha        1 1R2      0.179000
     26 H7          0.6500   -4.4790   -7.5680 ha        1 1R2      0.160000
     27 H8          1.4590   -4.5400   -5.2070 ha        1 1R2      0.146000
     28 H9          1.9910   -2.4290   -3.9900 ha        1 1R2      0.182000
@<TRIPOS>BOND
     1    1    2 1   
     2    2    3 1   
     3    2    4 1   
     4    4    5 ar  
     5    4    6 ar  
     6    5   10 ar  
     7    5   21 1   
     8    6    7 ar  
     9    6   22 1   
    10    7    8 1   
    11    7    9 ar  
    12    8   23 1   
    13    9   10 ar  
    14    9   24 1   
    15   10   11 1   
    16   11   12 1   
    17   12   13 ar  
    18   12   20 ar  
    19   13   14 ar  
    20   13   25 1   
    21   14   15 1   
    22   14   18 ar  
    23   15   16 1   
    24   15   17 1   
    25   18   19 ar  
    26   18   26 1   
    27   19   20 ar  
    28   19   27 1   
    29   20   28 1   
@<TRIPOS>SUBSTRUCTURE
     1 1R2         1 TEMP              0 ****  ****    0 ROOT
