@<TRIPOS>MOLECULE
1R2
   28    29     1     0     0
SMALL
bcc


@<TRIPOS>ATOM
      1 OAA         0.2740   -1.2530   -0.4090 o         1 1R2     -0.818800
      2 CAN         1.3700   -0.6560   -0.2200 c         1 1R2      0.910200
      3 OAC         1.8790   -0.4160    0.9090 o         1 1R2     -0.818800
      4 CAR         2.1470   -0.2030   -1.4540 ca        1 1R2     -0.086600
      5 CAK         1.5760   -0.3190   -2.7270 ca        1 1R2     -0.148000
      6 CAJ         3.4370    0.3090   -1.3170 ca        1 1R2     -0.178000
      7 CAO         4.1620    0.6950   -2.4530 ca        1 1R2      0.096100
      8 OAD         5.4440    1.2070   -2.3720 oh        1 1R2     -0.520100
      9 CAI         3.6230    0.5680   -3.7400 ca        1 1R2     -0.177000
     10 CAQ         2.3210    0.0620   -3.8440 ca        1 1R2      0.060100
     11 OAM         1.7530    0.0630   -5.1280 os        1 1R2     -0.248200
     12 CAP         1.5010   -1.1730   -5.6920 ca        1 1R2      0.137100
     13 CAL         1.0630   -1.1200   -7.0280 ca        1 1R2     -0.112000
     14 CAS         0.7740   -2.3260   -7.6790 ca        1 1R2     -0.151200
     15 NAT         0.3160   -2.2960   -9.0910 no        1 1R2      0.312200
     16 OAE         0.0690   -3.3340   -9.6510 o         1 1R2     -0.223000
     17 OAB         0.2020   -1.2390   -9.6550 o         1 1R2     -0.223000
     18 CAH         0.9090   -3.5630   -7.0270 ca        1 1R2     -0.118000
     19 CAF         1.3430   -3.5810   -5.7030 ca        1 1R2     -0.108000
     20 CAG         1.6420   -2.4000   -5.0280 ca        1 1R2     -0.141000
     21 H2          0.5510   -0.7120   -2.8160 ha        1 1R2      0.169000
     22 H3          3.8600    0.4020   -0.3030 ha        1 1R2      0.162000
     23 H4          5.6710    1.2550   -1.4330 ho        1 1R2      0.414000
     24 H5          4.1940    0.8690   -4.6260 ha        1 1R2      0.144000
     25 H6          0.9540   -0.1480   -7.5350 ha        1 1R2      0.179000
     26 H7          0.6740   -4.5010   -7.5530 ha        1 1R2      0.160000
     27 H8          1.4470   -4.5440   -5.1800 ha        1 1R2      0.146000
     28 H9          1.9750   -2.4250   -3.9770 ha        1 1R2      0.182000
@<TRIPOS>BOND
     1    1    2 1   
     2    2    3 1   
     3    2    4 1   
     4    4    5 ar  
     5    4    6 ar  
     6    5   10 ar  
     7    5   21 1   
     8    6    7 ar  
     9    6   22 1   
    10    7    8 1   
    11    7    9 ar  
    12    8   23 1   
    13    9   10 ar  
    14    9   24 1   
    15   10   11 1   
    16   11   12 1   
    17   12   13 ar  
    18   12   20 ar  
    19   13   14 ar  
    20   13   25 1   
    21   14   15 1   
    22   14   18 ar  
    23   15   16 1   
    24   15   17 1   
    25   18   19 ar  
    26   18   26 1   
    27   19   20 ar  
    28   19   27 1   
    29   20   28 1   
@<TRIPOS>SUBSTRUCTURE
     1 1R2         1 TEMP              0 ****  ****    0 ROOT
