@<TRIPOS>MOLECULE
1R3
   77    75     1     0     0
SMALL
bcc


@<TRIPOS>ATOM
      1 P02        -2.8450   -6.0340    5.0480 p3        1 1R3      2.627000
      2 O01        -2.4440   -4.6130    5.3550 o         1 1R3     -1.220000
      3 O04        -2.1740   -6.9690    6.0250 o         1 1R3     -1.220000
      4 O05        -2.3910   -6.4040    3.5560 o         1 1R3     -0.740000
      5 C06        -1.0940   -5.9960    3.1200 c3        1 1R3      0.055000
      6 C09        -0.8900   -6.4080    1.6800 c3        1 1R3     -0.110000
      7 C10        -1.1890   -7.8820    1.5300 c3        1 1R3     -0.194500
      8 C14        -1.8260   -5.6060    0.7870 c3        1 1R3     -0.194500
      9 C18         0.5750   -6.1350    1.2710 c3        1 1R3      0.001000
     10 O20         1.3470   -7.2570    1.5390 oh        1 1R3     -0.333000
     11 C22         0.6370   -5.8210   -0.2060 c2        1 1R3      0.317000
     12 O23         0.1690   -6.6050   -1.0160 o         1 1R3     -0.422000
     13 N24         1.2630   -4.5820   -0.6640 n         1 1R3     -0.367000
     14 C26         2.3910   -4.6330   -1.5790 c3        1 1R3     -0.020000
     15 C29         2.3770   -3.3940   -2.4780 c3        1 1R3     -0.210000
     16 C32         3.5920   -2.4760   -2.1190 c2        1 1R3      0.287000
     17 O33         4.5540   -2.9390   -1.5470 o         1 1R3     -0.468000
     18 N34         3.5530   -1.0550   -2.4450 n         1 1R3     -0.350000
     19 C36         4.4240   -0.1170   -1.7360 c3        1 1R3     -0.026000
     20 C39         4.0730    1.2970   -2.1340 c3        1 1R3     -0.111000
     21 C42         3.8960    2.1540   -0.8790 c3        1 1R3     -0.675000
     22 S45         3.6710    3.8720   -1.3550 s6        1 1R3      1.861000
     23 O46         2.8990    3.9390   -2.6390 oh        1 1R3     -0.742500
     24 O47         5.0040    4.5140   -1.5430 oh        1 1R3     -0.742500
     25 C48         2.7620    4.7410   -0.0600 c3        1 1R3     -0.657000
     26 C51         1.2320    4.4770   -0.2300 c3        1 1R3     -0.105000
     27 C54         0.4200    5.6880    0.3630 c3        1 1R3     -0.157000
     28 C57        -0.9740    5.1940    0.8460 c3        1 1R3     -0.153000
     29 C60        -2.0640    6.1940    0.3900 c3        1 1R3     -0.159000
     30 C63        -3.4610    5.5150    0.4790 c3        1 1R3     -0.157000
     31 C66        -4.4990    6.3220   -0.3960 c3        1 1R3     -0.158000
     32 C69        -5.8140    5.4710   -0.5670 c3        1 1R3     -0.159000
     33 C72        -6.6840    6.0860   -1.6760 c3        1 1R3     -0.208000
     34 H061       -1.0160   -5.0270    3.1950 h1        1 1R3      0.055500
     35 H062       -0.4110   -6.4220    3.6810 h1        1 1R3      0.055500
     36 H101       -2.1600   -8.0220    1.5380 hc        1 1R3      0.068667
     37 H102       -0.8240   -8.2010    0.6900 hc        1 1R3      0.068667
     38 H103       -0.7770   -8.3800    2.2790 hc        1 1R3      0.068667
     39 H141       -2.7250   -5.5850    1.1900 hc        1 1R3      0.068667
     40 H142       -1.8740   -6.0270   -0.0970 hc        1 1R3      0.068667
     41 H143       -1.4860   -4.6890    0.6960 hc        1 1R3      0.068667
     42 H181        0.9200   -5.3710    1.7820 h1        1 1R3      0.161000
     43 H201        2.1630   -6.9990    1.8330 ho        1 1R3      0.202000
     44 H241        0.9770   -3.7780   -0.3370 hn        1 1R3      0.295000
     45 H261        2.3240   -5.4460   -2.1390 h1        1 1R3      0.085500
     46 H262        3.2190   -4.6560   -1.0710 h1        1 1R3      0.085500
     47 H291        1.5460   -2.9030   -2.3400 hc        1 1R3      0.103500
     48 H292        2.4430   -3.6760   -3.4350 hc        1 1R3      0.103500
     49 H341        3.0010   -0.7500   -3.1310 hn        1 1R3      0.305000
     50 H361        5.3630   -0.2990   -1.9700 h1        1 1R3      0.066000
     51 H362        4.3030   -0.2230   -0.7750 h1        1 1R3      0.066000
     52 H391        4.7940    1.6690   -2.6860 hc        1 1R3      0.073000
     53 H392        3.2490    1.2930   -2.6400 hc        1 1R3      0.073000
     54 H421        3.1130    1.8480   -0.3820 h1        1 1R3      0.102000
     55 H422        4.7070    2.0730   -0.3030 h1        1 1R3      0.102000
     56 H461        3.4600    3.8770   -3.3250 ho        1 1R3      0.199000
     57 H471        4.9190    5.3840   -1.4960 ho        1 1R3      0.199000
     58 H481        2.9370    5.7050   -0.1260 h1        1 1R3      0.082000
     59 H482        3.0540    4.4150    0.8190 h1        1 1R3      0.082000
     60 H511        0.9870    3.6530    0.2470 hc        1 1R3      0.079000
     61 H512        1.0220    4.3770   -1.1820 hc        1 1R3      0.079000
     62 H541        0.3010    6.3730   -0.3310 hc        1 1R3      0.064500
     63 H542        0.9100    6.0710    1.1190 hc        1 1R3      0.064500
     64 H571       -0.9780    5.1310    1.8280 hc        1 1R3      0.065500
     65 H572       -1.1580    4.3170    0.4640 hc        1 1R3      0.065500
     66 H601       -2.0470    6.9850    0.9720 hc        1 1R3      0.082500
     67 H602       -1.8910    6.4640   -0.5310 hc        1 1R3      0.082500
     68 H631       -3.7610    5.5040    1.4190 hc        1 1R3      0.071500
     69 H632       -3.3990    4.6000    0.1460 hc        1 1R3      0.071500
     70 H661       -4.7140    7.1780    0.0540 hc        1 1R3      0.078500
     71 H662       -4.1110    6.5060   -1.2790 hc        1 1R3      0.078500
     72 H691       -6.3160    5.4700    0.2790 hc        1 1R3      0.073500
     73 H692       -5.5800    4.5540   -0.8080 hc        1 1R3      0.073500
     74 H721       -6.1260    6.2910   -2.4500 hc        1 1R3      0.064667
     75 H722       -7.1030    6.9130   -1.3450 hc        1 1R3      0.064667
     76 H723       -7.3890    5.4400   -1.9390 hc        1 1R3      0.064667
     77 O1         -4.3550   -6.1720    5.1690 o         1 1R3     -1.220000
@<TRIPOS>BOND
     1    1    2 1   
     2    1    3 1   
     3    1   77 1   
     4    4    5 1   
     5    5    6 1   
     6    5   34 1   
     7    5   35 1   
     8    6    7 1   
     9    6    8 1   
    10    6    9 1   
    11    7   36 1   
    12    7   37 1   
    13    7   38 1   
    14    8   39 1   
    15    8   40 1   
    16    8   41 1   
    17    9   10 1   
    18    9   11 1   
    19    9   42 1   
    20   10   43 1   
    21   11   12 1   
    22   11   13 1   
    23   13   14 1   
    24   13   44 1   
    25   14   15 1   
    26   14   45 1   
    27   14   46 1   
    28   15   16 1   
    29   15   47 1   
    30   15   48 1   
    31   16   17 1   
    32   16   18 1   
    33   18   19 1   
    34   18   49 1   
    35   19   20 1   
    36   19   50 1   
    37   19   51 1   
    38   20   21 1   
    39   20   52 1   
    40   20   53 1   
    41   21   22 1   
    42   21   54 1   
    43   21   55 1   
    44   22   23 1   
    45   22   24 1   
    46   22   25 1   
    47   23   56 1   
    48   24   57 1   
    49   25   26 1   
    50   25   58 1   
    51   25   59 1   
    52   26   27 1   
    53   26   60 1   
    54   26   61 1   
    55   27   28 1   
    56   27   62 1   
    57   27   63 1   
    58   28   29 1   
    59   28   64 1   
    60   28   65 1   
    61   29   30 1   
    62   29   66 1   
    63   29   67 1   
    64   30   31 1   
    65   30   68 1   
    66   30   69 1   
    67   31   32 1   
    68   31   70 1   
    69   31   71 1   
    70   32   33 1   
    71   32   72 1   
    72   32   73 1   
    73   33   74 1   
    74   33   75 1   
    75   33   76 1   
@<TRIPOS>SUBSTRUCTURE
     1 1R3         1 TEMP              0 ****  ****    0 ROOT
