@<TRIPOS>MOLECULE
1R3
   77    76     1     0     0
SMALL
bcc


@<TRIPOS>ATOM
      1 P02        -4.1330    0.5990    2.3420 p5        1 1R3      1.333900
      2 O01        -3.7690   -0.8610    2.1000 o         1 1R3     -0.918833
      3 O04        -3.0720    1.4190    1.6540 o         1 1R3     -0.918833
      4 O05        -5.4990    0.7840    1.3180 os        1 1R3     -0.559200
      5 C06        -5.2600    0.5060   -0.0040 c3        1 1R3      0.227400
      6 C09        -6.1110   -0.6920   -0.5230 c3        1 1R3     -0.111000
      7 C10        -6.3950   -1.6740    0.6010 c3        1 1R3     -0.091600
      8 C14        -7.4320   -0.1310   -1.0420 c3        1 1R3     -0.091600
      9 C18        -5.4280   -1.4150   -1.6980 c3        1 1R3      0.094100
     10 O20        -4.7930   -0.5310   -2.6060 oh        1 1R3     -0.615800
     11 C22        -4.4420   -2.5370   -1.3100 c         1 1R3      0.622100
     12 O23        -4.5080   -3.6310   -1.9270 o         1 1R3     -0.694100
     13 N24        -3.4680   -2.2720   -0.3870 n         1 1R3     -0.544900
     14 C26        -2.5210   -3.2940   -0.0240 c3        1 1R3      0.111000
     15 C29        -1.6830   -2.9300    1.2010 c3        1 1R3     -0.170400
     16 C32        -0.6720   -1.8440    0.8750 c         1 1R3      0.659100
     17 O33         0.5170   -2.1600    0.5640 o         1 1R3     -0.778100
     18 N34        -1.0920   -0.5550    0.9210 n         1 1R3     -0.518900
     19 C36        -0.2340    0.5660    0.6760 c3        1 1R3      0.081000
     20 C39         0.9340    0.7200    1.6630 c3        1 1R3     -0.081400
     21 C42         2.1520    1.3230    1.0080 c3        1 1R3     -0.137600
     22 S45         3.3920    0.1270    0.6840 s6        1 1R3      0.284800
     23 O46         3.3860   -1.4770    1.3040 oh        1 1R3     -0.657700
     24 O47         2.6080   -0.5110   -0.6880 oh        1 1R3     -0.657700
     25 C48         4.6530    0.8060   -0.3710 c3        1 1R3     -0.125600
     26 C51         5.9960    0.4130    0.1760 c3        1 1R3     -0.036400
     27 C54         7.1270    0.9090   -0.7030 c3        1 1R3     -0.077400
     28 C57         8.4770    0.5210   -0.1380 c3        1 1R3     -0.079400
     29 C60         9.6060    1.0120   -1.0190 c3        1 1R3     -0.078400
     30 C63        10.9550    0.6250   -0.4530 c3        1 1R3     -0.079400
     31 C66        12.0840    1.1150   -1.3340 c3        1 1R3     -0.079400
     32 C69        13.4340    0.7280   -0.7690 c3        1 1R3     -0.080400
     33 C72        14.5610    1.2140   -1.6440 c3        1 1R3     -0.091100
     34 H061       -5.5360    1.4030   -0.6370 h1        1 1R3     -0.003800
     35 H062       -4.1600    0.3080   -0.1660 h1        1 1R3     -0.003800
     36 H101       -7.3400   -1.3920    1.1260 hc        1 1R3      0.034533
     37 H102       -6.5010   -2.7140    0.2100 hc        1 1R3      0.034533
     38 H103       -5.5660   -1.6250    1.3650 hc        1 1R3      0.034533
     39 H141       -7.2610    0.4690   -1.9670 hc        1 1R3      0.034533
     40 H142       -8.1470   -0.9560   -1.2790 hc        1 1R3      0.034533
     41 H143       -7.8840    0.5260   -0.2600 hc        1 1R3      0.034533
     42 H181       -6.2210   -1.9160   -2.3320 h1        1 1R3      0.064700
     43 H201       -4.1310   -0.0290   -2.1130 ho        1 1R3      0.418000
     44 H241       -3.6510   -1.5660    0.3330 hn        1 1R3      0.400500
     45 H261       -3.0580   -4.2640    0.1920 h1        1 1R3      0.024700
     46 H262       -1.8440   -3.4840   -0.9060 h1        1 1R3      0.024700
     47 H291       -2.3610   -2.5830    2.0380 hc        1 1R3      0.093200
     48 H292       -1.1180   -3.8390    1.5260 hc        1 1R3      0.093200
     49 H341       -2.0360   -0.3250    1.2700 hn        1 1R3      0.419500
     50 H361        0.1820    0.4860   -0.3710 h1        1 1R3      0.067700
     51 H362       -0.8990    1.4820    0.7440 h1        1 1R3      0.067700
     52 H391        0.5900    1.3640    2.5130 hc        1 1R3      0.049200
     53 H392        1.2110   -0.2800    2.1000 hc        1 1R3      0.049200
     54 H421        1.8570    1.8960    0.0950 h1        1 1R3      0.067200
     55 H422        2.6250    2.0610    1.7040 h1        1 1R3      0.067200
     56 H461        2.6220   -2.0350    1.1750 ho        1 1R3      0.465500
     57 H471        1.7660   -0.9340   -0.4620 ho        1 1R3      0.465500
     58 H481        4.5500    0.4560   -1.4270 h1        1 1R3      0.069200
     59 H482        4.5400    1.9150   -0.3790 h1        1 1R3      0.069200
     60 H511        6.1250    0.8300    1.2100 hc        1 1R3      0.036700
     61 H512        6.0540   -0.7060    0.2610 hc        1 1R3      0.036700
     62 H541        7.0130    0.4820   -1.7340 hc        1 1R3      0.034700
     63 H542        7.0640    2.0250   -0.7990 hc        1 1R3      0.034700
     64 H571        8.5910    0.9510    0.8930 hc        1 1R3      0.037200
     65 H572        8.5350   -0.5950   -0.0380 hc        1 1R3      0.037200
     66 H601        9.4920    0.5820   -2.0490 hc        1 1R3      0.036700
     67 H602        9.5460    2.1280   -1.1190 hc        1 1R3      0.036700
     68 H631       11.0680    1.0550    0.5770 hc        1 1R3      0.038200
     69 H632       11.0140   -0.4910   -0.3530 hc        1 1R3      0.038200
     70 H661       11.9710    0.6850   -2.3640 hc        1 1R3      0.037700
     71 H662       12.0250    2.2310   -1.4350 hc        1 1R3      0.037700
     72 H691       13.5440    1.1580    0.2610 hc        1 1R3      0.037200
     73 H692       13.4900   -0.3880   -0.6680 hc        1 1R3      0.037200
     74 H721       14.5360    2.3270   -1.7360 hc        1 1R3      0.028367
     75 H722       15.5460    0.9190   -1.2090 hc        1 1R3      0.028367
     76 H723       14.4810    0.7770   -2.6680 hc        1 1R3      0.028367
     77 O1         -4.6520    0.9940    3.6820 o         1 1R3     -0.918833
@<TRIPOS>BOND
     1    1    2 1   
     2    1    3 1   
     3    1    4 1   
     4    1   77 1   
     5    4    5 1   
     6    5    6 1   
     7    5   34 1   
     8    5   35 1   
     9    6    7 1   
    10    6    8 1   
    11    6    9 1   
    12    7   36 1   
    13    7   37 1   
    14    7   38 1   
    15    8   39 1   
    16    8   40 1   
    17    8   41 1   
    18    9   10 1   
    19    9   11 1   
    20    9   42 1   
    21   10   43 1   
    22   11   12 2   
    23   11   13 1   
    24   13   14 1   
    25   13   44 1   
    26   14   15 1   
    27   14   45 1   
    28   14   46 1   
    29   15   16 1   
    30   15   47 1   
    31   15   48 1   
    32   16   17 2   
    33   16   18 1   
    34   18   19 1   
    35   18   49 1   
    36   19   20 1   
    37   19   50 1   
    38   19   51 1   
    39   20   21 1   
    40   20   52 1   
    41   20   53 1   
    42   21   22 1   
    43   21   54 1   
    44   21   55 1   
    45   22   23 1   
    46   22   24 1   
    47   22   25 1   
    48   23   56 1   
    49   24   57 1   
    50   25   26 1   
    51   25   58 1   
    52   25   59 1   
    53   26   27 1   
    54   26   60 1   
    55   26   61 1   
    56   27   28 1   
    57   27   62 1   
    58   27   63 1   
    59   28   29 1   
    60   28   64 1   
    61   28   65 1   
    62   29   30 1   
    63   29   66 1   
    64   29   67 1   
    65   30   31 1   
    66   30   68 1   
    67   30   69 1   
    68   31   32 1   
    69   31   70 1   
    70   31   71 1   
    71   32   33 1   
    72   32   72 1   
    73   32   73 1   
    74   33   74 1   
    75   33   75 1   
    76   33   76 1   
@<TRIPOS>SUBSTRUCTURE
     1 1R3         1 TEMP              0 ****  ****    0 ROOT
