@<TRIPOS>MOLECULE
1R4
   52    45     1     0     0
SMALL
bcc


@<TRIPOS>ATOM
      1 O01        -3.0340   -0.3350   -2.4340 o         1 1R4     -0.401000
      2 C02        -1.9690    0.2990   -2.2900 c1        1 1R4      0.255000
      3 C03        -1.2660    0.2970   -0.9570 c2        1 1R4      0.013000
      4 N04        -2.2390    0.3630    0.0930 n3        1 1R4     -0.373000
      5 C05        -2.6580    1.6390    0.6050 c1        1 1R4      0.308000
      6 C06        -3.6600    1.7070    1.7970 c2        1 1R4     -0.174000
      7 C07        -4.0190    3.1510    2.0690 c3        1 1R4     -0.142000
      8 C08        -4.8240    3.2350    3.3240 c3        1 1R4     -0.128000
      9 C09        -4.3320    4.4180    4.1740 c2        1 1R4      0.308000
     10 O10        -4.3470    5.6070    3.6900 o         1 1R4     -0.579500
     11 O11        -3.9000    4.2140    5.3820 o         1 1R4     -0.579500
     12 O13        -2.1570    2.6400    0.1900 o         1 1R4     -0.401000
     13 C14        -0.4560   -0.9680   -0.8130 c3        1 1R4     -0.300000
     14 S15         1.0670   -0.6010    0.0710 ss        1 1R4      0.101000
     15 C16         2.2680   -1.9210   -0.2150 c3        1 1R4     -0.370000
     16 C17         3.5880   -1.5380    0.4010 c2        1 1R4      0.295000
     17 C18         4.8000   -2.5010    0.2940 c2        1 1R4     -0.111000
     18 C19         4.6450   -3.7330   -0.3280 c2        1 1R4     -0.091000
     19 C20         5.6750   -4.6420   -0.3170 c1        1 1R4     -0.060000
     20 C21         6.8560   -4.3360    0.3080 c1        1 1R4     -0.130000
     21 N22         7.9480   -5.3010    0.3080 n1        1 1R4      0.565000
     22 O23         9.0570   -5.0920   -0.4970 os        1 1R4     -0.505500
     23 O24         7.8540   -6.3310    0.9650 o         1 1R4     -0.364000
     24 C25         7.0140   -3.1180    0.9250 c1        1 1R4     -0.104000
     25 C26         5.9780   -2.1950    0.9170 c1        1 1R4     -0.112000
     26 O27         3.7120   -0.4720    0.9380 o         1 1R4     -0.294000
     27 N28        -1.4350    1.0730   -3.3910 n3        1 1R4     -0.320000
     28 C29        -2.1100    1.0750   -4.6580 c3        1 1R4     -0.117000
     29 C30        -2.0940    2.5000   -5.2510 c1        1 1R4      0.306000
     30 O31        -2.8210    3.4180   -4.7320 os        1 1R4     -0.505500
     31 O32        -1.4540    2.7300   -6.3170 o         1 1R4     -0.556000
     32 N01        -6.1970    3.4240    2.9970 n3        1 1R4     -0.327000
     33 H031       -0.6720    1.0720   -0.8990 h4        1 1R4      0.151000
     34 H041       -2.5680   -0.3940    0.4500 hn        1 1R4      0.242000
     35 H062       -4.4680    1.2110    1.5730 ha        1 1R4      0.106000
     36 H061       -3.2480    1.3140    2.5930 ha        1 1R4      0.106000
     37 H072       -4.5410    3.4980    1.3260 hc        1 1R4      0.095000
     38 H071       -3.2190    3.6680    2.1670 hc        1 1R4      0.095000
     39 H081       -4.7190    2.3800    3.8480 h1        1 1R4      0.080000
     40 H141       -0.9680   -1.6290   -0.3120 h1        1 1R4      0.128500
     41 H142       -0.2460   -1.3180   -1.6900 h1        1 1R4      0.128500
     42 H161        1.9480   -2.7440    0.1910 h1        1 1R4      0.173500
     43 H162        2.3820   -2.0560   -1.1780 h1        1 1R4      0.173500
     44 H191        3.7900   -3.9340   -0.8600 ha        1 1R4      0.243000
     45 H201        5.5650   -5.5050   -0.7520 ha        1 1R4      0.192000
     46 H251        7.8460   -2.9060    1.3650 ha        1 1R4      0.154000
     47 H261        6.0950   -1.2970    1.3710 ha        1 1R4      0.149000
     48 H281       -0.6300    1.5550   -3.2830 hn        1 1R4      0.231000
     49 H292       -1.6380    0.4430   -5.2940 h1        1 1R4      0.096500
     50 H291       -3.0620    0.7740   -4.5300 h1        1 1R4      0.096500
     51 H01        -6.4270    4.2880    3.1460 hn        1 1R4      0.126500
     52 H011       -6.7130    2.8770    3.5190 hn        1 1R4      0.126500
@<TRIPOS>BOND
     1    1    2 1   
     2    2   27 1   
     3    3    4 1   
     4    3   13 1   
     5    3   33 1   
     6    4    5 1   
     7    4   34 1   
     8    5   12 1   
     9    6    7 1   
    10    6   35 1   
    11    6   36 1   
    12    7    8 1   
    13    7   37 1   
    14    7   38 1   
    15    8    9 1   
    16    8   32 1   
    17    8   39 1   
    18    9   10 1   
    19    9   11 1   
    20   13   14 1   
    21   13   40 1   
    22   13   41 1   
    23   14   15 1   
    24   15   16 1   
    25   15   42 1   
    26   15   43 1   
    27   16   17 1   
    28   16   26 1   
    29   17   18 1   
    30   17   25 1   
    31   18   19 1   
    32   18   44 1   
    33   19   45 1   
    34   20   24 1   
    35   21   23 1   
    36   24   46 1   
    37   25   47 1   
    38   27   28 1   
    39   27   48 1   
    40   28   29 1   
    41   28   49 1   
    42   28   50 1   
    43   29   31 1   
    44   32   51 1   
    45   32   52 1   
@<TRIPOS>SUBSTRUCTURE
     1 1R4         1 TEMP              0 ****  ****    0 ROOT
