@<TRIPOS>MOLECULE
1R4
   55    55     1     0     0
SMALL
bcc


@<TRIPOS>ATOM
      1 O01         0.3390   -0.9480    0.0310 o         1 1R4     -0.593100
      2 C02         1.2210   -0.1210   -0.2710 c         1 1R4      0.645100
      3 C03         2.1540    0.4580    0.8220 c3        1 1R4      0.056500
      4 N04         1.6630    0.0900    2.1850 ny        1 1R4     -0.658800
      5 C05         0.5270    0.9420    2.6840 c         1 1R4      0.608100
      6 C06        -0.5220    0.2340    3.5030 c3        1 1R4     -0.119400
      7 C07        -1.1090    1.1610    4.5540 c3        1 1R4     -0.079400
      8 C08        -0.3770    1.0330    5.8850 c3        1 1R4     -0.067500
      9 C09         1.1850    1.3480    5.7600 c         1 1R4      0.955600
     10 O10         1.6730    2.0590    6.6630 o         1 1R4     -0.777300
     11 O11         1.7640    0.8140    4.7830 o         1 1R4     -0.777300
     12 O13         0.5270    2.1230    2.3570 o         1 1R4     -0.464100
     13 C14         3.5690   -0.0700    0.5710 c3        1 1R4     -0.078300
     14 S15         4.6510    0.3660    1.8930 ss        1 1R4     -0.181200
     15 C16         5.3590   -1.1550    2.4240 c3        1 1R4     -0.154300
     16 C17         4.4490   -2.1630    3.0630 c         1 1R4      0.617700
     17 C18         5.0910   -3.2190    3.8700 ca        1 1R4     -0.152600
     18 C19         4.2990   -3.9540    4.7630 ca        1 1R4     -0.085000
     19 C20         4.8610   -4.9560    5.5500 ca        1 1R4     -0.078500
     20 C21         6.2330   -5.2260    5.4330 ca        1 1R4     -0.134200
     21 N22         6.8460   -6.2970    6.2720 no        1 1R4      0.310200
     22 O23         8.0190   -6.5190    6.1520 o         1 1R4     -0.185000
     23 O24         6.1440   -6.8980    7.0370 o         1 1R4     -0.185000
     24 C25         7.0370   -4.5030    4.5370 ca        1 1R4     -0.078500
     25 C26         6.4590   -3.5010    3.7610 ca        1 1R4     -0.085000
     26 O27         3.2190   -2.1140    2.9110 o         1 1R4     -0.593100
     27 N28         1.3830    0.3760   -1.5460 ns        1 1R4     -0.502900
     28 C29         0.8490   -0.3330   -2.6780 c3        1 1R4     -0.024000
     29 C30         1.8430   -1.2890   -3.3190 c         1 1R4      0.599100
     30 O31         1.4520   -2.0240   -4.3910 oh        1 1R4     -0.545100
     31 O32         3.0060   -1.4730   -2.9610 o         1 1R4     -0.496000
     32 N01        -0.9620    1.9190    6.9390 nz        1 1R4     -0.830600
     33 H031        2.1540    1.5920    0.7650 hx        1 1R4      0.144700
     34 H041        1.3850   -0.9020    2.1910 hn        1 1R4      0.502800
     35 H062       -1.3280   -0.0900    2.7860 hc        1 1R4      0.105200
     36 H061       -0.0960   -0.6820    3.9950 hc        1 1R4      0.105200
     37 H072       -2.1910    0.8870    4.6890 hc        1 1R4      0.073200
     38 H071       -1.0680    2.2230    4.1860 hc        1 1R4      0.073200
     39 H081       -0.4460   -0.0280    6.2610 hx        1 1R4      0.101700
     40 H141        3.9570    0.4020   -0.3700 h1        1 1R4      0.114700
     41 H142        3.5520   -1.1780    0.4110 h1        1 1R4      0.114700
     42 H161        6.1360   -0.8270    3.1700 h1        1 1R4      0.126200
     43 H162        5.8920   -1.6600    1.5750 h1        1 1R4      0.126200
     44 H191        3.2200   -3.7360    4.8390 ha        1 1R4      0.157500
     45 H201        4.2360   -5.5330    6.2560 ha        1 1R4      0.186000
     46 H251        8.1150   -4.7280    4.4490 ha        1 1R4      0.186000
     47 H261        7.0960   -2.9430    3.0570 ha        1 1R4      0.157500
     48 H281        0.5290   -1.8320   -4.6150 ho        1 1R4      0.437000
     49 H292       -0.0630   -0.9200   -2.3600 h1        1 1R4      0.108700
     50 H291        0.5400    0.4290   -3.4520 h1        1 1R4      0.108700
     51 H01        -0.1660    2.2330    7.5400 hn        1 1R4      0.458467
     52 H011       -1.6520    1.4260    7.5000 hn        1 1R4      0.458467
     53 H042        2.4660    0.1990    2.8620 hn        1 1R4      0.502800
     54 H282        2.2010    0.9190   -1.7320 hn        1 1R4      0.327500
     55 H013       -1.3890    2.7440    6.5160 hn        1 1R4      0.458467
@<TRIPOS>BOND
     1    1    2 2   
     2    2    3 1   
     3    2   27 1   
     4    3    4 1   
     5    3   13 1   
     6    3   33 1   
     7    4    5 1   
     8    4   34 1   
     9    4   53 1   
    10    5    6 1   
    11    5   12 2   
    12    6    7 1   
    13    6   35 1   
    14    6   36 1   
    15    7    8 1   
    16    7   37 1   
    17    7   38 1   
    18    8    9 1   
    19    8   32 1   
    20    8   39 1   
    21    9   10 1   
    22    9   11 1   
    23   13   14 1   
    24   13   40 1   
    25   13   41 1   
    26   14   15 1   
    27   15   16 1   
    28   15   42 1   
    29   15   43 1   
    30   16   17 1   
    31   16   26 2   
    32   17   18 ar  
    33   17   25 ar  
    34   18   19 ar  
    35   18   44 1   
    36   19   20 ar  
    37   19   45 1   
    38   20   21 1   
    39   20   24 ar  
    40   21   22 1   
    41   21   23 1   
    42   24   25 ar  
    43   24   46 1   
    44   25   47 1   
    45   27   28 1   
    46   27   54 1   
    47   28   29 1   
    48   28   49 1   
    49   28   50 1   
    50   29   30 1   
    51   29   31 2   
    52   30   48 1   
    53   32   51 1   
    54   32   52 1   
    55   32   55 1   
@<TRIPOS>SUBSTRUCTURE
     1 1R4         1 TEMP              0 ****  ****    0 ROOT
