@<TRIPOS>MOLECULE
1R4
   55    55     1     0     0
SMALL
bcc


@<TRIPOS>ATOM
      1 O01         0.2740   -0.9910    0.0750 o         1 1R4     -0.593100
      2 C02         1.1560   -0.1800   -0.2660 c         1 1R4      0.645100
      3 C03         2.1230    0.4110    0.7900 c3        1 1R4      0.056500
      4 N04         1.6610    0.0800    2.1720 n4        1 1R4     -0.658800
      5 C05         0.5470    0.9560    2.6790 c         1 1R4      0.607100
      6 C06        -0.4900    0.2770    3.5370 c3        1 1R4     -0.119400
      7 C07        -1.0410    1.2330    4.5820 c3        1 1R4     -0.079400
      8 C08        -0.2790    1.1240    5.8990 c3        1 1R4     -0.067500
      9 C09         1.2830    1.4150    5.7310 c         1 1R4      0.955600
     10 O10         1.8000    2.1380    6.6080 o         1 1R4     -0.777300
     11 O11         1.8310    0.8550    4.7520 o         1 1R4     -0.777300
     12 O13         0.5520    2.1290    2.3280 o         1 1R4     -0.464100
     13 C14         3.5250   -0.1390    0.5170 c3        1 1R4     -0.078300
     14 S15         4.6440    0.3180    1.8010 ss        1 1R4     -0.182200
     15 C16         5.3490   -1.1970    2.3520 c3        1 1R4     -0.154300
     16 C17         4.4460   -2.1770    3.0420 c         1 1R4      0.617700
     17 C18         5.0970   -3.2130    3.8660 ca        1 1R4     -0.152600
     18 C19         4.3220   -3.9070    4.8060 ca        1 1R4     -0.085000
     19 C20         4.8940   -4.8890    5.6110 ca        1 1R4     -0.078500
     20 C21         6.2580   -5.1810    5.4640 ca        1 1R4     -0.134200
     21 N22         6.8830   -6.2310    6.3220 no        1 1R4      0.310200
     22 O23         8.0490   -6.4730    6.1760 o         1 1R4     -0.185000
     23 O24         6.1950   -6.7960    7.1270 o         1 1R4     -0.185000
     24 C25         7.0450   -4.5010    4.5200 ca        1 1R4     -0.078500
     25 C26         6.4570   -3.5180    3.7270 ca        1 1R4     -0.085000
     26 O27         3.2130   -2.1210    2.9160 o         1 1R4     -0.592100
     27 N28         1.2920    0.2880   -1.5560 n         1 1R4     -0.502900
     28 C29         0.7210   -0.4380   -2.6590 c3        1 1R4     -0.024000
     29 C30         1.6880   -1.4170   -3.3050 c         1 1R4      0.599100
     30 O31         1.2620   -2.1690   -4.3520 oh        1 1R4     -0.545100
     31 O32         2.8590   -1.6050   -2.9740 o         1 1R4     -0.496000
     32 N01        -0.8290    2.0380    6.9470 n4        1 1R4     -0.830600
     33 H031        2.1350    1.5430    0.7080 hx        1 1R4      0.144700
     34 H041        1.3730   -0.9090    2.2080 hn        1 1R4      0.502300
     35 H062       -0.0640   -0.6340    4.0390 hc        1 1R4      0.105700
     36 H061       -1.3170   -0.0510    2.8460 hc        1 1R4      0.105700
     37 H072       -0.9960    2.2870    4.1920 hc        1 1R4      0.073200
     38 H071       -2.1230    0.9770    4.7480 hc        1 1R4      0.073200
     39 H081       -0.3530    0.0720    6.2980 hx        1 1R4      0.101700
     40 H141        3.4910   -1.2510    0.3860 h1        1 1R4      0.114700
     41 H142        3.8940    0.3040   -0.4450 h1        1 1R4      0.114700
     42 H161        5.8540   -1.7300    1.5030 h1        1 1R4      0.126200
     43 H162        6.1500   -0.8580    3.0680 h1        1 1R4      0.126200
     44 H191        3.2490   -3.6710    4.9050 ha        1 1R4      0.157000
     45 H201        4.2830   -5.4320    6.3540 ha        1 1R4      0.186000
     46 H251        8.1170   -4.7430    4.4090 ha        1 1R4      0.186000
     47 H261        7.0810   -2.9930    2.9860 ha        1 1R4      0.157000
     48 H281        0.3350   -1.9730   -4.5550 ho        1 1R4      0.437000
     49 H292        0.3990    0.3110   -3.4400 h1        1 1R4      0.108700
     50 H291       -0.1880   -1.0090   -2.3050 h1        1 1R4      0.108700
     51 H01        -1.5120    1.5660    7.5350 hn        1 1R4      0.458467
     52 H011       -0.0150    2.3530    7.5230 hn        1 1R4      0.458467
     53 H042        2.4810    0.1950    2.8280 hn        1 1R4      0.502300
     54 H282        2.1100    0.8180   -1.7730 hn        1 1R4      0.327500
     55 H013       -1.2550    2.8600    6.5170 hn        1 1R4      0.458467
@<TRIPOS>BOND
     1    1    2 2   
     2    2    3 1   
     3    2   27 1   
     4    3    4 1   
     5    3   13 1   
     6    3   33 1   
     7    4    5 1   
     8    4   34 1   
     9    4   53 1   
    10    5    6 1   
    11    5   12 2   
    12    6    7 1   
    13    6   35 1   
    14    6   36 1   
    15    7    8 1   
    16    7   37 1   
    17    7   38 1   
    18    8    9 1   
    19    8   32 1   
    20    8   39 1   
    21    9   10 1   
    22    9   11 1   
    23   13   14 1   
    24   13   40 1   
    25   13   41 1   
    26   14   15 1   
    27   15   16 1   
    28   15   42 1   
    29   15   43 1   
    30   16   17 1   
    31   16   26 2   
    32   17   18 ar  
    33   17   25 ar  
    34   18   19 ar  
    35   18   44 1   
    36   19   20 ar  
    37   19   45 1   
    38   20   21 1   
    39   20   24 ar  
    40   21   22 1   
    41   21   23 1   
    42   24   25 ar  
    43   24   46 1   
    44   25   47 1   
    45   27   28 1   
    46   27   54 1   
    47   28   29 1   
    48   28   49 1   
    49   28   50 1   
    50   29   30 1   
    51   29   31 2   
    52   30   48 1   
    53   32   51 1   
    54   32   52 1   
    55   32   55 1   
@<TRIPOS>SUBSTRUCTURE
     1 1R4         1 TEMP              0 ****  ****    0 ROOT
