@<TRIPOS>MOLECULE
1R4
   52    52     1     0     0
SMALL
bcc


@<TRIPOS>ATOM
      1 O01        -1.0260   -1.3490    2.2450 o         1 1R4     -0.627100
      2 C02        -0.9910   -1.5880    1.0190 c         1 1R4      0.609100
      3 C03        -1.4010   -0.4910   -0.0080 c3        1 1R4      0.031700
      4 N04        -2.5090    0.2930    0.4700 n         1 1R4     -0.554900
      5 C05        -3.7700    0.2300   -0.1000 c         1 1R4      0.663100
      6 C06        -4.9010    0.9440    0.6160 c3        1 1R4     -0.145400
      7 C07        -4.7610    2.4500    0.5730 c3        1 1R4     -0.062400
      8 C08        -5.9340    3.1450    1.2700 c3        1 1R4      0.018500
      9 C09        -5.5750    4.6580    1.4600 c         1 1R4      0.888600
     10 O10        -6.4230    5.5210    1.0890 o         1 1R4     -0.844800
     11 O11        -4.4700    4.9340    2.0020 o         1 1R4     -0.844800
     12 O13        -3.9620   -0.3900   -1.1680 o         1 1R4     -0.637100
     13 C14        -0.1310    0.3420   -0.2670 c3        1 1R4     -0.031300
     14 S15         0.3120    0.4380   -1.9740 ss        1 1R4     -0.270200
     15 C16         1.3670   -0.9440   -2.2790 c3        1 1R4     -0.151300
     16 C17         2.7600   -0.4890   -2.5770 c         1 1R4      0.604700
     17 C18         3.6930   -0.3380   -1.4290 ca        1 1R4     -0.122600
     18 C19         4.4050    0.8630   -1.2920 ca        1 1R4     -0.106500
     19 C20         5.3190    1.0260   -0.2590 ca        1 1R4     -0.081500
     20 C21         5.5290   -0.0350    0.6410 ca        1 1R4     -0.175200
     21 N22         6.5300    0.1270    1.7240 no        1 1R4      0.311200
     22 O23         6.7600   -0.7900    2.4660 o         1 1R4     -0.228500
     23 O24         7.1110    1.1790    1.8340 o         1 1R4     -0.228500
     24 C25         4.8150   -1.2360    0.5190 ca        1 1R4     -0.081500
     25 C26         3.8970   -1.3820   -0.5240 ca        1 1R4     -0.106500
     26 O27         3.1420   -0.2500   -3.7310 o         1 1R4     -0.545100
     27 N28        -0.6340   -2.8190    0.5070 n         1 1R4     -0.507900
     28 C29         0.2590   -3.6960    1.2280 c3        1 1R4     -0.055000
     29 C30         1.6340   -3.8670    0.5390 c         1 1R4      0.887600
     30 O31         2.6120   -4.2350    1.2400 o         1 1R4     -0.849300
     31 O32         1.7280   -3.6170   -0.7070 o         1 1R4     -0.849300
     32 N01        -7.2170    2.9120    0.6190 n3        1 1R4     -0.895800
     33 H031       -1.7240   -0.9700   -0.9850 h1        1 1R4      0.112700
     34 H041       -2.4140    0.6800    1.3810 hn        1 1R4      0.325500
     35 H062       -5.8550    0.6320    0.1140 hc        1 1R4      0.066700
     36 H061       -4.9470    0.5970    1.6820 hc        1 1R4      0.066700
     37 H072       -3.8240    2.7760    1.1010 hc        1 1R4      0.056200
     38 H071       -4.6860    2.7930   -0.4910 hc        1 1R4      0.056200
     39 H081       -6.0270    2.7150    2.3110 h1        1 1R4      0.040700
     40 H141       -0.2850    1.4110    0.0330 h1        1 1R4      0.091200
     41 H142        0.7200   -0.0560    0.3390 h1        1 1R4      0.091200
     42 H161        1.3720   -1.6900   -1.4340 h1        1 1R4      0.130200
     43 H162        0.9550   -1.4710   -3.1790 h1        1 1R4      0.130200
     44 H191        4.2380    1.6780   -2.0130 ha        1 1R4      0.194500
     45 H201        5.8750    1.9710   -0.1460 ha        1 1R4      0.174000
     46 H251        4.9580   -2.0670    1.2350 ha        1 1R4      0.174000
     47 H261        3.3350   -2.3440   -0.6110 ha        1 1R4      0.194500
     48 H281       -0.4880   -2.8580   -0.4840 hn        1 1R4      0.306500
     49 H292        0.4160   -3.3190    2.2750 h1        1 1R4      0.056700
     50 H291       -0.2260   -4.7100    1.2840 h1        1 1R4      0.056700
     51 H01        -7.8470    3.6310    0.9380 hn        1 1R4      0.331300
     52 H011       -7.1060    3.0520   -0.3700 hn        1 1R4      0.331300
@<TRIPOS>BOND
     1    1    2 2   
     2    2    3 1   
     3    2   27 1   
     4    3    4 1   
     5    3   13 1   
     6    3   33 1   
     7    4    5 1   
     8    4   34 1   
     9    5    6 1   
    10    5   12 2   
    11    6    7 1   
    12    6   35 1   
    13    6   36 1   
    14    7    8 1   
    15    7   37 1   
    16    7   38 1   
    17    8    9 1   
    18    8   32 1   
    19    8   39 1   
    20    9   10 1   
    21    9   11 1   
    22   13   14 1   
    23   13   40 1   
    24   13   41 1   
    25   14   15 1   
    26   15   16 1   
    27   15   42 1   
    28   15   43 1   
    29   16   17 1   
    30   16   26 2   
    31   17   18 ar  
    32   17   25 ar  
    33   18   19 ar  
    34   18   44 1   
    35   19   20 ar  
    36   19   45 1   
    37   20   21 1   
    38   20   24 ar  
    39   21   22 1   
    40   21   23 1   
    41   24   25 ar  
    42   24   46 1   
    43   25   47 1   
    44   27   28 1   
    45   27   48 1   
    46   28   29 1   
    47   28   49 1   
    48   28   50 1   
    49   29   30 1   
    50   29   31 1   
    51   32   51 1   
    52   32   52 1   
@<TRIPOS>SUBSTRUCTURE
     1 1R4         1 TEMP              0 ****  ****    0 ROOT
