@<TRIPOS>MOLECULE
1R4
   52    52     1     0     0
SMALL
bcc


@<TRIPOS>ATOM
      1 O01         0.7670   -2.1840    1.2580 o         1 1R4     -0.627100
      2 C02         1.6620   -1.3410    1.0340 c         1 1R4      0.609100
      3 C03         1.9900   -0.2440    2.0900 c3        1 1R4      0.031700
      4 N04         0.8010    0.2290    2.7470 n         1 1R4     -0.554900
      5 C05         0.2980    1.5060    2.5550 c         1 1R4      0.663100
      6 C06        -1.0670    1.8190    3.1380 c3        1 1R4     -0.145400
      7 C07        -1.0610    1.8550    4.6510 c3        1 1R4     -0.062400
      8 C08        -2.4410    2.2100    5.2110 c3        1 1R4      0.018500
      9 C09        -2.4420    1.9280    6.7510 c         1 1R4      0.888600
     10 O10        -2.8630    2.8390    7.5220 o         1 1R4     -0.844800
     11 O11        -2.0500    0.7930    7.1380 o         1 1R4     -0.844800
     12 O13         0.9530    2.3660    1.9280 o         1 1R4     -0.637100
     13 C14         3.0100   -0.8780    3.0560 c3        1 1R4     -0.031300
     14 S15         4.5020    0.0530    3.2140 ss        1 1R4     -0.270200
     15 C16         5.5830   -0.5500    1.9550 c3        1 1R4     -0.151300
     16 C17         6.7490   -1.2650    2.5590 c         1 1R4      0.604700
     17 C18         6.6090   -2.7260    2.7980 ca        1 1R4     -0.122600
     18 C19         6.9230   -3.2360    4.0670 ca        1 1R4     -0.106500
     19 C20         6.8470   -4.5990    4.3180 ca        1 1R4     -0.081500
     20 C21         6.4620   -5.4640    3.2770 ca        1 1R4     -0.175200
     21 N22         6.4130   -6.9240    3.5350 no        1 1R4      0.311200
     22 O23         6.1400   -7.6800    2.6410 o         1 1R4     -0.228500
     23 O24         6.6650   -7.3340    4.6420 o         1 1R4     -0.228500
     24 C25         6.1350   -4.9650    2.0080 ca        1 1R4     -0.081500
     25 C26         6.2130   -3.5890    1.7740 ca        1 1R4     -0.106500
     26 O27         7.8030   -0.6820    2.8470 o         1 1R4     -0.545100
     27 N28         2.3750   -1.3020   -0.1470 n         1 1R4     -0.507900
     28 C29         2.5870   -2.4970   -0.9300 c3        1 1R4     -0.055000
     29 C30         4.0630   -2.9620   -0.9470 c         1 1R4      0.887600
     30 O31         4.3070   -4.1670   -1.2150 o         1 1R4     -0.849300
     31 O32         4.9730   -2.1120   -0.6780 o         1 1R4     -0.849300
     32 N01        -2.8890    3.5490    4.8470 n3        1 1R4     -0.895800
     33 H031        2.4760    0.6500    1.5880 h1        1 1R4      0.112700
     34 H041        0.2040   -0.4660    3.1340 hn        1 1R4      0.325500
     35 H062       -1.3750    2.8190    2.7300 hc        1 1R4      0.066700
     36 H061       -1.8100    1.0600    2.7780 hc        1 1R4      0.066700
     37 H072       -0.7840    0.8510    5.0700 hc        1 1R4      0.056200
     38 H071       -0.2980    2.5930    5.0090 hc        1 1R4      0.056200
     39 H081       -3.1940    1.4960    4.7640 h1        1 1R4      0.040700
     40 H141        2.6020   -0.9150    4.1000 h1        1 1R4      0.091200
     41 H142        3.2310   -1.9280    2.7450 h1        1 1R4      0.091200
     42 H161        5.0620   -1.2120    1.2070 h1        1 1R4      0.130200
     43 H162        5.9560    0.3470    1.3950 h1        1 1R4      0.130200
     44 H191        7.2360   -2.5450    4.8660 ha        1 1R4      0.194500
     45 H201        7.0880   -5.0000    5.3150 ha        1 1R4      0.174000
     46 H251        5.8090   -5.6350    1.1910 ha        1 1R4      0.174000
     47 H261        5.9510   -3.2040    0.7580 ha        1 1R4      0.194500
     48 H281        3.1690   -0.6910   -0.1620 hn        1 1R4      0.306500
     49 H292        1.9420   -3.3340   -0.5480 h1        1 1R4      0.056700
     50 H291        2.2840   -2.2720   -1.9900 h1        1 1R4      0.056700
     51 H01        -2.1360    4.1940    5.0080 hn        1 1R4      0.331300
     52 H011       -3.6210    3.8030    5.4930 hn        1 1R4      0.331300
@<TRIPOS>BOND
     1    1    2 2   
     2    2    3 1   
     3    2   27 1   
     4    3    4 1   
     5    3   13 1   
     6    3   33 1   
     7    4    5 1   
     8    4   34 1   
     9    5    6 1   
    10    5   12 2   
    11    6    7 1   
    12    6   35 1   
    13    6   36 1   
    14    7    8 1   
    15    7   37 1   
    16    7   38 1   
    17    8    9 1   
    18    8   32 1   
    19    8   39 1   
    20    9   10 1   
    21    9   11 1   
    22   13   14 1   
    23   13   40 1   
    24   13   41 1   
    25   14   15 1   
    26   15   16 1   
    27   15   42 1   
    28   15   43 1   
    29   16   17 1   
    30   16   26 2   
    31   17   18 ar  
    32   17   25 ar  
    33   18   19 ar  
    34   18   44 1   
    35   19   20 ar  
    36   19   45 1   
    37   20   21 1   
    38   20   24 ar  
    39   21   22 1   
    40   21   23 1   
    41   24   25 ar  
    42   24   46 1   
    43   25   47 1   
    44   27   28 1   
    45   27   48 1   
    46   28   29 1   
    47   28   49 1   
    48   28   50 1   
    49   29   30 1   
    50   29   31 1   
    51   32   51 1   
    52   32   52 1   
@<TRIPOS>SUBSTRUCTURE
     1 1R4         1 TEMP              0 ****  ****    0 ROOT
