@<TRIPOS>MOLECULE
1R5
   29    27     1     0     0
SMALL
bcc


@<TRIPOS>ATOM
      1 F          -5.9950   -0.7510   -0.7310 f         1 1R5     -0.103000
      2 C10        -4.6560   -0.7510   -0.7310 c2        1 1R5      0.097000
      3 C9         -3.9630   -0.7510    0.4690 c2        1 1R5     -0.166000
      4 C8         -2.5770   -0.7510    0.4690 c1        1 1R5     -0.090000
      5 C11        -3.9630   -0.7510   -1.9310 c1        1 1R5     -0.166000
      6 C12        -2.5770   -0.7510   -1.9310 c1        1 1R5     -0.092000
      7 C7         -1.8840   -0.7510   -0.7310 c1        1 1R5     -0.061000
      8 C6         -0.3700   -0.7510   -0.7300 c2        1 1R5      0.005000
      9 C5          0.0680    0.5620   -0.5580 c2        1 1R5     -0.164000
     10 C4          1.3010    0.8140    0.0490 c1        1 1R5      0.075000
     11 N           1.7710    2.2300    0.2330 n         1 1R5     -0.281000
     12 C           3.0450    2.4950    0.8590 c2        1 1R5      0.307000
     13 O           3.4140    3.6400    1.0240 o         1 1R5     -0.372000
     14 C13         0.4270   -1.8210   -0.2940 c1        1 1R5     -0.145000
     15 C14         1.6590   -1.5730    0.3120 c1        1 1R5     -0.082000
     16 C3          2.1000   -0.2580    0.4850 c1        1 1R5     -0.080000
     17 C2          3.4320    0.0100    1.1400 c2        1 1R5     -0.113000
     18 C1          3.8870    1.3750    1.3190 c2        1 1R5     -0.003000
     19 O1          5.0780    1.6330    2.0220 oh        1 1R5     -0.240000
     20 H1         -4.4510   -0.7510    1.3140 ha        1 1R5      0.152000
     21 H2         -2.0890   -0.7510    1.3150 ha        1 1R5      0.143000
     22 H3         -4.4510   -0.7510   -2.7770 ha        1 1R5      0.152000
     23 H4         -2.0880   -0.7510   -2.7770 ha        1 1R5      0.141000
     24 H5         -0.4690    1.3040   -0.8960 ha        1 1R5      0.142000
     25 H6          1.2490    2.9230   -0.0490 hn        1 1R5      0.252000
     26 H7          0.1260   -2.7400   -0.4280 ha        1 1R5      0.142000
     27 H8          2.2130   -2.3170    0.6150 ha        1 1R5      0.142000
     28 H9          3.9870   -0.7330    1.4440 ha        1 1R5      0.161000
     29 H10         5.7740    1.4640    1.4970 ho        1 1R5      0.247000
@<TRIPOS>BOND
     1    1    2 1   
     2    2    3 1   
     3    2    5 1   
     4    3    4 1   
     5    3   20 1   
     6    4   21 1   
     7    5   22 1   
     8    6    7 1   
     9    6   23 1   
    10    7    8 1   
    11    8    9 1   
    12    8   14 1   
    13    9   10 1   
    14    9   24 1   
    15   10   11 1   
    16   11   12 1   
    17   11   25 1   
    18   12   13 1   
    19   12   18 1   
    20   14   26 1   
    21   15   16 1   
    22   15   27 1   
    23   16   17 1   
    24   17   18 1   
    25   17   28 1   
    26   18   19 1   
    27   19   29 1   
@<TRIPOS>SUBSTRUCTURE
     1 1R5         1 TEMP              0 ****  ****    0 ROOT
