@<TRIPOS>MOLECULE
1R5
   29    31     1     0     0
SMALL
bcc


@<TRIPOS>ATOM
      1 F          -6.2800    0.6130    0.1020 f         1 1R5     -0.137900
      2 C10        -4.9510    0.3570    0.0570 ca        1 1R5      0.131900
      3 C9         -4.4460   -0.8350    0.6090 ca        1 1R5     -0.166000
      4 C8         -3.0810   -1.0900    0.5560 ca        1 1R5     -0.091000
      5 C11        -4.0780    1.2840   -0.5420 ca        1 1R5     -0.166000
      6 C12        -2.7150    1.0140   -0.5820 ca        1 1R5     -0.091000
      7 C7         -2.2020   -0.1720   -0.0360 cp        1 1R5     -0.061000
      8 C6         -0.7670   -0.4490   -0.0850 cp        1 1R5      0.005000
      9 C5          0.1510    0.5650    0.1740 ca        1 1R5     -0.164000
     10 C4          1.5400    0.2980    0.1290 ca        1 1R5      0.067600
     11 N           2.4650    1.3100    0.3910 n         1 1R5     -0.427100
     12 C           3.8350    1.0870    0.3570 c         1 1R5      0.668700
     13 O           4.6360    2.0150    0.5970 o         1 1R5     -0.647500
     14 C13        -0.3110   -1.7460   -0.3930 ca        1 1R5     -0.145000
     15 C14         1.0440   -2.0180   -0.4430 ca        1 1R5     -0.082000
     16 C3          1.9920   -1.0140   -0.1850 ca        1 1R5     -0.091800
     17 C2          3.4050   -1.2850   -0.2330 cc        1 1R5     -0.101200
     18 C1          4.2870   -0.2840    0.0250 cd        1 1R5      0.021900
     19 O1          5.6370   -0.5240   -0.0150 oh        1 1R5     -0.485100
     20 H1         -5.1350   -1.5530    1.0770 ha        1 1R5      0.152000
     21 H2         -2.6850   -2.0210    0.9920 ha        1 1R5      0.142000
     22 H3         -4.4810    2.2120   -0.9740 ha        1 1R5      0.152000
     23 H4         -2.0330    1.7360   -1.0560 ha        1 1R5      0.142000
     24 H5         -0.2100    1.5750    0.4230 ha        1 1R5      0.142000
     25 H6          2.1340    2.2230    0.6160 hn        1 1R5      0.338500
     26 H7         -1.0430   -2.5410   -0.6040 ha        1 1R5      0.142000
     27 H8          1.3980   -3.0320   -0.6890 ha        1 1R5      0.142000
     28 H9          3.7490   -2.3000   -0.4780 ha        1 1R5      0.161000
     29 H10         6.0930    0.3110    0.1970 ho        1 1R5      0.448000
@<TRIPOS>BOND
     1    1    2 1   
     2    2    3 ar  
     3    2    5 ar  
     4    3    4 ar  
     5    3   20 1   
     6    4    7 ar  
     7    4   21 1   
     8    5    6 ar  
     9    5   22 1   
    10    6    7 ar  
    11    6   23 1   
    12    7    8 1   
    13    8    9 ar  
    14    8   14 ar  
    15    9   10 ar  
    16    9   24 1   
    17   10   11 1   
    18   10   16 ar  
    19   11   12 1   
    20   11   25 1   
    21   12   13 2   
    22   12   18 1   
    23   14   15 ar  
    24   14   26 1   
    25   15   16 ar  
    26   15   27 1   
    27   16   17 1   
    28   17   18 2   
    29   17   28 1   
    30   18   19 1   
    31   19   29 1   
@<TRIPOS>SUBSTRUCTURE
     1 1R5         1 TEMP              0 ****  ****    0 ROOT
