@<TRIPOS>MOLECULE
1R5
   29    31     1     0     0
SMALL
bcc


@<TRIPOS>ATOM
      1 F          -0.0390    0.0540   -0.0350 f         1 1R5     -0.137900
      2 C10         1.3150    0.0250   -0.0230 ca        1 1R5      0.131900
      3 C9          2.0190    0.5580    1.0730 ca        1 1R5     -0.166000
      4 C8          3.4090    0.5210    1.0760 ca        1 1R5     -0.091000
      5 C11         2.0140   -0.5390   -1.1070 ca        1 1R5     -0.166000
      6 C12         3.4040   -0.5630   -1.0870 ca        1 1R5     -0.091000
      7 C7          4.1150   -0.0360    0.0010 cp        1 1R5     -0.061000
      8 C6          5.5770   -0.0670    0.0150 cp        1 1R5      0.005000
      9 C5          6.2940    0.2290   -1.1410 ca        1 1R5     -0.164000
     10 C4          7.7090    0.2010   -1.1300 ca        1 1R5      0.067600
     11 N           8.4340    0.5000   -2.2850 n         1 1R5     -0.427100
     12 C           9.8210    0.4830   -2.3130 c         1 1R5      0.668700
     13 O          10.4390    0.7570   -3.3640 o         1 1R5     -0.647500
     14 C13         6.2630   -0.3970    1.2000 ca        1 1R5     -0.145000
     15 C14         7.6450   -0.4310    1.2220 ca        1 1R5     -0.082000
     16 C3          8.3940   -0.1350    0.0710 ca        1 1R5     -0.091800
     17 C2          9.8330   -0.1660    0.0820 cc        1 1R5     -0.101200
     18 C1         10.5170    0.1290   -1.0540 cd        1 1R5      0.021900
     19 O1         11.8880    0.1050   -1.0620 oh        1 1R5     -0.485100
     20 H1          1.4650    0.9990    1.9140 ha        1 1R5      0.152000
     21 H2          3.9610    0.9430    1.9310 ha        1 1R5      0.142000
     22 H3          1.4550   -0.9570   -1.9570 ha        1 1R5      0.152000
     23 H4          3.9500   -1.0100   -1.9310 ha        1 1R5      0.142000
     24 H5          5.7540    0.4940   -2.0630 ha        1 1R5      0.142000
     25 H6          7.9400    0.7400   -3.1170 hn        1 1R5      0.338500
     26 H7          5.6890   -0.6370    2.1080 ha        1 1R5      0.142000
     27 H8          8.1780   -0.6940    2.1500 ha        1 1R5      0.142000
     28 H9         10.3570   -0.4280    1.0140 ha        1 1R5      0.161000
     29 H10        12.1840    0.3430   -1.9590 ho        1 1R5      0.448000
@<TRIPOS>BOND
     1    1    2 1   
     2    2    3 ar  
     3    2    5 ar  
     4    3    4 ar  
     5    3   20 1   
     6    4    7 ar  
     7    4   21 1   
     8    5    6 ar  
     9    5   22 1   
    10    6    7 ar  
    11    6   23 1   
    12    7    8 1   
    13    8    9 ar  
    14    8   14 ar  
    15    9   10 ar  
    16    9   24 1   
    17   10   11 1   
    18   10   16 ar  
    19   11   12 1   
    20   11   25 1   
    21   12   13 2   
    22   12   18 1   
    23   14   15 ar  
    24   14   26 1   
    25   15   16 ar  
    26   15   27 1   
    27   16   17 1   
    28   17   18 2   
    29   17   28 1   
    30   18   19 1   
    31   19   29 1   
@<TRIPOS>SUBSTRUCTURE
     1 1R5         1 TEMP              0 ****  ****    0 ROOT
