@<TRIPOS>MOLECULE
1R5
   29    31     1     0     0
SMALL
bcc


@<TRIPOS>ATOM
      1 F          -0.0390    0.0610   -0.0390 f         1 1R5     -0.137900
      2 C10         1.3150    0.0290   -0.0270 ca        1 1R5      0.131900
      3 C9          2.0190    0.5480    1.0750 ca        1 1R5     -0.166000
      4 C8          3.4090    0.5090    1.0800 ca        1 1R5     -0.091000
      5 C11         2.0130   -0.5230   -1.1160 ca        1 1R5     -0.166000
      6 C12         3.4030   -0.5500   -1.0960 ca        1 1R5     -0.091000
      7 C7          4.1150   -0.0370   -0.0020 cp        1 1R5     -0.061000
      8 C6          5.5770   -0.0710    0.0130 cp        1 1R5      0.005000
      9 C5          6.2950    0.2380   -1.1390 ca        1 1R5     -0.164000
     10 C4          7.7100    0.2070   -1.1270 ca        1 1R5      0.067600
     11 N           8.4360    0.5200   -2.2780 n         1 1R5     -0.427100
     12 C           9.8240    0.5000   -2.3040 c         1 1R5      0.668700
     13 O          10.4430    0.7860   -3.3510 o         1 1R5     -0.647500
     14 C13         6.2610   -0.4170    1.1950 ca        1 1R5     -0.145000
     15 C14         7.6430   -0.4540    1.2180 ca        1 1R5     -0.082000
     16 C3          8.3930   -0.1460    0.0700 ca        1 1R5     -0.091800
     17 C2          9.8320   -0.1790    0.0820 cc        1 1R5     -0.101200
     18 C1         10.5180    0.1280   -1.0490 cd        1 1R5      0.021900
     19 O1         11.8890    0.1020   -1.0570 oh        1 1R5     -0.485100
     20 H1          1.4650    0.9800    1.9220 ha        1 1R5      0.152000
     21 H2          3.9600    0.9190    1.9400 ha        1 1R5      0.142000
     22 H3          1.4550   -0.9290   -1.9720 ha        1 1R5      0.152000
     23 H4          3.9490   -0.9880   -1.9460 ha        1 1R5      0.142000
     24 H5          5.7560    0.5160   -2.0580 ha        1 1R5      0.142000
     25 H6          7.9440    0.7700   -3.1070 hn        1 1R5      0.338500
     26 H7          5.6860   -0.6670    2.0990 ha        1 1R5      0.142000
     27 H8          8.1750   -0.7290    2.1420 ha        1 1R5      0.142000
     28 H9         10.3540   -0.4540    1.0110 ha        1 1R5      0.161000
     29 H10        12.1850    0.3510   -1.9510 ho        1 1R5      0.448000
@<TRIPOS>BOND
     1    1    2 1   
     2    2    3 ar  
     3    2    5 ar  
     4    3    4 ar  
     5    3   20 1   
     6    4    7 ar  
     7    4   21 1   
     8    5    6 ar  
     9    5   22 1   
    10    6    7 ar  
    11    6   23 1   
    12    7    8 1   
    13    8    9 ar  
    14    8   14 ar  
    15    9   10 ar  
    16    9   24 1   
    17   10   11 1   
    18   10   16 ar  
    19   11   12 1   
    20   11   25 1   
    21   12   13 2   
    22   12   18 1   
    23   14   15 ar  
    24   14   26 1   
    25   15   16 ar  
    26   15   27 1   
    27   16   17 1   
    28   17   18 2   
    29   17   28 1   
    30   18   19 1   
    31   19   29 1   
@<TRIPOS>SUBSTRUCTURE
     1 1R5         1 TEMP              0 ****  ****    0 ROOT
