@<TRIPOS>MOLECULE
1R5
   29    31     1     0     0
SMALL
bcc


@<TRIPOS>ATOM
      1 F          -0.0380    0.0590   -0.0310 f         1 1R5     -0.137900
      2 C10         1.3150    0.0280   -0.0200 ca        1 1R5      0.131900
      3 C9          2.0210    0.5500    1.0790 ca        1 1R5     -0.166000
      4 C8          3.4100    0.5120    1.0820 ca        1 1R5     -0.091000
      5 C11         2.0130   -0.5280   -1.1090 ca        1 1R5     -0.166000
      6 C12         3.4020   -0.5540   -1.0900 ca        1 1R5     -0.091000
      7 C7          4.1150   -0.0370    0.0010 cp        1 1R5     -0.061000
      8 C6          5.5770   -0.0700    0.0140 cp        1 1R5      0.005000
      9 C5          6.2940    0.2350   -1.1390 ca        1 1R5     -0.164000
     10 C4          7.7090    0.2050   -1.1300 ca        1 1R5      0.067600
     11 N           8.4330    0.5130   -2.2830 ns        1 1R5     -0.427100
     12 C           9.8210    0.4950   -2.3110 c         1 1R5      0.668700
     13 O          10.4380    0.7770   -3.3600 o         1 1R5     -0.647500
     14 C13         6.2630   -0.4110    1.1970 ca        1 1R5     -0.145000
     15 C14         7.6460   -0.4470    1.2180 ca        1 1R5     -0.082000
     16 C3          8.3940   -0.1420    0.0680 ca        1 1R5     -0.091800
     17 C2          9.8330   -0.1750    0.0780 cc        1 1R5     -0.101200
     18 C1         10.5170    0.1290   -1.0560 cd        1 1R5      0.021900
     19 O1         11.8880    0.1030   -1.0650 oh        1 1R5     -0.485100
     20 H1          1.4680    0.9850    1.9250 ha        1 1R5      0.152000
     21 H2          3.9630    0.9260    1.9400 ha        1 1R5      0.142000
     22 H3          1.4530   -0.9370   -1.9620 ha        1 1R5      0.152000
     23 H4          3.9480   -0.9940   -1.9390 ha        1 1R5      0.142000
     24 H5          5.7540    0.5090   -2.0590 ha        1 1R5      0.142000
     25 H6          7.9390    0.7600   -3.1120 hn        1 1R5      0.338500
     26 H7          5.6890   -0.6580    2.1030 ha        1 1R5      0.142000
     27 H8          8.1790   -0.7180    2.1420 ha        1 1R5      0.142000
     28 H9         10.3570   -0.4450    1.0070 ha        1 1R5      0.161000
     29 H10        12.1830    0.3480   -1.9600 ho        1 1R5      0.448000
@<TRIPOS>BOND
     1    1    2 1   
     2    2    3 ar  
     3    2    5 ar  
     4    3    4 ar  
     5    3   20 1   
     6    4    7 ar  
     7    4   21 1   
     8    5    6 ar  
     9    5   22 1   
    10    6    7 ar  
    11    6   23 1   
    12    7    8 1   
    13    8    9 ar  
    14    8   14 ar  
    15    9   10 ar  
    16    9   24 1   
    17   10   11 1   
    18   10   16 ar  
    19   11   12 1   
    20   11   25 1   
    21   12   13 2   
    22   12   18 1   
    23   14   15 ar  
    24   14   26 1   
    25   15   16 ar  
    26   15   27 1   
    27   16   17 1   
    28   17   18 2   
    29   17   28 1   
    30   18   19 1   
    31   19   29 1   
@<TRIPOS>SUBSTRUCTURE
     1 1R5         1 TEMP              0 ****  ****    0 ROOT
