@<TRIPOS>MOLECULE
1R6
   82    77     1     0     0
SMALL
bcc


@<TRIPOS>ATOM
      1 C2          1.4590   -4.4180   -3.4360 cy        1 1R6     -0.176500
      2 C3          1.6650   -5.7910   -2.8420 cy        1 1R6     -0.169000
      3 C4          2.4840   -5.1920   -1.7210 cy        1 1R6     -0.176500
      4 C1          2.2860   -3.7970   -2.3100 cy        1 1R6      0.059000
      5 C19         2.4500   -2.7200   -1.3440 c3        1 1R6     -0.209000
      6 O1          3.3250   -4.0550   -3.1510 os        1 1R6     -0.197000
      7 C21         4.1350   -2.8430   -3.6680 c1        1 1R6      0.092000
      8 C22         5.1030   -2.9580   -4.6530 c1        1 1R6     -0.161000
      9 C23         5.8060   -1.8090   -5.0930 c1        1 1R6     -0.094000
     10 C24         5.5150   -0.5160   -4.5160 c1        1 1R6     -0.112000
     11 C26         6.2650    0.7330   -5.0120 c3        1 1R6     -0.117000
     12 C27         7.5940    0.3150   -5.6330 c3        1 1R6     -0.208000
     13 C25         4.5260   -0.3940   -3.5080 c1        1 1R6     -0.109000
     14 C20         3.8350   -1.5140   -3.0740 c1        1 1R6     -0.111000
     15 C18         2.8530   -1.4760   -1.8510 c2        1 1R6      0.033000
     16 N2          1.6090   -0.7160   -2.2710 n3        1 1R6     -0.306000
     17 C17         0.7370   -0.5290   -1.1120 c3        1 1R6     -0.109000
     18 C16         0.4060    0.9560   -0.9560 c3        1 1R6      0.026000
     19 O2          0.2320    1.5300   -2.2220 oh        1 1R6     -0.337000
     20 C12        -0.8710    1.1090   -0.1510 c3        1 1R6      0.028000
     21 C11        -1.1760    2.5970    0.0450 c3        1 1R6     -0.144000
     22 C9         -2.6460    2.7670    0.5650 c1        1 1R6     -0.067000
     23 C10        -2.8760    3.2340    1.8590 c1        1 1R6     -0.109000
     24 C8         -3.7180    2.5490   -0.2970 c1        1 1R6     -0.120000
     25 C7         -5.0190    2.7970    0.1330 c1        1 1R6     -0.121500
     26 C6         -5.2490    3.2630    1.4250 c1        1 1R6     -0.121500
     27 C5         -4.1770    3.4820    2.2880 c1        1 1R6     -0.111000
     28 C13        -4.4420    3.9800    3.7770 c2        1 1R6     -0.127000
     29 C14        -5.6700    3.2250    4.3690 c3        1 1R6     -0.165000
     30 C15        -5.2290    2.3960    5.6340 c3        1 1R6     -0.176000
     31 C34        -3.7060    2.6180    5.9060 c3        1 1R6     -0.041000
     32 N3         -2.7220    1.1360    5.2570 n         1 1R6     -0.230000
     33 C33        -2.4650    1.0530    3.5980 c2        1 1R6      0.046000
     34 C32        -2.8180   -0.1590    6.0430 c2        1 1R6      0.326000
     35 O4         -3.1100   -0.1320    7.2270 o         1 1R6     -0.354000
     36 C31        -2.5380   -1.5020    5.3520 c2        1 1R6     -0.245000
     37 C30        -2.3010   -1.5610    3.7880 c1        1 1R6     -0.002000
     38 C29        -2.2000   -0.2440    2.9590 c1        1 1R6     -0.247000
     39 C28        -1.9210   -0.3110    1.4340 c1        1 1R6      0.365000
     40 O3         -2.8530   -0.3490    0.6440 o         1 1R6     -0.364000
     41 N1         -0.7110    0.4850    1.1160 n2        1 1R6     -0.374000
     42 H1          0.5170   -4.1340   -3.4170 hc        1 1R6      0.102000
     43 H2          1.8830   -4.3190   -4.3190 hc        1 1R6      0.102000
     44 H3          0.8280   -6.1960   -2.5250 hc        1 1R6      0.093500
     45 H4          2.1930   -6.3820   -3.4250 hc        1 1R6      0.093500
     46 H5          3.4230   -5.4830   -1.7410 hc        1 1R6      0.102000
     47 H6          2.0560   -5.2970   -0.8400 hc        1 1R6      0.102000
     48 H7          1.5950   -2.5960   -0.8820 hc        1 1R6      0.107500
     49 H8          3.1170   -3.0070   -0.6800 hc        1 1R6      0.107500
     50 H9          5.3020   -3.8360   -5.0460 ha        1 1R6      0.148000
     51 H10         6.4900   -1.8910   -5.7910 ha        1 1R6      0.133000
     52 H11         6.4330    1.3370   -4.2550 hc        1 1R6      0.083500
     53 H12         5.7190    1.1970   -5.6870 hc        1 1R6      0.083500
     54 H13         8.1420    1.1130   -5.8030 hc        1 1R6      0.074333
     55 H14         7.4270   -0.1530   -6.4800 hc        1 1R6      0.074333
     56 H15         8.0700   -0.2830   -5.0160 hc        1 1R6      0.074333
     57 H16         4.3300    0.4830   -3.1180 ha        1 1R6      0.129000
     58 H17         3.2880   -0.9760   -1.1240 h4        1 1R6      0.106000
     59 H18         1.1630   -1.1910   -2.9140 hn        1 1R6      0.159000
     60 H20        -0.0940   -1.0390   -1.2410 h1        1 1R6      0.093000
     61 H21         1.1960   -0.8490   -0.3020 h1        1 1R6      0.093000
     62 H22         1.1430    1.4080   -0.4900 h1        1 1R6      0.082000
     63 H23         0.7600    2.2460   -2.2990 ho        1 1R6      0.214000
     64 H24        -1.6130    0.6840   -0.6330 h1        1 1R6      0.135000
     65 H25        -1.0760    3.0680   -0.8130 hc        1 1R6      0.108000
     66 H26        -0.5510    2.9760    0.7010 hc        1 1R6      0.108000
     67 H27        -2.1180    3.3890    2.4690 ha        1 1R6      0.129000
     68 H28        -3.5550    2.2180   -1.2130 ha        1 1R6      0.141000
     69 H29        -5.7780    2.6420   -0.4770 ha        1 1R6      0.135500
     70 H30        -6.1690    3.4380    1.7290 ha        1 1R6      0.135500
     71 H31        -4.6230    4.9480    3.7710 ha        1 1R6      0.087500
     72 H32        -3.6540    3.8000    4.3250 ha        1 1R6      0.087500
     73 H33        -6.3600    3.8780    4.6310 hc        1 1R6      0.091500
     74 H34        -6.0370    2.6170    3.6920 hc        1 1R6      0.091500
     75 H35        -5.3960    1.4440    5.4730 hc        1 1R6      0.100000
     76 H36        -5.7490    2.6920    6.4170 hc        1 1R6      0.100000
     77 H37        -3.5570    2.7110    6.8750 h1        1 1R6      0.111000
     78 H38        -3.4090    3.4330    5.4510 h1        1 1R6      0.111000
     79 H39        -2.4000    1.8750    3.0740 h4        1 1R6      0.164000
     80 H40        -2.6010   -2.3360    5.8670 ha        1 1R6      0.168000
     81 H41        -2.1230   -2.4250    3.3530 ha        1 1R6      0.162000
     82 H42        -0.2560    0.9180    1.7870 hn        1 1R6      0.214000
@<TRIPOS>BOND
     1    1    2 1   
     2    1    4 1   
     3    1   42 1   
     4    1   43 1   
     5    2    3 1   
     6    2   44 1   
     7    2   45 1   
     8    3    4 1   
     9    3   46 1   
    10    3   47 1   
    11    4    5 1   
    12    4    6 1   
    13    5   15 1   
    14    5   48 1   
    15    5   49 1   
    16    6    7 1   
    17    7    8 1   
    18    8   50 1   
    19    9   10 1   
    20    9   51 1   
    21   10   11 1   
    22   11   12 1   
    23   11   52 1   
    24   11   53 1   
    25   12   54 1   
    26   12   55 1   
    27   12   56 1   
    28   13   14 1   
    29   13   57 1   
    30   15   16 1   
    31   15   58 1   
    32   16   17 1   
    33   16   59 1   
    34   17   18 1   
    35   17   60 1   
    36   17   61 1   
    37   18   19 1   
    38   18   20 1   
    39   18   62 1   
    40   19   63 1   
    41   20   21 1   
    42   20   41 1   
    43   20   64 1   
    44   21   22 1   
    45   21   65 1   
    46   21   66 1   
    47   22   24 1   
    48   23   27 1   
    49   23   67 1   
    50   24   68 1   
    51   25   26 1   
    52   25   69 1   
    53   26   70 1   
    54   28   29 1   
    55   28   71 1   
    56   28   72 1   
    57   29   30 1   
    58   29   73 1   
    59   29   74 1   
    60   30   31 1   
    61   30   75 1   
    62   30   76 1   
    63   31   32 1   
    64   31   77 1   
    65   31   78 1   
    66   32   33 1   
    67   32   34 1   
    68   33   38 1   
    69   33   79 1   
    70   34   35 1   
    71   34   36 1   
    72   36   37 1   
    73   36   80 1   
    74   37   81 1   
    75   38   39 1   
    76   39   40 1   
    77   41   82 1   
@<TRIPOS>SUBSTRUCTURE
     1 1R6         1 TEMP              0 ****  ****    0 ROOT
