@<TRIPOS>MOLECULE
1R6
   82    87     1     0     0
SMALL
bcc


@<TRIPOS>ATOM
      1 C2         -4.8460    3.0560    0.2330 cy        1 1R6     -0.095900
      2 C3         -5.4120    4.0190   -0.8300 cy        1 1R6     -0.091400
      3 C4         -5.7910    2.8270   -1.7320 cy        1 1R6     -0.095900
      4 C1         -5.1870    1.8430   -0.6850 cy        1 1R6      0.133800
      5 C19        -4.0200    1.0230   -1.1690 c3        1 1R6     -0.130400
      6 O1         -6.2470    1.0400   -0.1710 os        1 1R6     -0.313900
      7 C21        -5.8650   -0.0450    0.5970 ca        1 1R6      0.128100
      8 C22        -6.9180   -0.6760    1.2810 ca        1 1R6     -0.160000
      9 C23        -6.6500   -1.7850    2.0720 ca        1 1R6     -0.097000
     10 C24        -5.3430   -2.2680    2.2000 ca        1 1R6     -0.118300
     11 C26        -5.0520   -3.4450    3.0650 c3        1 1R6     -0.031100
     12 C27        -4.7360   -4.6810    2.2560 c3        1 1R6     -0.090100
     13 C25        -4.3030   -1.6310    1.5160 ca        1 1R6     -0.074000
     14 C20        -4.5480   -0.5240    0.6980 ca        1 1R6     -0.145300
     15 C18        -3.4260    0.1830   -0.0220 c3        1 1R6      0.236800
     16 N2         -2.3740   -0.7380   -0.4310 n3        1 1R6     -0.823200
     17 C17        -1.1620   -0.0940   -0.8900 c3        1 1R6      0.137800
     18 C16        -0.1880   -1.0880   -1.5460 c3        1 1R6      0.120100
     19 O2         -0.8040   -1.7470   -2.6410 oh        1 1R6     -0.596800
     20 C12         1.1010   -0.3690   -2.0390 c3        1 1R6      0.076700
     21 C11         2.0290   -1.4110   -2.7050 c3        1 1R6     -0.063100
     22 C9          2.7710   -2.2560   -1.7300 ca        1 1R6     -0.081300
     23 C10         4.0180   -1.8460   -1.2460 ca        1 1R6     -0.146000
     24 C8          2.2320   -3.4720   -1.2920 ca        1 1R6     -0.125000
     25 C7          2.9310   -4.2570   -0.3770 ca        1 1R6     -0.122000
     26 C6          4.1660   -3.8350    0.1150 ca        1 1R6     -0.125000
     27 C5          4.7170   -2.6240   -0.3170 ca        1 1R6     -0.082300
     28 C13         6.0350   -2.1640    0.2060 c3        1 1R6     -0.040100
     29 C14         5.8840   -1.0830    1.2680 c3        1 1R6     -0.085400
     30 C15         6.5710    0.2100    0.8760 c3        1 1R6     -0.099400
     31 C34         6.1130    1.3880    1.7310 c3        1 1R6      0.073000
     32 N3          4.9640    2.1390    1.2500 n         1 1R6     -0.336000
     33 C33         4.0600    1.6010    0.3740 cc        1 1R6      0.049600
     34 C32         4.7920    3.4750    1.7260 c         1 1R6      0.685700
     35 O4          5.6170    3.9290    2.5400 o         1 1R6     -0.627500
     36 C31         3.6430    4.2150    1.2070 cc        1 1R6     -0.264200
     37 C30         2.7740    3.6560    0.3290 cd        1 1R6     -0.001000
     38 C29         2.9690    2.3030   -0.0980 cd        1 1R6     -0.269200
     39 C28         2.0190    1.7250   -1.0780 c         1 1R6      0.690300
     40 O3          1.4420    2.4350   -1.9280 o         1 1R6     -0.609100
     41 N1          1.7640    0.3660   -0.9930 n         1 1R6     -0.566900
     42 H1         -3.7600    3.1730    0.4300 hc        1 1R6      0.062450
     43 H2         -5.4120    3.0520    1.1880 hc        1 1R6      0.062450
     44 H3         -6.2830    4.6120   -0.4810 hc        1 1R6      0.053200
     45 H4         -4.6530    4.6960   -1.2740 hc        1 1R6      0.053200
     46 H5         -6.8840    2.6930   -1.8740 hc        1 1R6      0.062450
     47 H6         -5.2680    2.7990   -2.7100 hc        1 1R6      0.062450
     48 H7         -4.3680    0.3510   -1.9970 hc        1 1R6      0.060200
     49 H8         -3.2400    1.7130   -1.5830 hc        1 1R6      0.060200
     50 H9         -7.9390   -0.2830    1.1770 ha        1 1R6      0.147000
     51 H10        -7.4740   -2.2820    2.6070 ha        1 1R6      0.132000
     52 H11        -4.1800   -3.2050    3.7320 hc        1 1R6      0.043700
     53 H12        -5.9300   -3.6530    3.7340 hc        1 1R6      0.043700
     54 H13        -5.6060   -4.9680    1.6180 hc        1 1R6      0.035367
     55 H14        -3.8580   -4.4980    1.5900 hc        1 1R6      0.035367
     56 H15        -4.4970   -5.5340    2.9350 hc        1 1R6      0.035367
     57 H16        -3.2760   -2.0140    1.6290 ha        1 1R6      0.149000
     58 H17        -2.9570    0.9030    0.7200 h1        1 1R6      0.067700
     59 H18        -2.7150   -1.3920   -1.1120 hn        1 1R6      0.373800
     60 H20        -1.3570    0.7360   -1.6320 h1        1 1R6      0.043700
     61 H21        -0.6700    0.3660    0.0110 h1        1 1R6      0.043700
     62 H22         0.0780   -1.9230   -0.8380 h1        1 1R6      0.093700
     63 H23        -1.0780   -1.0690   -3.2720 ho        1 1R6      0.400000
     64 H24         0.7890    0.3680   -2.8410 h1        1 1R6      0.086700
     65 H25         1.3890   -2.0590   -3.3640 hc        1 1R6      0.069200
     66 H26         2.7590   -0.8690   -3.3640 hc        1 1R6      0.069200
     67 H27         4.4640   -0.9090   -1.6150 ha        1 1R6      0.128000
     68 H28         1.2550   -3.8050   -1.6760 ha        1 1R6      0.147000
     69 H29         2.5060   -5.2140   -0.0390 ha        1 1R6      0.137000
     70 H30         4.7100   -4.4590    0.8400 ha        1 1R6      0.135000
     71 H31         6.5890   -3.0370    0.6440 hc        1 1R6      0.053700
     72 H32         6.6570   -1.7850   -0.6500 hc        1 1R6      0.053700
     73 H33         4.7960   -0.8940    1.4690 hc        1 1R6      0.048700
     74 H34         6.3230   -1.4480    2.2340 hc        1 1R6      0.048700
     75 H35         7.6780    0.0950    1.0300 hc        1 1R6      0.058200
     76 H36         6.4220    0.4230   -0.2160 hc        1 1R6      0.058200
     77 H37         5.8720    1.0250    2.7720 h1        1 1R6      0.076200
     78 H38         6.9660    2.1250    1.8200 h1        1 1R6      0.076200
     79 H39         4.2600    0.5610    0.0430 h4        1 1R6      0.163000
     80 H40         3.5460    5.2470    1.5740 ha        1 1R6      0.169000
     81 H41         1.9150    4.2120   -0.0830 ha        1 1R6      0.164000
     82 H42         2.2360   -0.1760   -0.3070 hn        1 1R6      0.313500
@<TRIPOS>BOND
     1    1    2 1   
     2    1    4 1   
     3    1   42 1   
     4    1   43 1   
     5    2    3 1   
     6    2   44 1   
     7    2   45 1   
     8    3    4 1   
     9    3   46 1   
    10    3   47 1   
    11    4    5 1   
    12    4    6 1   
    13    5   15 1   
    14    5   48 1   
    15    5   49 1   
    16    6    7 1   
    17    7    8 ar  
    18    7   14 ar  
    19    8    9 ar  
    20    8   50 1   
    21    9   10 ar  
    22    9   51 1   
    23   10   11 1   
    24   10   13 ar  
    25   11   12 1   
    26   11   52 1   
    27   11   53 1   
    28   12   54 1   
    29   12   55 1   
    30   12   56 1   
    31   13   14 ar  
    32   13   57 1   
    33   14   15 1   
    34   15   16 1   
    35   15   58 1   
    36   16   17 1   
    37   16   59 1   
    38   17   18 1   
    39   17   60 1   
    40   17   61 1   
    41   18   19 1   
    42   18   20 1   
    43   18   62 1   
    44   19   63 1   
    45   20   21 1   
    46   20   41 1   
    47   20   64 1   
    48   21   22 1   
    49   21   65 1   
    50   21   66 1   
    51   22   23 ar  
    52   22   24 ar  
    53   23   27 ar  
    54   23   67 1   
    55   24   25 ar  
    56   24   68 1   
    57   25   26 ar  
    58   25   69 1   
    59   26   27 ar  
    60   26   70 1   
    61   27   28 1   
    62   28   29 1   
    63   28   71 1   
    64   28   72 1   
    65   29   30 1   
    66   29   73 1   
    67   29   74 1   
    68   30   31 1   
    69   30   75 1   
    70   30   76 1   
    71   31   32 1   
    72   31   77 1   
    73   31   78 1   
    74   32   33 1   
    75   32   34 1   
    76   33   38 2   
    77   33   79 1   
    78   34   35 2   
    79   34   36 1   
    80   36   37 2   
    81   36   80 1   
    82   37   38 1   
    83   37   81 1   
    84   38   39 1   
    85   39   40 2   
    86   39   41 1   
    87   41   82 1   
@<TRIPOS>SUBSTRUCTURE
     1 1R6         1 TEMP              0 ****  ****    0 ROOT
