@<TRIPOS>MOLECULE
1R7
   64    56     1     0     0
SMALL
bcc


@<TRIPOS>ATOM
      1 C4          0.7120   -2.8550    0.7780 c1        1 1R7     -0.100000
      2 C5          2.0900   -2.6720    0.7300 c1        1 1R7     -0.100000
      3 C6          2.7970   -2.9870   -0.4330 c1        1 1R7     -0.060000
      4 C7          4.3450   -2.8510   -0.4620 c3        1 1R7     -0.008000
      5 C13         6.9370    1.9800    1.2690 c1        1 1R7     -0.114000
      6 C15         7.9120    3.9600    2.2120 c1        1 1R7     -0.100000
      7 C17         8.8130    3.0330    0.2430 c1        1 1R7      0.000000
      8 C24        -3.3300   -1.3900    1.0210 c3        1 1R7     -0.133500
      9 C28        -3.3440   -1.5150   -1.4670 c3        1 1R7     -0.133500
     10 C1          2.1230   -3.4820   -1.5400 c1        1 1R7     -0.133000
     11 C2          0.7410   -3.6640   -1.4900 c1        1 1R7     -0.017000
     12 C3          0.0380   -3.3490   -0.3280 c1        1 1R7     -0.814000
     13 N8          4.7140   -1.5210   -0.0790 n         1 1R7     -0.338000
     14 C9          5.8100   -0.8530   -0.7560 c2        1 1R7      0.399000
     15 O10         6.2450   -1.3030   -1.7720 o         1 1R7     -0.345000
     16 N11         6.4570    0.3110   -0.1320 n         1 1R7     -0.131000
     17 C12         6.0640    0.9190    1.0210 c1        1 1R7     -0.103000
     18 C14         6.9570    2.9540    2.2510 c1        1 1R7     -0.100000
     19 N16         8.8280    3.9890    1.2100 n1        1 1R7     -0.149000
     20 C18         7.8460    2.0110    0.2770 c1        1 1R7     -0.114000
     21 C19         7.5530    0.9680   -0.6060 c1        1 1R7     -0.103000
     22 S20        -1.7790   -3.4110   -0.1380 ss        1 1R7      2.833000
     23 O21        -2.3690   -4.2620   -1.1080 o         1 1R7     -0.927500
     24 O22        -2.1460   -4.0600    1.0550 o         1 1R7     -0.927500
     25 C23        -2.4880   -1.7270   -0.2170 c2        1 1R7     -0.776000
     26 C25        -4.0020   -0.0130    0.9310 c3        1 1R7     -0.055000
     27 N26        -4.7670    0.1650   -0.2920 n3        1 1R7     -0.258000
     28 C27        -4.0120   -0.1410   -1.5090 c3        1 1R7     -0.055000
     29 C29        -5.2990    1.5850   -0.3590 c3        1 1R7     -0.004000
     30 C30        -6.5360    1.5990   -1.1730 c3        1 1R7     -0.193000
     31 C31        -7.2470    2.9630   -1.1350 c3        1 1R7     -0.024500
     32 O32        -7.4670    3.4350    0.2160 os        1 1R7     -0.269000
     33 C33        -6.2280    3.4210    1.0390 c3        1 1R7     -0.024500
     34 C34        -5.5260    2.0700    1.0110 c3        1 1R7     -0.193000
     35 H1          0.2070   -2.6290    1.6110 ha        1 1R7      0.148500
     36 H2          2.5730   -2.3180    1.5250 ha        1 1R7      0.148500
     37 H3          4.6770   -3.0350   -1.3820 h1        1 1R7      0.127500
     38 H4          4.7480   -3.5050    0.1740 h1        1 1R7      0.127500
     39 H5          7.9260    4.6350    2.8920 ha        1 1R7      0.148500
     40 H6          9.4670    3.0570   -0.4690 ha        1 1R7      0.159000
     41 H7         -4.0040   -2.0560    1.1250 hc        1 1R7      0.104500
     42 H8         -2.7520   -1.4050    1.8040 hc        1 1R7      0.104500
     43 H9         -2.7520   -1.6170   -2.2900 hc        1 1R7      0.104500
     44 H10        -4.0290   -2.1920   -1.4910 hc        1 1R7      0.104500
     45 H11         2.6190   -3.7040   -2.3600 ha        1 1R7      0.155000
     46 H12         0.2550   -4.0200   -2.2860 ha        1 1R7      0.161000
     47 H13         4.2030   -1.0640    0.5100 hn        1 1R7      0.224000
     48 H14         5.3180    0.6140    1.6240 DU        1 1R7      0.185000
     49 H15         6.3040    2.9350    2.9660 ha        1 1R7      0.148500
     50 H16         8.0810    0.7270   -1.4500 DU        1 1R7      0.185000
     51 H17        -1.7040   -1.1960   -0.2490 ha        1 1R7      0.146000
     52 H18        -3.3180    0.6670    0.9690 h1        1 1R7      0.073000
     53 H19        -4.6130    0.1020    1.7130 h1        1 1R7      0.073000
     54 H21        -4.6010   -0.1100   -2.2490 h1        1 1R7      0.073000
     55 H22        -3.3170    0.5430   -1.6290 h1        1 1R7      0.073000
     56 H23        -4.6380    2.1490   -0.7860 h1        1 1R7      0.061000
     57 H24        -7.1400    0.9210   -0.8400 hc        1 1R7      0.097750
     58 H25        -6.2930    1.3800   -2.1410 hc        1 1R7      0.097750
     59 H26        -6.6860    3.6310   -1.6210 h1        1 1R7      0.086750
     60 H27        -8.1230    2.8820   -1.5950 h1        1 1R7      0.086750
     61 H28        -6.4660    3.6470    2.0000 h1        1 1R7      0.086750
     62 H29        -5.6200    4.0960    0.6990 h1        1 1R7      0.086750
     63 H30        -6.0830    1.4060    1.5000 hc        1 1R7      0.097750
     64 H31        -4.6790    2.1530    1.4540 hc        1 1R7      0.097750
@<TRIPOS>BOND
     1    1    2 1   
     2    1   35 1   
     3    2   36 1   
     4    3    4 1   
     5    3   10 1   
     6    4   13 1   
     7    4   37 1   
     8    4   38 1   
     9    5   20 1   
    10    6   18 1   
    11    6   39 1   
    12    7   19 1   
    13    7   40 1   
    14    8   25 1   
    15    8   26 1   
    16    8   41 1   
    17    8   42 1   
    18    9   25 1   
    19    9   28 1   
    20    9   43 1   
    21    9   44 1   
    22   10   45 1   
    23   11   12 1   
    24   11   46 1   
    25   13   14 1   
    26   13   47 1   
    27   14   15 1   
    28   14   16 1   
    29   16   17 1   
    30   16   21 1   
    31   18   49 1   
    32   22   23 1   
    33   22   24 1   
    34   25   51 1   
    35   26   27 1   
    36   26   52 1   
    37   26   53 1   
    38   27   28 1   
    39   27   29 1   
    40   28   54 1   
    41   28   55 1   
    42   29   30 1   
    43   29   34 1   
    44   29   56 1   
    45   30   31 1   
    46   30   57 1   
    47   30   58 1   
    48   31   32 1   
    49   31   59 1   
    50   31   60 1   
    51   32   33 1   
    52   33   34 1   
    53   33   61 1   
    54   33   62 1   
    55   34   63 1   
    56   34   64 1   
@<TRIPOS>SUBSTRUCTURE
     1 1R7         1 TEMP              0 ****  ****    0 ROOT
