@<TRIPOS>MOLECULE
1R7
   64    68     1     0     0
SMALL
bcc


@<TRIPOS>ATOM
      1 C4          0.3750   -3.1780    1.0190 ca        1 1R7     -0.018500
      2 C5         -1.0090   -3.1880    1.1800 ca        1 1R7     -0.142500
      3 C6         -1.8410   -3.1710    0.0570 ca        1 1R7     -0.068300
      4 C7         -3.3350   -3.2120    0.2210 c3        1 1R7      0.114300
      5 C13        -5.5300    2.3820    0.3080 ca        1 1R7     -0.090000
      6 C15        -6.2980    4.5060   -0.4770 ca        1 1R7      0.363200
      7 C17        -5.8870    2.8870   -2.0940 ca        1 1R7      0.449200
      8 C24         4.3410   -1.2130   -1.0360 c3        1 1R7     -0.054900
      9 C28         2.8040   -0.7860    0.8440 c3        1 1R7     -0.054900
     10 C1         -1.2760   -3.1430   -1.2230 ca        1 1R7     -0.142500
     11 C2          0.1070   -3.1300   -1.3730 ca        1 1R7     -0.018500
     12 C3          0.9520   -3.1400   -0.2560 ca        1 1R7     -0.369500
     13 N8         -4.0230   -2.0270   -0.2340 n         1 1R7     -0.528900
     14 C9         -4.3530   -1.0360    0.6970 c         1 1R7      0.771100
     15 O10        -4.3180   -1.2380    1.9280 o         1 1R7     -0.580100
     16 N11        -4.8160    0.2330    0.2240 n         1 1R7     -0.202200
     17 C12        -5.1090    1.2970    1.0880 cc        1 1R7     -0.083400
     18 C14        -5.9500    3.7090    0.5890 ca        1 1R7     -0.189300
     19 N16        -6.2710    4.1110   -1.8050 nb        1 1R7     -0.665000
     20 C18        -5.4940    1.9460   -1.0880 ca        1 1R7     -0.204300
     21 C19        -5.0520    0.6180   -1.1010 cc        1 1R7     -0.118400
     22 S20         2.6230   -3.1620   -0.4500 sy        1 1R7      1.369300
     23 O21         3.2270   -3.7290    0.6800 o         1 1R7     -0.647800
     24 O22         2.9370   -3.7120   -1.7030 o         1 1R7     -0.647800
     25 C23         2.9380   -1.4640   -0.5050 c3        1 1R7     -0.275900
     26 C25         4.6390    0.2820   -1.0980 c3        1 1R7      0.181800
     27 N26         4.4490    0.9620    0.1770 n3        1 1R7     -0.732600
     28 C27         3.1450    0.7010    0.7620 c3        1 1R7      0.181800
     29 C29         4.8040    2.3840    0.0800 c3        1 1R7      0.193500
     30 C30         4.1430    3.2890    1.1310 c3        1 1R7     -0.114400
     31 C31         4.5980    4.7260    0.9370 c3        1 1R7      0.125900
     32 O32         6.0120    4.8570    1.0080 os        1 1R7     -0.412600
     33 C33         6.6860    4.0410    0.0570 c3        1 1R7      0.125900
     34 C34         6.3290    2.5740    0.2060 c3        1 1R7     -0.114400
     35 H1          1.0310   -3.2120    1.9070 ha        1 1R7      0.160000
     36 H2         -1.4450   -3.2120    2.1910 ha        1 1R7      0.146500
     37 H3         -3.7380   -4.0730   -0.3900 h1        1 1R7      0.088200
     38 H4         -3.5980   -3.3950    1.3050 h1        1 1R7      0.088200
     39 H6         -5.8750    2.5950   -3.1590 h4        1 1R7      0.018100
     40 H7          5.0880   -1.7210   -0.3700 hc        1 1R7      0.065200
     41 H8          4.4410   -1.6400   -2.0690 hc        1 1R7      0.065200
     42 H9          1.7510   -0.8820    1.2180 hc        1 1R7      0.065200
     43 H10         3.4850   -1.2920    1.5820 hc        1 1R7      0.065200
     44 H11        -1.9240   -3.1480   -2.1120 ha        1 1R7      0.146500
     45 H12         0.5510   -3.1300   -2.3850 ha        1 1R7      0.160000
     46 H13        -3.8230   -1.7500   -1.1690 hn        1 1R7      0.309500
     47 H14        -4.9960    1.1870    2.1690 h4        1 1R7      0.198000
     48 H15        -5.9910    4.0710    1.6240 ha        1 1R7      0.143000
     49 H16        -4.9190   -0.0550   -1.9460 h4        1 1R7      0.172000
     50 H17         2.2170   -0.9650   -1.2120 h1        1 1R7      0.106700
     51 H18         5.7160    0.4150   -1.4010 h1        1 1R7      0.033950
     52 H19         3.9970    0.7370   -1.9110 h1        1 1R7      0.033950
     53 H21         2.3190    1.2220    0.1920 h1        1 1R7      0.033950
     54 H22         3.1510    1.1060    1.8140 h1        1 1R7      0.033950
     55 H23         4.4960    2.7880   -0.9370 h1        1 1R7      0.021700
     56 H24         3.0280    3.2570    1.0370 hc        1 1R7      0.058450
     57 H25         4.4250    2.9460    2.1590 hc        1 1R7      0.058450
     58 H26         4.2350    5.1240   -0.0490 h1        1 1R7      0.047700
     59 H27         4.2230    5.3790    1.7700 h1        1 1R7      0.047700
     60 H28         6.4470    4.4020   -0.9800 h1        1 1R7      0.047700
     61 H29         7.7740    4.2130    0.2750 h1        1 1R7      0.047700
     62 H30         6.6690    2.2020    1.2070 hc        1 1R7      0.058450
     63 H31         6.8680    1.9880   -0.5810 hc        1 1R7      0.058450
     64 H5         -6.6350    5.5480   -0.3330 h4        1 1R7      0.020100
@<TRIPOS>BOND
     1    1    2 ar  
     2    1   12 ar  
     3    1   35 1   
     4    2    3 ar  
     5    2   36 1   
     6    3    4 1   
     7    3   10 ar  
     8    4   13 1   
     9    4   37 1   
    10    4   38 1   
    11    5   17 2   
    12    5   18 ar  
    13    5   20 ar  
    14    6   18 ar  
    15    6   19 ar  
    16    6   64 1   
    17    7   19 ar  
    18    7   20 ar  
    19    7   39 1   
    20    8   25 1   
    21    8   26 1   
    22    8   40 1   
    23    8   41 1   
    24    9   25 1   
    25    9   28 1   
    26    9   42 1   
    27    9   43 1   
    28   10   11 ar  
    29   10   44 1   
    30   11   12 ar  
    31   11   45 1   
    32   12   22 1   
    33   13   14 1   
    34   13   46 1   
    35   14   15 2   
    36   14   16 1   
    37   16   17 1   
    38   16   21 1   
    39   17   47 1   
    40   18   48 1   
    41   20   21 2   
    42   21   49 1   
    43   22   23 2   
    44   22   24 2   
    45   22   25 1   
    46   25   50 1   
    47   26   27 1   
    48   26   51 1   
    49   26   52 1   
    50   27   28 1   
    51   27   29 1   
    52   28   53 1   
    53   28   54 1   
    54   29   30 1   
    55   29   34 1   
    56   29   55 1   
    57   30   31 1   
    58   30   56 1   
    59   30   57 1   
    60   31   32 1   
    61   31   58 1   
    62   31   59 1   
    63   32   33 1   
    64   33   34 1   
    65   33   60 1   
    66   33   61 1   
    67   34   62 1   
    68   34   63 1   
@<TRIPOS>SUBSTRUCTURE
     1 1R7         1 TEMP              0 ****  ****    0 ROOT
