@<TRIPOS>MOLECULE
1R7
   65    69     1     0     0
SMALL
bcc


@<TRIPOS>ATOM
      1 C4         -0.0360    0.1100   -0.0110 ca        1 1R7     -0.018500
      2 C5          1.3570    0.1770    0.0200 ca        1 1R7     -0.124500
      3 C6          2.0140    0.3220    1.2460 ca        1 1R7     -0.145300
      4 C7          3.5040    0.3090    1.2960 c3        1 1R7      0.175100
      5 C13         7.8760    4.4860    1.2790 ca        1 1R7     -0.051000
      6 C15         8.9570    6.6220    1.2330 ca        1 1R7      0.400200
      7 C17         6.6280    6.6410    1.1380 ca        1 1R7      0.442200
      8 C24        -4.4480    1.7780    1.2990 c3        1 1R7     -0.056900
      9 C28        -2.6790    2.2600   -0.3550 c3        1 1R7     -0.056900
     10 C1          1.2780    0.4090    2.4320 ca        1 1R7     -0.124500
     11 C2         -0.1140    0.3410    2.3860 ca        1 1R7     -0.018500
     12 C3         -0.7830    0.1940    1.1670 ca        1 1R7     -0.296500
     13 N8          4.0450    1.7140    1.2420 n4        1 1R7     -0.662800
     14 C9          5.5690    1.7360    1.3010 c         1 1R7      0.657100
     15 O10         6.1320    0.6440    1.3680 o         1 1R7     -0.440100
     16 N11         6.1830    2.9750    1.2730 n         1 1R7     -0.235200
     17 C12         7.5990    3.1270    1.3240 cc        1 1R7     -0.060400
     18 C14         9.0760    5.2560    1.2950 ca        1 1R7     -0.199300
     19 N16         7.7510    7.3120    1.1550 nb        1 1R7     -0.618000
     20 C18         6.5900    5.2000    1.1960 ca        1 1R7     -0.140300
     21 C19         5.5750    4.2550    1.1950 cc        1 1R7     -0.145400
     22 S20        -2.4910    0.0070    1.1330 sy        1 1R7      1.357300
     23 O21        -2.8220   -0.6990   -0.0240 o         1 1R7     -0.626800
     24 O22        -2.8800   -0.4930    2.3790 o         1 1R7     -0.626800
     25 C23        -2.9570    1.6550    1.0080 c3        1 1R7     -0.286900
     26 C25        -4.9060    3.2300    1.1870 c3        1 1R7      0.184800
     27 N26        -4.5860    3.8320   -0.1000 n3        1 1R7     -0.736600
     28 C27        -3.1830    3.7010   -0.4440 c3        1 1R7      0.184800
     29 C29        -5.1340    5.1910   -0.2110 c3        1 1R7      0.193500
     30 C30        -4.3960    6.1100   -1.1950 c3        1 1R7     -0.114400
     31 C31        -5.0650    7.4750   -1.2260 c3        1 1R7      0.124900
     32 O32        -6.4370    7.3880   -1.5850 os        1 1R7     -0.405600
     33 C33        -7.1810    6.5500   -0.7080 c3        1 1R7      0.124900
     34 C34        -6.6130    5.1440   -0.6450 c3        1 1R7     -0.114400
     35 H1         -0.5580   -0.0390   -0.9770 ha        1 1R7      0.181500
     36 H2          1.9280    0.0830   -0.9170 ha        1 1R7      0.148000
     37 H3          3.9420   -0.2610    0.4250 hx        1 1R7      0.126700
     38 H4          3.8790   -0.1660    2.2510 hx        1 1R7      0.126700
     39 H7         -4.6660    1.4150    2.3380 hc        1 1R7      0.065700
     40 H8         -5.0240    1.1450    0.5710 hc        1 1R7      0.065700
     41 H9         -1.5750    2.2630   -0.5530 hc        1 1R7      0.065700
     42 H10        -3.1770    1.6370   -1.1470 hc        1 1R7      0.065700
     43 H11         1.7880    0.4950    3.4040 ha        1 1R7      0.148000
     44 H12        -0.6970    0.3710    3.3270 ha        1 1R7      0.181500
     45 H13         3.6640    2.2480    2.0330 hn        1 1R7      0.463800
     46 H14         8.2480    2.2480    1.3870 h4        1 1R7      0.215000
     47 H15        10.0530    4.7560    1.3550 ha        1 1R7      0.167000
     48 H16         4.4960    4.3950    1.1450 h4        1 1R7      0.173000
     49 H17        -2.4190    2.2770    1.7770 h1        1 1R7      0.107700
     50 H18        -4.4510    3.8120    2.0440 h1        1 1R7      0.036450
     51 H19        -6.0250    3.2580    1.3110 h1        1 1R7      0.036450
     52 H21        -2.5250    4.3470    0.2100 h1        1 1R7      0.036450
     53 H22        -3.0530    4.0400   -1.5110 h1        1 1R7      0.036450
     54 H23        -5.0930    5.7000    0.8040 h1        1 1R7      0.025700
     55 H24        -4.4180    5.6650   -2.2230 hc        1 1R7      0.057450
     56 H25        -3.3280    6.2450   -0.8870 hc        1 1R7      0.057450
     57 H26        -4.9690    7.9820   -0.2280 h1        1 1R7      0.051450
     58 H27        -4.6140    8.1220   -2.0250 h1        1 1R7      0.051450
     59 H28        -7.2090    7.0120    0.3150 h1        1 1R7      0.051450
     60 H29        -8.2130    6.5450   -1.1500 h1        1 1R7      0.051450
     61 H30        -6.6920    4.6590   -1.6520 hc        1 1R7      0.057450
     62 H31        -7.2180    4.5400    0.0770 hc        1 1R7      0.057450
     63 H5          9.8430    7.2850    1.2410 h4        1 1R7      0.049100
     64 H82         3.7300    2.1600    0.3720 hn        1 1R7      0.463800
     65 H6          5.6850    7.2140    1.0750 h4        1 1R7      0.040100
@<TRIPOS>BOND
     1    1    2 ar  
     2    1   12 ar  
     3    1   35 1   
     4    2    3 ar  
     5    2   36 1   
     6    3    4 1   
     7    3   10 ar  
     8    4   13 1   
     9    4   37 1   
    10    4   38 1   
    11    5   17 2   
    12    5   18 ar  
    13    5   20 ar  
    14    6   18 ar  
    15    6   19 ar  
    16    6   63 1   
    17    7   19 ar  
    18    7   20 ar  
    19    7   65 1   
    20    8   25 1   
    21    8   26 1   
    22    8   39 1   
    23    8   40 1   
    24    9   25 1   
    25    9   28 1   
    26    9   41 1   
    27    9   42 1   
    28   10   11 ar  
    29   10   43 1   
    30   11   12 ar  
    31   11   44 1   
    32   12   22 1   
    33   13   14 1   
    34   13   45 1   
    35   13   64 1   
    36   14   15 2   
    37   14   16 1   
    38   16   17 1   
    39   16   21 1   
    40   17   46 1   
    41   18   47 1   
    42   20   21 2   
    43   21   48 1   
    44   22   23 2   
    45   22   24 2   
    46   22   25 1   
    47   25   49 1   
    48   26   27 1   
    49   26   50 1   
    50   26   51 1   
    51   27   28 1   
    52   27   29 1   
    53   28   52 1   
    54   28   53 1   
    55   29   30 1   
    56   29   34 1   
    57   29   54 1   
    58   30   31 1   
    59   30   55 1   
    60   30   56 1   
    61   31   32 1   
    62   31   57 1   
    63   31   58 1   
    64   32   33 1   
    65   33   34 1   
    66   33   59 1   
    67   33   60 1   
    68   34   61 1   
    69   34   62 1   
@<TRIPOS>SUBSTRUCTURE
     1 1R7         1 TEMP              0 ****  ****    0 ROOT
