@<TRIPOS>MOLECULE
1R7
   65    69     1     0     0
SMALL
bcc


@<TRIPOS>ATOM
      1 C4          0.0570    0.1830   -0.0200 ca        1 1R7     -0.018000
      2 C5          1.4400    0.2700    0.1340 ca        1 1R7     -0.125500
      3 C6          1.9920    0.3260    1.4190 ca        1 1R7     -0.144300
      4 C7          3.4730    0.3350    1.5910 c3        1 1R7      0.175100
      5 C13         7.8510    4.4890    1.2240 ca        1 1R7     -0.051000
      6 C15         8.9410    6.5970    0.9090 ca        1 1R7      0.400200
      7 C17         6.6200    6.5930    0.6980 ca        1 1R7      0.442200
      8 C24        -4.4880    1.6580    1.0700 c3        1 1R7     -0.056900
      9 C28        -2.5980    2.3330   -0.3670 c3        1 1R7     -0.056900
     10 C1          1.1590    0.3040    2.5420 ca        1 1R7     -0.125500
     11 C2         -0.2230    0.2140    2.3740 ca        1 1R7     -0.018000
     12 C3         -0.7860    0.1560    1.0960 ca        1 1R7     -0.296500
     13 N8          4.0160    1.7270    1.4070 ny        1 1R7     -0.662800
     14 C9          5.5350    1.7660    1.5450 c         1 1R7      0.658100
     15 O10         6.0880    0.6990    1.8100 o         1 1R7     -0.440100
     16 N11         6.1540    2.9880    1.3630 n         1 1R7     -0.235200
     17 C12         7.5670    3.1510    1.4600 cc        1 1R7     -0.060400
     18 C14         9.0520    5.2560    1.1830 ca        1 1R7     -0.199300
     19 N16         7.7440    7.2630    0.6690 nb        1 1R7     -0.618000
     20 C18         6.5730    5.1770    0.9720 ca        1 1R7     -0.140300
     21 C19         5.5560    4.2400    1.0620 cc        1 1R7     -0.145400
     22 S20        -2.4800   -0.0550    0.9020 sy        1 1R7      1.357300
     23 O21        -2.6970   -0.6480   -0.3430 o         1 1R7     -0.626800
     24 O22        -2.9570   -0.6830    2.0560 o         1 1R7     -0.626800
     25 C23        -2.9750    1.5880    0.9000 c3        1 1R7     -0.286900
     26 C25        -4.9710    3.1050    1.0640 c3        1 1R7      0.184800
     27 N26        -4.5570    3.8410   -0.1230 n3        1 1R7     -0.736600
     28 C27        -3.1270    3.7670   -0.3560 c3        1 1R7      0.184800
     29 C29        -5.1270    5.1940   -0.1460 c3        1 1R7      0.193500
     30 C30        -4.3290    6.2210   -0.9620 c3        1 1R7     -0.114400
     31 C31        -5.0260    7.5720   -0.9150 c3        1 1R7      0.124900
     32 O32        -6.3590    7.5000   -1.4020 os        1 1R7     -0.405600
     33 C33        -7.1550    6.5650   -0.6840 c3        1 1R7      0.124900
     34 C34        -6.5600    5.1690   -0.7120 c3        1 1R7     -0.114400
     35 H1         -0.3810    0.1060   -1.0340 ha        1 1R7      0.181500
     36 H2          2.0900    0.2570   -0.7540 ha        1 1R7      0.147500
     37 H3          3.7750   -0.0180    2.6200 hx        1 1R7      0.126700
     38 H4          3.9750   -0.3310    0.8280 hx        1 1R7      0.126700
     39 H7         -4.7850    1.1870    2.0450 hc        1 1R7      0.065200
     40 H8         -4.9840    1.0920    0.2360 hc        1 1R7      0.065200
     41 H9         -1.4810    2.3720   -0.4680 hc        1 1R7      0.065200
     42 H10        -3.0120    1.7840   -1.2570 hc        1 1R7      0.065200
     43 H11         1.5840    0.3260    3.5580 ha        1 1R7      0.147500
     44 H12        -0.8810    0.1570    3.2620 ha        1 1R7      0.181500
     45 H13         3.5950    2.3480    2.1100 hn        1 1R7      0.463800
     46 H14         8.2080    2.2940    1.6870 h4        1 1R7      0.215000
     47 H15        10.0220    4.7740    1.3660 ha        1 1R7      0.167000
     48 H16         4.4810    4.3680    0.9410 h4        1 1R7      0.173000
     49 H17        -2.5200    2.1390    1.7710 h1        1 1R7      0.108700
     50 H18        -6.0970    3.1030    1.0910 h1        1 1R7      0.036700
     51 H19        -4.6060    3.6050    2.0110 h1        1 1R7      0.036700
     52 H21        -2.9150    4.2150   -1.3680 h1        1 1R7      0.036700
     53 H22        -2.5430    4.3530    0.4150 h1        1 1R7      0.036700
     54 H23        -5.1870    5.5980    0.9150 h1        1 1R7      0.025700
     55 H24        -4.2500    5.8840   -2.0280 hc        1 1R7      0.057450
     56 H25        -3.2950    6.3410   -0.5480 hc        1 1R7      0.057450
     57 H26        -4.5240    8.3050   -1.6010 h1        1 1R7      0.051700
     58 H27        -5.0300    7.9750    0.1340 h1        1 1R7      0.051700
     59 H28        -7.2840    6.9190    0.3740 h1        1 1R7      0.051700
     60 H29        -8.1450    6.5900   -1.2150 h1        1 1R7      0.051700
     61 H30        -6.5400    4.7890   -1.7660 hc        1 1R7      0.057450
     62 H31        -7.2110    4.4850   -0.1110 hc        1 1R7      0.057450
     63 H5          9.8290    7.2570    0.8610 h4        1 1R7      0.049100
     64 H82         3.7460    2.0690    0.4760 hn        1 1R7      0.463800
     65 H6          5.6830    7.1480    0.5030 h4        1 1R7      0.040100
@<TRIPOS>BOND
     1    1    2 ar  
     2    1   12 ar  
     3    1   35 1   
     4    2    3 ar  
     5    2   36 1   
     6    3    4 1   
     7    3   10 ar  
     8    4   13 1   
     9    4   37 1   
    10    4   38 1   
    11    5   17 2   
    12    5   18 ar  
    13    5   20 ar  
    14    6   18 ar  
    15    6   19 ar  
    16    6   63 1   
    17    7   19 ar  
    18    7   20 ar  
    19    7   65 1   
    20    8   25 1   
    21    8   26 1   
    22    8   39 1   
    23    8   40 1   
    24    9   25 1   
    25    9   28 1   
    26    9   41 1   
    27    9   42 1   
    28   10   11 ar  
    29   10   43 1   
    30   11   12 ar  
    31   11   44 1   
    32   12   22 1   
    33   13   14 1   
    34   13   45 1   
    35   13   64 1   
    36   14   15 2   
    37   14   16 1   
    38   16   17 1   
    39   16   21 1   
    40   17   46 1   
    41   18   47 1   
    42   20   21 2   
    43   21   48 1   
    44   22   23 2   
    45   22   24 2   
    46   22   25 1   
    47   25   49 1   
    48   26   27 1   
    49   26   50 1   
    50   26   51 1   
    51   27   28 1   
    52   27   29 1   
    53   28   52 1   
    54   28   53 1   
    55   29   30 1   
    56   29   34 1   
    57   29   54 1   
    58   30   31 1   
    59   30   55 1   
    60   30   56 1   
    61   31   32 1   
    62   31   57 1   
    63   31   58 1   
    64   32   33 1   
    65   33   34 1   
    66   33   59 1   
    67   33   60 1   
    68   34   61 1   
    69   34   62 1   
@<TRIPOS>SUBSTRUCTURE
     1 1R7         1 TEMP              0 ****  ****    0 ROOT
