@<TRIPOS>MOLECULE
1R7
   65    69     1     0     0
SMALL
bcc


@<TRIPOS>ATOM
      1 C4          0.0610    0.1820   -0.0030 ca        1 1R7     -0.018000
      2 C5          1.4430    0.2690    0.1590 ca        1 1R7     -0.125500
      3 C6          1.9870    0.3280    1.4470 ca        1 1R7     -0.144300
      4 C7          3.4670    0.3370    1.6270 c3        1 1R7      0.175100
      5 C13         7.8510    4.4830    1.2350 ca        1 1R7     -0.051000
      6 C15         8.9450    6.5850    0.9000 ca        1 1R7      0.400200
      7 C17         6.6250    6.5820    0.6770 ca        1 1R7      0.442200
      8 C24        -4.4920    1.6570    1.0580 c3        1 1R7     -0.056900
      9 C28        -2.5920    2.3320   -0.3680 c3        1 1R7     -0.056900
     10 C1          1.1480    0.3080    2.5650 ca        1 1R7     -0.125500
     11 C2         -0.2340    0.2170    2.3880 ca        1 1R7     -0.018000
     12 C3         -0.7890    0.1570    1.1070 ca        1 1R7     -0.296500
     13 N8          4.0120    1.7280    1.4340 n4        1 1R7     -0.662800
     14 C9          5.5300    1.7660    1.5790 c         1 1R7      0.658100
     15 O10         6.0810    0.7020    1.8600 o         1 1R7     -0.440100
     16 N11         6.1510    2.9860    1.3850 n         1 1R7     -0.235200
     17 C12         7.5640    3.1480    1.4870 cc        1 1R7     -0.060400
     18 C14         9.0530    5.2480    1.1900 ca        1 1R7     -0.199300
     19 N16         7.7500    7.2500    0.6460 nb        1 1R7     -0.618000
     20 C18         6.5750    5.1700    0.9680 ca        1 1R7     -0.140300
     21 C19         5.5560    4.2350    1.0660 cc        1 1R7     -0.145400
     22 S20        -2.4820   -0.0550    0.9030 sy        1 1R7      1.357300
     23 O21        -2.6910   -0.6490   -0.3420 o         1 1R7     -0.626800
     24 O22        -2.9650   -0.6830    2.0550 o         1 1R7     -0.626800
     25 C23        -2.9770    1.5880    0.8970 c3        1 1R7     -0.286900
     26 C25        -4.9740    3.1040    1.0480 c3        1 1R7      0.184800
     27 N26        -4.5540    3.8390   -0.1370 n3        1 1R7     -0.736600
     28 C27        -3.1220    3.7660   -0.3610 c3        1 1R7      0.184800
     29 C29        -5.1230    5.1930   -0.1650 c3        1 1R7      0.193500
     30 C30        -4.3200    6.2200   -0.9760 c3        1 1R7     -0.114400
     31 C31        -5.0190    7.5700   -0.9340 c3        1 1R7      0.124900
     32 O32        -6.3480    7.4970   -1.4300 os        1 1R7     -0.406600
     33 C33        -7.1490    6.5630   -0.7170 c3        1 1R7      0.124900
     34 C34        -6.5530    5.1660   -0.7410 c3        1 1R7     -0.114400
     35 H1         -0.3710    0.1020   -1.0200 ha        1 1R7      0.181500
     36 H2          2.0980    0.2540   -0.7260 ha        1 1R7      0.147500
     37 H3          3.9730   -0.3360    0.8740 hx        1 1R7      0.126700
     38 H4          3.7630   -0.0070    2.6610 hx        1 1R7      0.126700
     39 H7         -4.7940    1.1870    2.0310 hc        1 1R7      0.065200
     40 H8         -4.9820    1.0910    0.2210 hc        1 1R7      0.065200
     41 H9         -3.0000    1.7830   -1.2600 hc        1 1R7      0.065200
     42 H10        -1.4750    2.3710   -0.4610 hc        1 1R7      0.065200
     43 H11         1.5670    0.3320    3.5830 ha        1 1R7      0.147500
     44 H12        -0.8970    0.1610    3.2730 ha        1 1R7      0.181500
     45 H13         3.7470    2.0620    0.4980 hn        1 1R7      0.463800
     46 H14         8.2030    2.2930    1.7280 h4        1 1R7      0.215000
     47 H15        10.0220    4.7670    1.3840 ha        1 1R7      0.167000
     48 H16         4.4820    4.3620    0.9380 h4        1 1R7      0.173000
     49 H17        -2.5280    2.1400    1.7710 h1        1 1R7      0.108700
     50 H18        -4.6150    3.6050    1.9970 h1        1 1R7      0.036700
     51 H19        -6.1010    3.1020    1.0680 h1        1 1R7      0.036700
     52 H21        -2.9030    4.2130   -1.3720 h1        1 1R7      0.036700
     53 H22        -2.5430    4.3520    0.4140 h1        1 1R7      0.036700
     54 H23        -5.1910    5.5970    0.8950 h1        1 1R7      0.025700
     55 H24        -4.2350    5.8820   -2.0410 hc        1 1R7      0.057450
     56 H25        -3.2890    6.3400   -0.5550 hc        1 1R7      0.057450
     57 H26        -4.5120    8.3030   -1.6170 h1        1 1R7      0.051700
     58 H27        -5.0300    7.9730    0.1140 h1        1 1R7      0.051700
     59 H28        -8.1350    6.5860   -1.2540 h1        1 1R7      0.051700
     60 H29        -7.2850    6.9170    0.3400 h1        1 1R7      0.051700
     61 H30        -7.2080    4.4830   -0.1430 hc        1 1R7      0.057450
     62 H31        -6.5250    4.7860   -1.7940 hc        1 1R7      0.057450
     63 H5          9.8340    7.2440    0.8470 h4        1 1R7      0.049100
     64 H82         3.5880    2.3540    2.1290 hn        1 1R7      0.463800
     65 H6          5.6900    7.1350    0.4720 h4        1 1R7      0.040100
@<TRIPOS>BOND
     1    1    2 ar  
     2    1   12 ar  
     3    1   35 1   
     4    2    3 ar  
     5    2   36 1   
     6    3    4 1   
     7    3   10 ar  
     8    4   13 1   
     9    4   37 1   
    10    4   38 1   
    11    5   17 2   
    12    5   18 ar  
    13    5   20 ar  
    14    6   18 ar  
    15    6   19 ar  
    16    6   63 1   
    17    7   19 ar  
    18    7   20 ar  
    19    7   65 1   
    20    8   25 1   
    21    8   26 1   
    22    8   39 1   
    23    8   40 1   
    24    9   25 1   
    25    9   28 1   
    26    9   41 1   
    27    9   42 1   
    28   10   11 ar  
    29   10   43 1   
    30   11   12 ar  
    31   11   44 1   
    32   12   22 1   
    33   13   14 1   
    34   13   45 1   
    35   13   64 1   
    36   14   15 2   
    37   14   16 1   
    38   16   17 1   
    39   16   21 1   
    40   17   46 1   
    41   18   47 1   
    42   20   21 2   
    43   21   48 1   
    44   22   23 2   
    45   22   24 2   
    46   22   25 1   
    47   25   49 1   
    48   26   27 1   
    49   26   50 1   
    50   26   51 1   
    51   27   28 1   
    52   27   29 1   
    53   28   52 1   
    54   28   53 1   
    55   29   30 1   
    56   29   34 1   
    57   29   54 1   
    58   30   31 1   
    59   30   55 1   
    60   30   56 1   
    61   31   32 1   
    62   31   57 1   
    63   31   58 1   
    64   32   33 1   
    65   33   34 1   
    66   33   59 1   
    67   33   60 1   
    68   34   61 1   
    69   34   62 1   
@<TRIPOS>SUBSTRUCTURE
     1 1R7         1 TEMP              0 ****  ****    0 ROOT
