@<TRIPOS>MOLECULE
1R8
   78    77     1     0     0
SMALL
bcc


@<TRIPOS>ATOM
      1 C2          3.1700   -1.3650   -4.4710 cy        1 1R8     -0.174500
      2 C3          4.0150   -0.1280   -4.4790 cy        1 1R8     -0.170000
      3 C4          4.1170   -0.1800   -2.9830 cy        1 1R8     -0.174500
      4 C1          3.2500   -1.4210   -2.9580 cy        1 1R8      0.056000
      5 C12         2.0040   -1.2600   -2.1710 c3        1 1R8     -0.164000
      6 O13         4.2270   -2.2150   -2.4390 os        1 1R8     -0.196000
      7 C15         3.7690   -3.4880   -1.6340 c2        1 1R8      0.092000
      8 C16         4.6450   -4.5230   -1.3240 c1        1 1R8     -0.155000
      9 C17         4.1480   -5.7330   -0.7510 c1        1 1R8     -0.096000
     10 C18         2.7550   -5.8840   -0.4950 c1        1 1R8     -0.100000
     11 C20         2.2260   -7.1940   -0.0030 c2        1 1R8     -0.121000
     12 C21         3.1350   -7.7260    1.1330 c3        1 1R8     -0.207000
     13 C19         1.8380   -4.8110   -0.8150 c2        1 1R8     -0.098000
     14 C14         2.3110   -3.6450   -1.3660 c2        1 1R8     -0.172000
     15 C11         1.3650   -2.4370   -1.7590 c3        1 1R8      0.031000
     16 N10         0.5100   -2.1060   -0.5700 n3        1 1R8     -0.312000
     17 C9         -0.6320   -1.2440   -1.0110 c3        1 1R8     -0.112000
     18 C6         -1.1180   -0.4020    0.1470 c3        1 1R8      0.010000
     19 O8         -0.1330   -0.3530    1.1340 oh        1 1R8     -0.335000
     20 C5         -1.4150    1.0030   -0.3420 c3        1 1R8      0.040000
     21 C22        -0.2240    1.9020   -0.0560 c3        1 1R8     -0.138000
     22 C23        -0.3000    2.4350    1.4980 c2        1 1R8     -0.070000
     23 C24        -1.2400    3.4040    1.8550 c2        1 1R8     -0.122000
     24 C28         0.6640    2.0240    2.4220 c1        1 1R8     -0.134000
     25 C27         0.6890    2.5830    3.7080 c1        1 1R8     -0.129500
     26 C26        -0.2450    3.5460    4.0640 c1        1 1R8     -0.129500
     27 C25        -1.2180    3.9610    3.1330 c1        1 1R8     -0.066000
     28 C29        -2.1790    5.0960    3.4870 c3        1 1R8     -0.123000
     29 C30        -3.6670    4.5720    3.4250 c3        1 1R8     -0.151000
     30 C33        -4.4190    5.2860    2.2240 c3        1 1R8     -0.165000
     31 C34        -5.4630    4.3110    1.6160 c3        1 1R8     -0.155000
     32 C35        -5.2240    4.1820    0.0630 c3        1 1R8     -0.155000
     33 C36        -4.7190    2.6610   -0.2800 c3        1 1R8     -0.172000
     34 C31        -3.1250    2.6390   -0.4250 c1        1 1R8      0.305000
     35 O32        -2.5950    2.9970   -1.4720 o         1 1R8     -0.390000
     36 N7         -2.5670    1.5110    0.3340 n2        1 1R8     -0.371000
     37 H1          2.2510   -1.2010   -4.7980 hc        1 1R8      0.101750
     38 H2          3.6190   -2.1410   -4.9100 hc        1 1R8      0.101750
     39 H3          3.5280    0.6640   -4.7980 hc        1 1R8      0.092000
     40 H4          4.8770   -0.2620   -4.9210 hc        1 1R8      0.092000
     41 H5          5.0150   -0.3480   -2.6790 hc        1 1R8      0.101750
     42 H6          3.6900    0.5910   -2.5460 hc        1 1R8      0.101750
     43 H7          1.3640   -0.7400   -2.7160 hc        1 1R8      0.105500
     44 H8          2.2210   -0.7290   -1.3580 hc        1 1R8      0.105500
     45 H9          5.6420   -4.4190   -1.5070 ha        1 1R8      0.149000
     46 H10         4.7830   -6.4420   -0.4620 ha        1 1R8      0.135000
     47 H11         1.3220   -7.0730    0.3350 ha        1 1R8      0.086500
     48 H12         2.2150   -7.8330   -0.7330 ha        1 1R8      0.086500
     49 H13         2.6710   -8.4540    1.6110 hc        1 1R8      0.075000
     50 H14         3.3340   -6.9990    1.7600 hc        1 1R8      0.075000
     51 H15         3.9790   -8.0700    0.7480 hc        1 1R8      0.075000
     52 H16         0.8540   -4.9170   -0.6330 ha        1 1R8      0.131000
     53 H17         0.7810   -2.7320   -2.4790 h1        1 1R8      0.102000
     54 H18         0.1830   -2.8820   -0.2020 hn        1 1R8      0.166000
     55 H20        -0.3260   -0.6440   -1.7560 h1        1 1R8      0.084500
     56 H21        -1.3760   -1.8220   -1.3330 h1        1 1R8      0.084500
     57 H22        -1.9270   -0.7960    0.5160 h1        1 1R8      0.088000
     58 H23        -0.2890   -0.9950    1.7440 ho        1 1R8      0.217000
     59 H24        -1.5830    0.9850   -1.3120 h1        1 1R8      0.123000
     60 H25        -0.2410    2.6800   -0.6750 hc        1 1R8      0.104000
     61 H26         0.5980    1.4000   -0.1870 hc        1 1R8      0.104000
     62 H27        -1.9190    3.6940    1.2040 ha        1 1R8      0.140000
     63 H28         1.3220    1.3440    2.1710 ha        1 1R8      0.131000
     64 H29         1.3700    2.2920    4.3600 ha        1 1R8      0.130500
     65 H30        -0.2260    3.9450    4.9810 ha        1 1R8      0.130500
     66 H31        -1.9830    5.4190    4.3900 hc        1 1R8      0.088000
     67 H32        -2.0640    5.8450    2.8320 hc        1 1R8      0.088000
     68 H33        -3.6700    3.5930    3.2810 hc        1 1R8      0.080000
     69 H34        -4.1230    4.7790    4.2680 hc        1 1R8      0.080000
     70 H35        -4.8690    6.0810    2.5490 hc        1 1R8      0.088500
     71 H36        -3.7650    5.5400    1.5320 hc        1 1R8      0.088500
     72 H37        -6.4100    4.6720    1.7890 hc        1 1R8      0.078000
     73 H38        -5.3680    3.4260    2.0370 hc        1 1R8      0.078000
     74 H39        -6.0490    4.3610   -0.4070 hc        1 1R8      0.096500
     75 H40        -4.5370    4.8290   -0.2190 hc        1 1R8      0.096500
     76 H41        -4.9860    2.0630    0.4390 hc        1 1R8      0.101500
     77 H42        -5.1350    2.3570   -1.1370 hc        1 1R8      0.101500
     78 H43        -3.1240    0.9380    0.7810 hn        1 1R8      0.235000
@<TRIPOS>BOND
     1    1    2 1   
     2    1    4 1   
     3    1   37 1   
     4    1   38 1   
     5    2    3 1   
     6    2   39 1   
     7    2   40 1   
     8    3    4 1   
     9    3   41 1   
    10    3   42 1   
    11    4    5 1   
    12    4    6 1   
    13    5   15 1   
    14    5   43 1   
    15    5   44 1   
    16    6    7 1   
    17    7    8 1   
    18    7   14 1   
    19    8   45 1   
    20    9   10 1   
    21    9   46 1   
    22   10   13 1   
    23   11   12 1   
    24   11   47 1   
    25   11   48 1   
    26   12   49 1   
    27   12   50 1   
    28   12   51 1   
    29   13   14 1   
    30   13   52 1   
    31   14   15 1   
    32   15   16 1   
    33   15   53 1   
    34   16   17 1   
    35   16   54 1   
    36   17   18 1   
    37   17   55 1   
    38   17   56 1   
    39   18   19 1   
    40   18   20 1   
    41   18   57 1   
    42   19   58 1   
    43   20   21 1   
    44   20   36 1   
    45   20   59 1   
    46   21   22 1   
    47   21   60 1   
    48   21   61 1   
    49   22   23 1   
    50   22   24 1   
    51   23   27 1   
    52   23   62 1   
    53   24   63 1   
    54   25   26 1   
    55   25   64 1   
    56   26   65 1   
    57   27   28 1   
    58   28   29 1   
    59   28   66 1   
    60   28   67 1   
    61   29   30 1   
    62   29   68 1   
    63   29   69 1   
    64   30   31 1   
    65   30   70 1   
    66   30   71 1   
    67   31   32 1   
    68   31   72 1   
    69   31   73 1   
    70   32   33 1   
    71   32   74 1   
    72   32   75 1   
    73   33   34 1   
    74   33   76 1   
    75   33   77 1   
    76   34   35 1   
    77   36   78 1   
@<TRIPOS>SUBSTRUCTURE
     1 1R8         1 TEMP              0 ****  ****    0 ROOT
