@<TRIPOS>MOLECULE
1R8
   78    82     1     0     0
SMALL
bcc


@<TRIPOS>ATOM
      1 C2          5.1460   -2.7680    1.3050 cy        1 1R8     -0.095900
      2 C3          6.4380   -3.5120    0.9130 cy        1 1R8     -0.091400
      3 C4          6.6390   -2.5660   -0.2870 cy        1 1R8     -0.095900
      4 C1          5.3140   -1.8280    0.0730 cy        1 1R8      0.127800
      5 C12         4.2340   -1.9020   -0.9750 c3        1 1R8     -0.086400
      6 O13         5.6420   -0.4920    0.4530 os        1 1R8     -0.313900
      7 C15         4.6070    0.4210    0.4630 ca        1 1R8      0.138100
      8 C16         4.9620    1.6960    0.9410 ca        1 1R8     -0.156000
      9 C17         4.0040    2.6980    0.9840 ca        1 1R8     -0.097000
     10 C18         2.6920    2.4490    0.5590 ca        1 1R8     -0.112300
     11 C20         1.6720    3.5320    0.6190 c3        1 1R8     -0.032100
     12 C21         1.9070    4.5930   -0.4290 c3        1 1R8     -0.090100
     13 C19         2.3530    1.1790    0.0880 ca        1 1R8     -0.096000
     14 C14         3.2980    0.1500    0.0290 ca        1 1R8     -0.179300
     15 C11         2.9450   -1.2370   -0.4520 c3        1 1R8      0.236800
     16 N10         1.8970   -1.3380   -1.4540 n3        1 1R8     -0.830200
     17 C9          0.5490   -1.4480   -0.9360 c3        1 1R8      0.133800
     18 C6         -0.5100   -0.6690   -1.7380 c3        1 1R8      0.115100
     19 O8         -0.2950   -0.7660   -3.1360 oh        1 1R8     -0.596800
     20 C5         -1.9420   -1.1810   -1.4100 c3        1 1R8      0.070700
     21 C22        -2.9620   -0.3380   -2.2120 c3        1 1R8     -0.064100
     22 C23        -3.2370    0.9890   -1.5990 ca        1 1R8     -0.082300
     23 C24        -4.1430    1.0910   -0.5380 ca        1 1R8     -0.144000
     24 C28        -2.5820    2.1420   -2.0490 ca        1 1R8     -0.129000
     25 C27        -2.8200    3.3660   -1.4280 ca        1 1R8     -0.125000
     26 C26        -3.6850    3.4510   -0.3370 ca        1 1R8     -0.130000
     27 C25        -4.3450    2.3060    0.1240 ca        1 1R8     -0.076300
     28 C29        -5.2320    2.3630    1.3200 c3        1 1R8     -0.038100
     29 C30        -4.9240    1.2580    2.3210 c3        1 1R8     -0.077400
     30 C33        -6.0070    0.1990    2.3750 c3        1 1R8     -0.082400
     31 C34        -5.5080   -1.1190    2.9390 c3        1 1R8     -0.080400
     32 C35        -4.8530   -2.0060    1.8960 c3        1 1R8     -0.076400
     33 C36        -3.3420   -2.0790    2.0290 c3        1 1R8     -0.152400
     34 C31        -2.7250   -2.3060    0.6570 c         1 1R8      0.652100
     35 O32        -2.6650   -3.4430    0.1490 o         1 1R8     -0.603100
     36 N7         -2.2090   -1.1950    0.0080 n         1 1R8     -0.559900
     37 H1          4.2270   -3.3880    1.2690 hc        1 1R8      0.062700
     38 H2          5.2110   -2.2310    2.2750 hc        1 1R8      0.062700
     39 H3          7.2430   -3.4480    1.6750 hc        1 1R8      0.052700
     40 H4          6.2780   -4.5730    0.6280 hc        1 1R8      0.052700
     41 H5          7.5350   -1.9140   -0.2080 hc        1 1R8      0.062700
     42 H6          6.6070   -3.0600   -1.2800 hc        1 1R8      0.062700
     43 H7          4.5850   -1.3870   -1.9060 hc        1 1R8      0.067200
     44 H8          4.0330   -2.9750   -1.2260 hc        1 1R8      0.067200
     45 H9          5.9950    1.8780    1.2710 ha        1 1R8      0.148000
     46 H10         4.2740    3.6990    1.3550 ha        1 1R8      0.134000
     47 H11         0.6440    3.0990    0.4850 hc        1 1R8      0.044200
     48 H12         1.7000    4.0050    1.6390 hc        1 1R8      0.044200
     49 H13         1.8380    4.1580   -1.4550 hc        1 1R8      0.035700
     50 H14         1.1430    5.4020   -0.3350 hc        1 1R8      0.035700
     51 H15         2.9210    5.0460   -0.3080 hc        1 1R8      0.035700
     52 H16         1.3180    0.9920   -0.2390 ha        1 1R8      0.129000
     53 H17         2.6140   -1.8260    0.4600 h1        1 1R8      0.064700
     54 H18         1.9730   -0.6040   -2.1330 hn        1 1R8      0.378800
     55 H20         0.2850   -2.5450   -0.9650 h1        1 1R8      0.053700
     56 H21         0.4780   -1.1140    0.1390 h1        1 1R8      0.053700
     57 H22        -0.4420    0.4360   -1.5300 h1        1 1R8      0.076700
     58 H23        -0.1930   -1.7010   -3.3510 ho        1 1R8      0.411000
     59 H24        -2.0120   -2.2470   -1.7890 h1        1 1R8      0.089700
     60 H25        -2.5530   -0.2110   -3.2500 hc        1 1R8      0.068700
     61 H26        -3.9200   -0.9190   -2.2900 hc        1 1R8      0.068700
     62 H27        -4.7030    0.2010   -0.2090 ha        1 1R8      0.135000
     63 H28        -1.8760    2.0750   -2.8920 ha        1 1R8      0.143000
     64 H29        -2.3130    4.2720   -1.7940 ha        1 1R8      0.134000
     65 H30        -3.8460    4.4170    0.1620 ha        1 1R8      0.133000
     66 H31        -5.1150    3.3600    1.8240 hc        1 1R8      0.052200
     67 H32        -6.3020    2.2940    0.9830 hc        1 1R8      0.052200
     68 H33        -3.9430    0.7750    2.0650 hc        1 1R8      0.041700
     69 H34        -4.8040    1.7070    3.3430 hc        1 1R8      0.041700
     70 H35        -6.8500    0.5750    3.0140 hc        1 1R8      0.043200
     71 H36        -6.4310    0.0300    1.3490 hc        1 1R8      0.043200
     72 H37        -4.8010   -0.9220    3.7870 hc        1 1R8      0.045200
     73 H38        -6.3870   -1.6690    3.3720 hc        1 1R8      0.045200
     74 H39        -5.2660   -3.0470    1.9820 hc        1 1R8      0.051200
     75 H40        -5.1250   -1.6440    0.8680 hc        1 1R8      0.051200
     76 H41        -2.9380   -1.1510    2.5100 hc        1 1R8      0.068200
     77 H42        -3.0540   -2.9460    2.6800 hc        1 1R8      0.068200
     78 H43        -2.3670   -0.3040    0.4240 hn        1 1R8      0.309500
@<TRIPOS>BOND
     1    1    2 1   
     2    1    4 1   
     3    1   37 1   
     4    1   38 1   
     5    2    3 1   
     6    2   39 1   
     7    2   40 1   
     8    3    4 1   
     9    3   41 1   
    10    3   42 1   
    11    4    5 1   
    12    4    6 1   
    13    5   15 1   
    14    5   43 1   
    15    5   44 1   
    16    6    7 1   
    17    7    8 ar  
    18    7   14 ar  
    19    8    9 ar  
    20    8   45 1   
    21    9   10 ar  
    22    9   46 1   
    23   10   11 1   
    24   10   13 ar  
    25   11   12 1   
    26   11   47 1   
    27   11   48 1   
    28   12   49 1   
    29   12   50 1   
    30   12   51 1   
    31   13   14 ar  
    32   13   52 1   
    33   14   15 1   
    34   15   16 1   
    35   15   53 1   
    36   16   17 1   
    37   16   54 1   
    38   17   18 1   
    39   17   55 1   
    40   17   56 1   
    41   18   19 1   
    42   18   20 1   
    43   18   57 1   
    44   19   58 1   
    45   20   21 1   
    46   20   36 1   
    47   20   59 1   
    48   21   22 1   
    49   21   60 1   
    50   21   61 1   
    51   22   23 ar  
    52   22   24 ar  
    53   23   27 ar  
    54   23   62 1   
    55   24   25 ar  
    56   24   63 1   
    57   25   26 ar  
    58   25   64 1   
    59   26   27 ar  
    60   26   65 1   
    61   27   28 1   
    62   28   29 1   
    63   28   66 1   
    64   28   67 1   
    65   29   30 1   
    66   29   68 1   
    67   29   69 1   
    68   30   31 1   
    69   30   70 1   
    70   30   71 1   
    71   31   32 1   
    72   31   72 1   
    73   31   73 1   
    74   32   33 1   
    75   32   74 1   
    76   32   75 1   
    77   33   34 1   
    78   33   76 1   
    79   33   77 1   
    80   34   35 2   
    81   34   36 1   
    82   36   78 1   
@<TRIPOS>SUBSTRUCTURE
     1 1R8         1 TEMP              0 ****  ****    0 ROOT
