@<TRIPOS>MOLECULE
1R8
   80    84     1     0     0
SMALL
bcc


@<TRIPOS>ATOM
      1 C2          1.3050    0.3580    1.5830 cy        1 1R8     -0.087900
      2 C3          2.6950    0.7630    2.1140 cy        1 1R8     -0.084400
      3 C4          2.0790    1.9630    2.8620 cy        1 1R8     -0.087900
      4 C1          0.6730    1.5830    2.3060 cy        1 1R8      0.112800
      5 C12         0.0290    2.6350    1.4300 c3        1 1R8     -0.117400
      6 O13        -0.1660    1.2380    3.4090 os        1 1R8     -0.288900
      7 C15        -1.4290    0.8260    3.0450 ca        1 1R8      0.175100
      8 C16        -2.0900   -0.0490    3.9300 ca        1 1R8     -0.132000
      9 C17        -3.3560   -0.5070    3.6050 ca        1 1R8     -0.051000
     10 C18        -3.9740   -0.1320    2.3940 ca        1 1R8     -0.073300
     11 C20        -5.3090   -0.6910    2.0440 c3        1 1R8     -0.048100
     12 C21        -6.4030   -0.1640    2.9420 c3        1 1R8     -0.094100
     13 C19        -3.3160    0.7380    1.5330 ca        1 1R8     -0.116000
     14 C14        -2.0500    1.2580    1.8640 ca        1 1R8     -0.260300
     15 C11        -1.3660    2.2160    0.9490 c3        1 1R8      0.227800
     16 N10        -2.2660    3.4480    0.7980 ny        1 1R8     -0.771000
     17 C9         -1.8900    4.2880   -0.3640 c3        1 1R8      0.104800
     18 C6         -2.7170    5.5930   -0.4570 c3        1 1R8      0.113100
     19 O8         -2.6260    6.1990    0.8150 oh        1 1R8     -0.597800
     20 C5         -2.1190    6.4680   -1.5940 c3        1 1R8      0.091500
     21 C22        -0.9130    7.3030   -1.0990 c3        1 1R8     -0.054100
     22 C23        -1.2180    8.7480   -0.9170 ca        1 1R8     -0.172300
     23 C24        -1.1140    9.6210   -2.0090 ca        1 1R8     -0.166000
     24 C28        -1.5730    9.2530    0.3380 ca        1 1R8     -0.139000
     25 C27        -1.8530   10.6120    0.4880 ca        1 1R8     -0.103000
     26 C26        -1.7910   11.4690   -0.6100 ca        1 1R8     -0.093000
     27 C25        -1.4210   10.9790   -1.8710 ca        1 1R8     -0.043300
     28 C29        -1.3290   11.8960   -3.0410 c3        1 1R8     -0.056100
     29 C30        -2.6210   11.9920   -3.8350 c3        1 1R8     -0.081400
     30 C33        -2.9160   10.7620   -4.6720 c3        1 1R8     -0.083400
     31 C34        -4.0290    9.9170   -4.0810 c3        1 1R8     -0.093400
     32 C35        -4.1410    8.5840   -4.7950 c3        1 1R8     -0.109400
     33 C36        -4.9580    7.5580   -4.0360 c3        1 1R8     -0.157400
     34 C31        -4.1520    6.6520   -3.1480 c         1 1R8      0.559100
     35 O32        -4.2110    5.4360   -3.0560 o         1 1R8     -0.432100
     36 N7         -3.1490    7.3450   -2.2440 ny        1 1R8     -0.689800
     37 H1          0.9380   -0.6160    1.9740 hc        1 1R8      0.073950
     38 H2          1.2060    0.3880    0.4780 hc        1 1R8      0.073950
     39 H3          3.4180    1.0470    1.3210 hc        1 1R8      0.075700
     40 H4          3.1570    0.0060    2.7840 hc        1 1R8      0.075700
     41 H5          2.1380    1.8900    3.9700 hc        1 1R8      0.073950
     42 H6          2.4330    2.9580    2.5230 hc        1 1R8      0.073950
     43 H7         -0.0130    3.5850    2.0320 hc        1 1R8      0.074200
     44 H8          0.6900    2.8170    0.5420 hc        1 1R8      0.074200
     45 H9         -1.5840   -0.3580    4.8590 ha        1 1R8      0.182000
     46 H10        -3.8850   -1.1940    4.2880 ha        1 1R8      0.170000
     47 H11        -5.2650   -1.8120    2.1320 hc        1 1R8      0.062200
     48 H12        -5.5580   -0.4570    0.9740 hc        1 1R8      0.062200
     49 H13        -6.1840   -0.3990    4.0130 hc        1 1R8      0.045700
     50 H14        -7.3780   -0.6370    2.6700 hc        1 1R8      0.045700
     51 H15        -6.5060    0.9430    2.8380 hc        1 1R8      0.045700
     52 H16        -3.7800    0.9950    0.5680 ha        1 1R8      0.120000
     53 H17        -1.2940    1.7660   -0.0880 hx        1 1R8      0.103700
     54 H18        -2.2030    4.0130    1.6590 hn        1 1R8      0.461800
     55 H20        -0.7950    4.5470   -0.2620 hx        1 1R8      0.118200
     56 H21        -2.0460    3.6910   -1.3080 hx        1 1R8      0.118200
     57 H22        -3.7940    5.3380   -0.6820 h1        1 1R8      0.076700
     58 H23        -3.0510    7.0680    0.7810 ho        1 1R8      0.446000
     59 H24        -1.7620    5.7640   -2.4080 hx        1 1R8      0.116700
     60 H25        -0.5560    6.8630   -0.1280 hc        1 1R8      0.097200
     61 H26        -0.0810    7.1880   -1.8470 hc        1 1R8      0.097200
     62 H27        -0.7400    9.2520   -2.9780 ha        1 1R8      0.137000
     63 H28        -1.5900    8.5920    1.2190 ha        1 1R8      0.141000
     64 H29        -2.1090   11.0130    1.4830 ha        1 1R8      0.167000
     65 H30        -2.0140   12.5420   -0.4840 ha        1 1R8      0.170000
     66 H31        -1.0610   12.9260   -2.6770 hc        1 1R8      0.075700
     67 H32        -0.4960   11.5630   -3.7180 hc        1 1R8      0.075700
     68 H33        -3.4750   12.2080   -3.1410 hc        1 1R8      0.066200
     69 H34        -2.5280   12.8790   -4.5210 hc        1 1R8      0.066200
     70 H35        -1.9870   10.1420   -4.7810 hc        1 1R8      0.055200
     71 H36        -3.2170   11.0780   -5.7070 hc        1 1R8      0.055200
     72 H37        -5.0030   10.4710   -4.1710 hc        1 1R8      0.042700
     73 H38        -3.8460    9.7800   -2.9830 hc        1 1R8      0.042700
     74 H39        -3.1250    8.1750   -5.0390 hc        1 1R8      0.082700
     75 H40        -4.6480    8.7600   -5.7870 hc        1 1R8      0.082700
     76 H41        -5.7440    8.0640   -3.4080 hc        1 1R8      0.129200
     77 H42        -5.4940    6.8810   -4.7660 hc        1 1R8      0.129200
     78 H43        -2.6460    8.0520   -2.8160 hn        1 1R8      0.476800
     79 H102       -3.2380    3.1290    0.7050 hn        1 1R8      0.461800
     80 H72        -3.6590    7.8640   -1.5180 hn        1 1R8      0.476800
@<TRIPOS>BOND
     1    1    2 1   
     2    1    4 1   
     3    1   37 1   
     4    1   38 1   
     5    2    3 1   
     6    2   39 1   
     7    2   40 1   
     8    3    4 1   
     9    3   41 1   
    10    3   42 1   
    11    4    5 1   
    12    4    6 1   
    13    5   15 1   
    14    5   43 1   
    15    5   44 1   
    16    6    7 1   
    17    7    8 ar  
    18    7   14 ar  
    19    8    9 ar  
    20    8   45 1   
    21    9   10 ar  
    22    9   46 1   
    23   10   11 1   
    24   10   13 ar  
    25   11   12 1   
    26   11   47 1   
    27   11   48 1   
    28   12   49 1   
    29   12   50 1   
    30   12   51 1   
    31   13   14 ar  
    32   13   52 1   
    33   14   15 1   
    34   15   16 1   
    35   15   53 1   
    36   16   17 1   
    37   16   54 1   
    38   16   79 1   
    39   17   18 1   
    40   17   55 1   
    41   17   56 1   
    42   18   19 1   
    43   18   20 1   
    44   18   57 1   
    45   19   58 1   
    46   20   21 1   
    47   20   36 1   
    48   20   59 1   
    49   21   22 1   
    50   21   60 1   
    51   21   61 1   
    52   22   23 ar  
    53   22   24 ar  
    54   23   27 ar  
    55   23   62 1   
    56   24   25 ar  
    57   24   63 1   
    58   25   26 ar  
    59   25   64 1   
    60   26   27 ar  
    61   26   65 1   
    62   27   28 1   
    63   28   29 1   
    64   28   66 1   
    65   28   67 1   
    66   29   30 1   
    67   29   68 1   
    68   29   69 1   
    69   30   31 1   
    70   30   70 1   
    71   30   71 1   
    72   31   32 1   
    73   31   72 1   
    74   31   73 1   
    75   32   33 1   
    76   32   74 1   
    77   32   75 1   
    78   33   34 1   
    79   33   76 1   
    80   33   77 1   
    81   34   35 2   
    82   34   36 1   
    83   36   78 1   
    84   36   80 1   
@<TRIPOS>SUBSTRUCTURE
     1 1R8         1 TEMP              0 ****  ****    0 ROOT
