@<TRIPOS>MOLECULE
1R8
   80    84     1     0     0
SMALL
bcc


@<TRIPOS>ATOM
      1 C2          0.2150   -0.3880    0.1380 cy        1 1R8     -0.087900
      2 C3          1.7390   -0.6130    0.0690 cy        1 1R8     -0.084400
      3 C4          1.9700    0.5170    1.0920 cy        1 1R8     -0.087900
      4 C1          0.4340    0.7750    1.1490 cy        1 1R8      0.111800
      5 C12         0.0030    2.1550    0.7040 c3        1 1R8     -0.116400
      6 O13        -0.0200    0.4890    2.4730 os        1 1R8     -0.287900
      7 C15        -1.3800    0.6260    2.6410 ca        1 1R8      0.175100
      8 C16        -1.9730   -0.1510    3.6570 ca        1 1R8     -0.131000
      9 C17        -3.3400   -0.0640    3.8600 ca        1 1R8     -0.050000
     10 C18        -4.1430    0.7670    3.0490 ca        1 1R8     -0.071300
     11 C20        -5.6180    0.7930    3.2540 c3        1 1R8     -0.048100
     12 C21        -6.0010    1.4440    4.5610 c3        1 1R8     -0.095100
     13 C19        -3.5440    1.5340    2.0570 ca        1 1R8     -0.116000
     14 C14        -2.1500    1.5020    1.8630 ca        1 1R8     -0.261300
     15 C11        -1.5130    2.3560    0.8210 c3        1 1R8      0.229800
     16 N10        -1.8300    3.8190    1.1550 n4        1 1R8     -0.771000
     17 C9         -1.5820    4.7390    0.0180 c3        1 1R8      0.055800
     18 C6         -1.6800    6.2250    0.4330 c3        1 1R8      0.108100
     19 O8         -0.9490    6.4110    1.6260 oh        1 1R8     -0.566800
     20 C5         -1.1720    7.1800   -0.6780 c3        1 1R8      0.096500
     21 C22        -1.0670    8.6230   -0.1150 c3        1 1R8     -0.058100
     22 C23        -2.2640    9.4590   -0.4020 ca        1 1R8     -0.173300
     23 C24        -2.2630   10.3040   -1.5200 ca        1 1R8     -0.159000
     24 C28        -3.3720    9.4430    0.4510 ca        1 1R8     -0.131000
     25 C27        -4.4760   10.2460    0.1700 ca        1 1R8     -0.107000
     26 C26        -4.4860   11.0610   -0.9620 ca        1 1R8     -0.092000
     27 C25        -3.3760   11.0960   -1.8190 ca        1 1R8     -0.046300
     28 C29        -3.3650   11.9920   -3.0090 c3        1 1R8     -0.056100
     29 C30        -3.7820   11.3060   -4.2980 c3        1 1R8     -0.080400
     30 C33        -2.7290   10.3710   -4.8630 c3        1 1R8     -0.083400
     31 C34        -3.0410    8.9140   -4.5770 c3        1 1R8     -0.091400
     32 C35        -1.8210    8.0430   -4.8030 c3        1 1R8     -0.109400
     33 C36        -2.0320    6.5940   -4.4160 c3        1 1R8     -0.157400
     34 C31        -1.5800    6.2310   -3.0290 c         1 1R8      0.562100
     35 O32        -0.9230    5.2600   -2.6860 o         1 1R8     -0.450100
     36 N7         -2.0200    7.1630   -1.9170 n4        1 1R8     -0.691800
     37 H1         -0.2500   -0.0720   -0.8180 hc        1 1R8      0.073950
     38 H2         -0.3480   -1.2430    0.5730 hc        1 1R8      0.073950
     39 H3          2.1810   -0.4150   -0.9310 hc        1 1R8      0.075700
     40 H4          2.0620   -1.6150    0.4260 hc        1 1R8      0.075700
     41 H5          2.5490    1.3830    0.7110 hc        1 1R8      0.073950
     42 H6          2.3850    0.1740    2.0660 hc        1 1R8      0.073950
     43 H7          0.3170    2.3040   -0.3630 hc        1 1R8      0.072700
     44 H8          0.5640    2.8960    1.3380 hc        1 1R8      0.072700
     45 H9         -1.3400   -0.8180    4.2640 ha        1 1R8      0.183000
     46 H10        -3.8190   -0.6670    4.6510 ha        1 1R8      0.171000
     47 H11        -6.0020   -0.2650    3.2390 hc        1 1R8      0.061200
     48 H12        -6.1160    1.3340    2.4060 hc        1 1R8      0.061200
     49 H13        -7.1110    1.4070    4.6910 hc        1 1R8      0.046367
     50 H14        -5.5280    0.9120    5.4230 hc        1 1R8      0.046367
     51 H15        -5.6770    2.5120    4.5860 hc        1 1R8      0.046367
     52 H16        -4.1770    2.1490    1.3980 ha        1 1R8      0.117000
     53 H17        -2.0030    2.1660   -0.1820 hx        1 1R8      0.100700
     54 H18        -1.2520    4.1120    1.9580 hn        1 1R8      0.461300
     55 H20        -0.5490    4.5210   -0.3880 hx        1 1R8      0.109200
     56 H21        -2.3290    4.5120   -0.7920 hx        1 1R8      0.109200
     57 H22        -2.7410    6.4920    0.7200 h1        1 1R8      0.113700
     58 H23        -0.0050    6.4860    1.4180 ho        1 1R8      0.438000
     59 H24        -0.1360    6.8410   -0.9860 hx        1 1R8      0.114700
     60 H25        -0.9040    8.5670    0.9970 hc        1 1R8      0.105700
     61 H26        -0.1510    9.1010   -0.5600 hc        1 1R8      0.105700
     62 H27        -1.3620   10.3860   -2.1520 ha        1 1R8      0.138000
     63 H28        -3.3600    8.8270    1.3640 ha        1 1R8      0.139000
     64 H29        -5.3400   10.2520    0.8550 ha        1 1R8      0.164000
     65 H30        -5.3620   11.6970   -1.1740 ha        1 1R8      0.168000
     66 H31        -2.3390   12.4340   -3.1340 hc        1 1R8      0.076200
     67 H32        -4.0690   12.8510   -2.8250 hc        1 1R8      0.076200
     68 H33        -3.9860   12.1110   -5.0560 hc        1 1R8      0.064700
     69 H34        -4.7470   10.7570   -4.1410 hc        1 1R8      0.064700
     70 H35        -2.6650   10.5120   -5.9760 hc        1 1R8      0.058200
     71 H36        -1.7210   10.6360   -4.4460 hc        1 1R8      0.058200
     72 H37        -3.4200    8.8190   -3.5250 hc        1 1R8      0.040700
     73 H38        -3.8740    8.5740   -5.2490 hc        1 1R8      0.040700
     74 H39        -0.9260    8.4690   -4.2760 hc        1 1R8      0.083700
     75 H40        -1.5730    8.0700   -5.9030 hc        1 1R8      0.083700
     76 H41        -1.4480    5.9240   -5.1150 hc        1 1R8      0.128700
     77 H42        -3.1190    6.3140   -4.5140 hc        1 1R8      0.128700
     78 H43        -2.9900    6.9440   -1.6650 hn        1 1R8      0.479300
     79 H102       -2.8130    3.8780    1.4500 hn        1 1R8      0.461300
     80 H72        -2.0240    8.1300   -2.3100 hn        1 1R8      0.479300
@<TRIPOS>BOND
     1    1    2 1   
     2    1    4 1   
     3    1   37 1   
     4    1   38 1   
     5    2    3 1   
     6    2   39 1   
     7    2   40 1   
     8    3    4 1   
     9    3   41 1   
    10    3   42 1   
    11    4    5 1   
    12    4    6 1   
    13    5   15 1   
    14    5   43 1   
    15    5   44 1   
    16    6    7 1   
    17    7    8 ar  
    18    7   14 ar  
    19    8    9 ar  
    20    8   45 1   
    21    9   10 ar  
    22    9   46 1   
    23   10   11 1   
    24   10   13 ar  
    25   11   12 1   
    26   11   47 1   
    27   11   48 1   
    28   12   49 1   
    29   12   50 1   
    30   12   51 1   
    31   13   14 ar  
    32   13   52 1   
    33   14   15 1   
    34   15   16 1   
    35   15   53 1   
    36   16   17 1   
    37   16   54 1   
    38   16   79 1   
    39   17   18 1   
    40   17   55 1   
    41   17   56 1   
    42   18   19 1   
    43   18   20 1   
    44   18   57 1   
    45   19   58 1   
    46   20   21 1   
    47   20   36 1   
    48   20   59 1   
    49   21   22 1   
    50   21   60 1   
    51   21   61 1   
    52   22   23 ar  
    53   22   24 ar  
    54   23   27 ar  
    55   23   62 1   
    56   24   25 ar  
    57   24   63 1   
    58   25   26 ar  
    59   25   64 1   
    60   26   27 ar  
    61   26   65 1   
    62   27   28 1   
    63   28   29 1   
    64   28   66 1   
    65   28   67 1   
    66   29   30 1   
    67   29   68 1   
    68   29   69 1   
    69   30   31 1   
    70   30   70 1   
    71   30   71 1   
    72   31   32 1   
    73   31   72 1   
    74   31   73 1   
    75   32   33 1   
    76   32   74 1   
    77   32   75 1   
    78   33   34 1   
    79   33   76 1   
    80   33   77 1   
    81   34   35 2   
    82   34   36 1   
    83   36   78 1   
    84   36   80 1   
@<TRIPOS>SUBSTRUCTURE
     1 1R8         1 TEMP              0 ****  ****    0 ROOT
