@<TRIPOS>MOLECULE
1R9
   47    50     1     0     0
SMALL
bcc


@<TRIPOS>ATOM
      1 C1          0.4670   -0.5220    0.1840 ca        1 1R9     -0.059300
      2 C2          1.8200   -0.0740    0.1470 ca        1 1R9      0.091600
      3 C3          2.5000    0.1220    1.3710 ca        1 1R9     -0.081000
      4 C4          1.8340   -0.0710    2.5860 ca        1 1R9     -0.184600
      5 C5          0.5020   -0.5010    2.6180 ca        1 1R9     -0.129000
      6 C6         -0.1580   -0.7340    1.4180 ca        1 1R9     -0.099000
      7 C7         -0.2920   -0.7760   -1.0620 c3        1 1R9     -0.077800
      8 C8          2.6040    0.1570    3.8090 c         1 1R9      0.589700
      9 N9          1.8590    0.9390    4.8960 ny        1 1R9     -0.649800
     10 O10         3.7560   -0.1370    4.0790 o         1 1R9     -0.405100
     11 C11         1.7520    0.1750    6.1480 cx        1 1R9     -0.002500
     12 C12         0.4780   -0.5560    6.5170 cx        1 1R9     -0.102900
     13 C13         0.8760    0.6670    7.2820 cx        1 1R9     -0.102900
     14 C14         3.5640    0.9690   -1.2880 c         1 1R9      0.738700
     15 C15         4.0770    1.0360   -2.6540 cc        1 1R9     -0.322000
     16 C16         5.1450    1.8790   -2.9980 cd        1 1R9      0.438200
     17 N17         5.5240    1.8350   -4.3180 nd        1 1R9     -0.611000
     18 C18         4.7520    0.9600   -4.9820 cc        1 1R9      0.512900
     19 S19         3.5630    0.1830   -4.0100 ss        1 1R9     -0.068300
     20 C20         4.8710    0.6420   -6.3990 ca        1 1R9     -0.164500
     21 C21         3.8090    0.9410   -7.2650 ca        1 1R9     -0.096000
     22 C22         3.9070    0.6490   -8.6220 ca        1 1R9     -0.130000
     23 C23         5.0660    0.0600   -9.1290 ca        1 1R9     -0.093000
     24 C24         6.1290   -0.2410   -8.2810 ca        1 1R9     -0.126000
     25 C25         6.0360    0.0510   -6.9150 ca        1 1R9      0.058400
     26 N26         2.4540    0.1340   -1.0790 ns        1 1R9     -0.480100
     27 O27         4.0710    1.6110   -0.3500 o         1 1R9     -0.584100
     28 Cl1         7.3410   -0.3350   -5.9020 cl        1 1R9     -0.061400
     29 H1          3.5620    0.4340    1.3790 ha        1 1R9      0.197000
     30 H2         -0.0160   -0.6960    3.5690 ha        1 1R9      0.132000
     31 H3         -1.2010   -1.0920    1.4360 ha        1 1R9      0.161000
     32 H4         -1.3480   -1.0720   -0.8400 hc        1 1R9      0.066033
     33 H5          0.1790   -1.6060   -1.6480 hc        1 1R9      0.066033
     34 H6         -0.3210    0.1430   -1.7020 hc        1 1R9      0.066033
     35 H7          0.9270    1.1960    4.5530 hn        1 1R9      0.457800
     36 H8          2.7370   -0.2940    6.3890 hx        1 1R9      0.157700
     37 H9         -0.4040   -0.5080    5.8500 hc        1 1R9      0.109450
     38 H10         0.5830   -1.5560    6.9820 hc        1 1R9      0.109450
     39 H11         1.2740    0.5700    8.3110 hc        1 1R9      0.109450
     40 H12         0.2810    1.5930    7.1640 hc        1 1R9      0.109450
     41 H13         5.6730    2.5460   -2.3010 h4        1 1R9      0.072100
     42 H14         2.9000    1.4200   -6.8690 ha        1 1R9      0.141000
     43 H15         3.0710    0.8910   -9.2960 ha        1 1R9      0.148000
     44 H16         5.1440   -0.1660  -10.2040 ha        1 1R9      0.150000
     45 H17         7.0440   -0.7030   -8.6840 ha        1 1R9      0.160000
     46 H18         2.0160   -0.2690   -1.8790 hn        1 1R9      0.331500
     47 H92         2.3870    1.8000    5.0930 hn        1 1R9      0.457800
@<TRIPOS>BOND
     1    1    2 ar  
     2    1    6 ar  
     3    1    7 1   
     4    2    3 ar  
     5    2   26 1   
     6    3    4 ar  
     7    3   29 1   
     8    4    5 ar  
     9    4    8 1   
    10    5    6 ar  
    11    5   30 1   
    12    6   31 1   
    13    7   32 1   
    14    7   33 1   
    15    7   34 1   
    16    8    9 1   
    17    8   10 2   
    18    9   11 1   
    19    9   35 1   
    20    9   47 1   
    21   11   12 1   
    22   11   13 1   
    23   11   36 1   
    24   12   13 1   
    25   12   37 1   
    26   12   38 1   
    27   13   39 1   
    28   13   40 1   
    29   14   15 1   
    30   14   26 1   
    31   14   27 2   
    32   15   16 2   
    33   15   19 1   
    34   16   17 1   
    35   16   41 1   
    36   17   18 2   
    37   18   19 1   
    38   18   20 1   
    39   20   21 ar  
    40   20   25 ar  
    41   21   22 ar  
    42   21   42 1   
    43   22   23 ar  
    44   22   43 1   
    45   23   24 ar  
    46   23   44 1   
    47   24   25 ar  
    48   24   45 1   
    49   25   28 1   
    50   26   46 1   
@<TRIPOS>SUBSTRUCTURE
     1 1R9         1 TEMP              0 ****  ****    0 ROOT
