@<TRIPOS>MOLECULE
1R9
   47    50     1     0     0
SMALL
bcc


@<TRIPOS>ATOM
      1 C1          0.4800   -0.5580    0.1870 ca        1 1R9     -0.059300
      2 C2          1.8230   -0.0850    0.1480 ca        1 1R9      0.091600
      3 C3          2.5010    0.1300    1.3710 ca        1 1R9     -0.081000
      4 C4          1.8390   -0.0720    2.5860 ca        1 1R9     -0.184600
      5 C5          0.5150   -0.5270    2.6210 ca        1 1R9     -0.129000
      6 C6         -0.1400   -0.7770    1.4220 ca        1 1R9     -0.099000
      7 C7         -0.2750   -0.8310   -1.0580 c3        1 1R9     -0.077800
      8 C8          2.6050    0.1760    3.8080 c         1 1R9      0.589700
      9 N9          1.8460    0.9480    4.8930 n4        1 1R9     -0.649800
     10 O10         3.7630   -0.0960    4.0780 o         1 1R9     -0.405100
     11 C11         1.7550    0.1870    6.1480 cx        1 1R9     -0.002500
     12 C12         0.4960   -0.5680    6.5210 cx        1 1R9     -0.102900
     13 C13         0.8700    0.6670    7.2800 cx        1 1R9     -0.102900
     14 C14         3.5460    0.9880   -1.2930 c         1 1R9      0.738700
     15 C15         4.0580    1.0590   -2.6590 cc        1 1R9     -0.322000
     16 C16         5.1040    1.9250   -3.0080 cd        1 1R9      0.438200
     17 N17         5.4860    1.8820   -4.3270 nd        1 1R9     -0.611000
     18 C18         4.7360    0.9840   -4.9860 cc        1 1R9      0.512900
     19 S19         3.5670    0.1840   -4.0090 ss        1 1R9     -0.068300
     20 C20         4.8640    0.6590   -6.4000 ca        1 1R9     -0.164500
     21 C21         3.7930    0.9190   -7.2670 ca        1 1R9     -0.096000
     22 C22         3.8990    0.6210   -8.6230 ca        1 1R9     -0.130000
     23 C23         5.0750    0.0630   -9.1260 ca        1 1R9     -0.093000
     24 C24         6.1470   -0.1990   -8.2770 ca        1 1R9     -0.126000
     25 C25         6.0470    0.1000   -6.9120 ca        1 1R9      0.058400
     26 N26         2.4540    0.1310   -1.0790 n         1 1R9     -0.480100
     27 O27         4.0400    1.6440   -0.3570 o         1 1R9     -0.584100
     28 CL1         7.3640   -0.2380   -5.8990 cl        1 1R9     -0.061400
     29 H1          3.5560    0.4620    1.3770 ha        1 1R9      0.197000
     30 H2          0.0020   -0.7290    3.5730 ha        1 1R9      0.132000
     31 H3         -1.1760   -1.1560    1.4420 ha        1 1R9      0.161000
     32 H4         -1.3250   -1.1460   -0.8340 hc        1 1R9      0.066033
     33 H5          0.2110   -1.6550   -1.6400 hc        1 1R9      0.066033
     34 H6         -0.3210    0.0840   -1.7010 hc        1 1R9      0.066033
     35 H7          2.3570    1.8190    5.0850 hn        1 1R9      0.457800
     36 H8          2.7490   -0.2610    6.3900 hx        1 1R9      0.157700
     37 H9         -0.3870   -0.5410    5.8540 hc        1 1R9      0.109450
     38 H10         0.6210   -1.5640    6.9900 hc        1 1R9      0.109450
     39 H11         1.2710    0.5810    8.3100 hc        1 1R9      0.109450
     40 H12         0.2560    1.5790    7.1590 hc        1 1R9      0.109450
     41 H13         5.6150    2.6100   -2.3140 h4        1 1R9      0.072100
     42 H14         2.8710    1.3730   -6.8740 ha        1 1R9      0.141000
     43 H15         3.0560    0.8320   -9.2980 ha        1 1R9      0.148000
     44 H16         5.1600   -0.1680  -10.2000 ha        1 1R9      0.150000
     45 H17         7.0760   -0.6350   -8.6770 ha        1 1R9      0.160000
     46 H18         2.0230   -0.2840   -1.8770 hn        1 1R9      0.331500
     47 H92         0.9090    1.1840    4.5490 hn        1 1R9      0.457800
@<TRIPOS>BOND
     1    1    2 ar  
     2    1    6 ar  
     3    1    7 1   
     4    2    3 ar  
     5    2   26 1   
     6    3    4 ar  
     7    3   29 1   
     8    4    5 ar  
     9    4    8 1   
    10    5    6 ar  
    11    5   30 1   
    12    6   31 1   
    13    7   32 1   
    14    7   33 1   
    15    7   34 1   
    16    8    9 1   
    17    8   10 2   
    18    9   11 1   
    19    9   35 1   
    20    9   47 1   
    21   11   12 1   
    22   11   13 1   
    23   11   36 1   
    24   12   13 1   
    25   12   37 1   
    26   12   38 1   
    27   13   39 1   
    28   13   40 1   
    29   14   15 1   
    30   14   26 1   
    31   14   27 2   
    32   15   16 2   
    33   15   19 1   
    34   16   17 1   
    35   16   41 1   
    36   17   18 2   
    37   18   19 1   
    38   18   20 1   
    39   20   21 ar  
    40   20   25 ar  
    41   21   22 ar  
    42   21   42 1   
    43   22   23 ar  
    44   22   43 1   
    45   23   24 ar  
    46   23   44 1   
    47   24   25 ar  
    48   24   45 1   
    49   25   28 1   
    50   26   46 1   
@<TRIPOS>SUBSTRUCTURE
     1 1R9         1 TEMP              0 ****  ****    0 ROOT
