@<TRIPOS>MOLECULE
1R9
   48    51     1     0     0
SMALL
bcc


@<TRIPOS>ATOM
      1 C1          0.3280   -0.1170   -0.2210 ca        1 1R9      0.032700
      2 C2          1.6840   -0.4300    0.0340 ca        1 1R9     -0.041400
      3 C3          2.1650   -0.5020    1.3540 ca        1 1R9     -0.002000
      4 C4          1.2970   -0.2580    2.4280 ca        1 1R9     -0.190600
      5 C5         -0.0500    0.0410    2.1830 ca        1 1R9     -0.048000
      6 C6         -0.5180    0.1060    0.8760 ca        1 1R9     -0.109000
      7 C7         -0.2200   -0.0270   -1.5930 c3        1 1R9     -0.110800
      8 C8          1.8820   -0.3750    3.7750 c         1 1R9      0.560700
      9 N9          1.1620    0.3570    4.8870 n4        1 1R9     -0.630800
     10 O10         2.8990   -0.9860    4.0680 o         1 1R9     -0.381100
     11 C11         1.9130    0.3930    6.1570 cx        1 1R9     -0.014500
     12 C12         1.5130   -0.4800    7.3300 cx        1 1R9     -0.091900
     13 C13         1.2800    0.9960    7.3970 cx        1 1R9     -0.091900
     14 C14         3.7210    0.4060   -1.2010 c         1 1R9      0.636700
     15 C15         4.1770    0.6180   -2.5240 cc        1 1R9     -0.425000
     16 C16         5.1910    1.5860   -2.7900 cd        1 1R9      0.532200
     17 N17         5.5560    1.7040   -4.0870 nd        1 1R9     -0.627000
     18 C18         4.8550    0.8410   -4.8650 cc        1 1R9      0.643900
     19 S19         3.7280   -0.1280   -3.9740 ss        1 1R9     -0.106300
     20 C20         4.9680    0.6770   -6.2920 ca        1 1R9     -0.219500
     21 C21         3.8720    0.0980   -6.9750 ca        1 1R9     -0.092000
     22 C22         3.9020   -0.0850   -8.3460 ca        1 1R9     -0.126000
     23 C23         5.0330    0.3050   -9.0770 ca        1 1R9     -0.045000
     24 C24         6.1230    0.8690   -8.4270 ca        1 1R9     -0.135000
     25 C25         6.1050    1.0600   -7.0350 ca        1 1R9      0.100400
     26 N26         2.6130   -0.6770   -1.0680 n4        1 1R9     -0.562200
     27 O27         4.0680    0.9090   -0.1400 o         1 1R9     -0.460100
     28 CL1         7.4810    1.7230   -6.3200 cl        1 1R9     -0.009400
     29 H1          3.2290   -0.7330    1.5600 ha        1 1R9      0.194000
     30 H2         -0.7690    0.2110    3.0020 ha        1 1R9      0.154000
     31 H3         -1.5840    0.3390    0.6910 ha        1 1R9      0.192000
     32 H4         -0.1370   -1.0120   -2.1230 hc        1 1R9      0.088367
     33 H5         -1.3070    0.2490   -1.5770 hc        1 1R9      0.088367
     34 H6          0.3130    0.7590   -2.1880 hc        1 1R9      0.088367
     35 H7          0.2540   -0.1000    5.0420 hn        1 1R9      0.461800
     36 H8          2.9980    0.5620    5.9590 hx        1 1R9      0.159700
     37 H9          0.6420   -1.1590    7.2490 hc        1 1R9      0.117450
     38 H10         2.3310   -0.9410    7.9200 hc        1 1R9      0.117450
     39 H11         1.9280    1.6310    8.0370 hc        1 1R9      0.117450
     40 H12         0.2430    1.3810    7.3660 hc        1 1R9      0.117450
     41 H13         5.6700    2.2220   -2.0250 h4        1 1R9      0.085100
     42 H14         2.9750   -0.1970   -6.4060 ha        1 1R9      0.129000
     43 H15         3.0390   -0.5310   -8.8670 ha        1 1R9      0.163000
     44 H16         5.0560    0.1640  -10.1710 ha        1 1R9      0.170000
     45 H17         7.0130    1.1730   -9.0050 ha        1 1R9      0.179000
     46 H18         3.0800   -1.5790   -0.9050 hn        1 1R9      0.464800
     47 H92         0.9930    1.3250    4.5830 hn        1 1R9      0.461800
     48 H262        2.0920   -0.7350   -1.9520 hn        1 1R9      0.464800
@<TRIPOS>BOND
     1    1    2 ar  
     2    1    6 ar  
     3    1    7 1   
     4    2    3 ar  
     5    2   26 1   
     6    3    4 ar  
     7    3   29 1   
     8    4    5 ar  
     9    4    8 1   
    10    5    6 ar  
    11    5   30 1   
    12    6   31 1   
    13    7   32 1   
    14    7   33 1   
    15    7   34 1   
    16    8    9 1   
    17    8   10 2   
    18    9   11 1   
    19    9   35 1   
    20    9   47 1   
    21   11   12 1   
    22   11   13 1   
    23   11   36 1   
    24   12   13 1   
    25   12   37 1   
    26   12   38 1   
    27   13   39 1   
    28   13   40 1   
    29   14   15 1   
    30   14   26 1   
    31   14   27 2   
    32   15   16 2   
    33   15   19 1   
    34   16   17 1   
    35   16   41 1   
    36   17   18 2   
    37   18   19 1   
    38   18   20 1   
    39   20   21 ar  
    40   20   25 ar  
    41   21   22 ar  
    42   21   42 1   
    43   22   23 ar  
    44   22   43 1   
    45   23   24 ar  
    46   23   44 1   
    47   24   25 ar  
    48   24   45 1   
    49   25   28 1   
    50   26   46 1   
    51   26   48 1   
@<TRIPOS>SUBSTRUCTURE
     1 1R9         1 TEMP              0 ****  ****    0 ROOT
