@<TRIPOS>MOLECULE
1R9
   46    49     1     0     0
SMALL
bcc


@<TRIPOS>ATOM
      1 C1         -2.5310    2.5990   -0.1900 ca        1 1R9     -0.106300
      2 C2         -2.1210    1.2410   -0.2750 ca        1 1R9      0.062600
      3 C3         -3.0940    0.2450   -0.5090 ca        1 1R9     -0.094000
      4 C4         -4.4370    0.5940   -0.6380 ca        1 1R9     -0.121600
      5 C5         -4.8390    1.9280   -0.5550 ca        1 1R9     -0.126000
      6 C6         -3.8830    2.9160   -0.3390 ca        1 1R9     -0.115000
      7 C7         -1.5540    3.6890    0.0450 c3        1 1R9     -0.057800
      8 C8         -5.4280   -0.4930   -0.9030 c         1 1R9      0.678700
      9 N9         -6.5730   -0.4800   -0.1250 n         1 1R9     -0.541900
     10 O10        -5.2420   -1.3540   -1.7840 o         1 1R9     -0.590100
     11 C11        -7.5630   -1.4910   -0.2170 cx        1 1R9      0.054700
     12 C12        -9.0130   -1.2060    0.1260 cx        1 1R9     -0.154400
     13 C13        -8.2010   -2.1010    1.0170 cx        1 1R9     -0.154400
     14 C14        -0.2430   -0.2960    0.2800 c         1 1R9      0.721700
     15 C15         1.2240   -0.3980    0.3300 cc        1 1R9     -0.289000
     16 C16         1.8690   -1.5220    0.8580 cd        1 1R9      0.412200
     17 N17         3.2450   -1.4750    0.8350 nd        1 1R9     -0.614000
     18 C18         3.6450   -0.3180    0.2860 cc        1 1R9      0.471900
     19 S19         2.3620    0.7150   -0.2090 ss        1 1R9     -0.066300
     20 C20         5.0340    0.0780    0.0890 ca        1 1R9     -0.142500
     21 C21         5.5460    1.1720    0.7990 ca        1 1R9     -0.098000
     22 C22         6.8690    1.5680    0.6250 ca        1 1R9     -0.133000
     23 C23         7.6960    0.8730   -0.2590 ca        1 1R9     -0.104000
     24 C24         7.2020   -0.2190   -0.9690 ca        1 1R9     -0.130000
     25 C25         5.8720   -0.6210   -0.7960 ca        1 1R9      0.053400
     26 N26        -0.7570    0.9210   -0.1610 n         1 1R9     -0.476100
     27 O27        -0.9690   -1.2500    0.6150 o         1 1R9     -0.572100
     28 CL1         5.2950   -1.9490   -1.6790 cl        1 1R9     -0.064400
     29 H1         -2.8040   -0.8180   -0.5930 ha        1 1R9      0.185000
     30 H2         -5.8970    2.2050   -0.6760 ha        1 1R9      0.140000
     31 H3         -4.1980    3.9700   -0.2820 ha        1 1R9      0.136000
     32 H4         -0.8350    3.7680   -0.8090 hc        1 1R9      0.046033
     33 H5         -2.0710    4.6760    0.1480 hc        1 1R9      0.046033
     34 H6         -0.9740    3.5070    0.9850 hc        1 1R9      0.046033
     35 H7         -6.6410    0.1690    0.6220 hn        1 1R9      0.310500
     36 H8         -7.3590   -2.1690   -1.0800 h1        1 1R9      0.122700
     37 H9         -9.3050   -0.2090    0.5000 hc        1 1R9      0.073700
     38 H10        -9.7930   -1.6450   -0.5200 hc        1 1R9      0.073700
     39 H11        -8.3950   -3.1880    1.0160 hc        1 1R9      0.073700
     40 H12        -7.9190   -1.7360    2.0200 hc        1 1R9      0.073700
     41 H13         1.3580   -2.4030    1.2720 h4        1 1R9      0.071100
     42 H14         4.8980    1.7130    1.5060 ha        1 1R9      0.143000
     43 H15         7.2630    2.4270    1.1880 ha        1 1R9      0.142000
     44 H16         8.7430    1.1840   -0.3950 ha        1 1R9      0.142000
     45 H17         7.8560   -0.7690   -1.6630 ha        1 1R9      0.153000
     46 H18        -0.1200    1.6720   -0.3070 hn        1 1R9      0.317500
@<TRIPOS>BOND
     1    1    2 ar  
     2    1    6 ar  
     3    1    7 1   
     4    2    3 ar  
     5    2   26 1   
     6    3    4 ar  
     7    3   29 1   
     8    4    5 ar  
     9    4    8 1   
    10    5    6 ar  
    11    5   30 1   
    12    6   31 1   
    13    7   32 1   
    14    7   33 1   
    15    7   34 1   
    16    8    9 1   
    17    8   10 2   
    18    9   11 1   
    19    9   35 1   
    20   11   12 1   
    21   11   13 1   
    22   11   36 1   
    23   12   13 1   
    24   12   37 1   
    25   12   38 1   
    26   13   39 1   
    27   13   40 1   
    28   14   15 1   
    29   14   26 1   
    30   14   27 2   
    31   15   16 2   
    32   15   19 1   
    33   16   17 1   
    34   16   41 1   
    35   17   18 2   
    36   18   19 1   
    37   18   20 1   
    38   20   21 ar  
    39   20   25 ar  
    40   21   22 ar  
    41   21   42 1   
    42   22   23 ar  
    43   22   43 1   
    44   23   24 ar  
    45   23   44 1   
    46   24   25 ar  
    47   24   45 1   
    48   25   28 1   
    49   26   46 1   
@<TRIPOS>SUBSTRUCTURE
     1 1R9         1 TEMP              0 ****  ****    0 ROOT
