@<TRIPOS>MOLECULE
1RA
   54    57     1     0     0
SMALL
bcc


@<TRIPOS>ATOM
      1 C1          0.5070    0.5360    0.3020 ca        1 1RA     -0.061300
      2 N10         1.9290    0.1330    5.2040 ny        1 1RA     -0.650800
      3 C11         1.2190   -0.5160    6.3140 cx        1 1RA     -0.002500
      4 C12        -0.2610   -0.2860    6.5430 cx        1 1RA     -0.103400
      5 C13         0.7340    0.2920    7.5010 cx        1 1RA     -0.103400
      6 N14         2.6020   -0.0730   -0.7990 ns        1 1RA     -0.478100
      7 C16         4.0030   -0.1450   -0.8500 c         1 1RA      0.695700
      8 O17         4.6850   -0.1470    0.1890 o         1 1RA     -0.578100
      9 C18         4.6010   -0.1930   -2.2100 ca        1 1RA     -0.158600
     10 C19         5.7420    0.5820   -2.4350 ca        1 1RA     -0.057000
     11 C2          1.8300    0.0090    0.3600 ca        1 1RA      0.092600
     12 C20         4.6260   -1.0790   -4.4770 ca        1 1RA     -0.091000
     13 C21         4.0530   -1.0140   -3.2130 ca        1 1RA     -0.123000
     14 C22         5.7550   -0.3110   -4.7480 ca        1 1RA     -0.052800
     15 C23         6.3100    0.5270   -3.7090 ca        1 1RA     -0.000400
     16 N24         7.4400    1.1840   -4.2470 n         1 1RA     -0.238200
     17 C25         7.5900    0.7640   -5.5900 cc        1 1RA     -0.018400
     18 C26         6.5910   -0.1340   -5.9210 cd        1 1RA     -0.175200
     19 C27         8.2560    2.0880   -3.5660 c         1 1RA      0.764100
     20 O28         8.1100    2.4770   -2.4000 o         1 1RA     -0.549000
     21 O29         9.2990    2.5530   -4.3250 os        1 1RA     -0.428900
     22 C3          2.3210   -0.4460    1.6060 ca        1 1RA     -0.086000
     23 C30        10.1750    3.4870   -3.6480 c3        1 1RA      0.150400
     24 C31        11.2350    3.8490   -4.6580 c3        1 1RA     -0.106100
     25 C4          1.5380   -0.3260    2.7570 ca        1 1RA     -0.184600
     26 C5          0.2430    0.2050    2.6990 ca        1 1RA     -0.133000
     27 C6         -0.2590    0.6140    1.4700 ca        1 1RA     -0.098000
     28 C7         -0.0780    1.0030   -0.9770 c3        1 1RA     -0.077800
     29 C8          2.1170   -0.8110    4.0100 c         1 1RA      0.590700
     30 O9          2.7600   -1.8210    4.2420 o         1 1RA     -0.405100
     31 H1          1.4240    0.9710    4.8960 hn        1 1RA      0.457300
     32 H2          1.6430   -1.5350    6.4890 hx        1 1RA      0.157700
     33 H3         -0.8260    0.3960    5.8800 hc        1 1RA      0.108950
     34 H4         -0.8710   -1.1610    6.8420 hc        1 1RA      0.108950
     35 H5          0.8830    1.3880    7.5250 hc        1 1RA      0.108950
     36 H6          0.8580   -0.1570    8.5060 hc        1 1RA      0.108950
     37 H7          2.1210    0.0420   -1.6660 hn        1 1RA      0.336500
     38 H8          6.1830    1.2030   -1.6370 ha        1 1RA      0.184000
     39 H9          4.2000   -1.7310   -5.2540 ha        1 1RA      0.152000
     40 H10         3.1730   -1.6380   -2.9940 ha        1 1RA      0.135000
     41 H11         8.4190    1.1600   -6.1860 h4        1 1RA      0.197000
     42 H12         6.4470   -0.6270   -6.8800 ha        1 1RA      0.175000
     43 H13         3.3300   -0.8960    1.6800 ha        1 1RA      0.197000
     44 H14        10.6020    2.9810   -2.7440 h1        1 1RA      0.060700
     45 H15         9.5680    4.3740   -3.3300 h1        1 1RA      0.060700
     46 H16        10.7770    4.3210   -5.5600 hc        1 1RA      0.057033
     47 H17        11.9440    4.5720   -4.1880 hc        1 1RA      0.057033
     48 H18        11.7980    2.9420   -4.9820 hc        1 1RA      0.057033
     49 H19        -0.3940    0.2650    3.5940 ha        1 1RA      0.131000
     50 H20        -1.2860    1.0140    1.4130 ha        1 1RA      0.160000
     51 H21        -1.1030    1.4240   -0.8240 hc        1 1RA      0.066033
     52 H22         0.5570    1.8030   -1.4340 hc        1 1RA      0.066033
     53 H23        -0.1620    0.1540   -1.7040 hc        1 1RA      0.066033
     54 H102        2.8590    0.4140    5.5410 hn        1 1RA      0.457300
@<TRIPOS>BOND
     1    1   11 ar  
     2    1   27 ar  
     3    1   28 1   
     4    2    3 1   
     5    2   29 1   
     6    2   31 1   
     7    2   54 1   
     8    3    4 1   
     9    3    5 1   
    10    3   32 1   
    11    4    5 1   
    12    4   33 1   
    13    4   34 1   
    14    5   35 1   
    15    5   36 1   
    16    6    7 1   
    17    6   11 1   
    18    6   37 1   
    19    7    8 2   
    20    7    9 1   
    21    9   10 ar  
    22    9   13 ar  
    23   10   15 ar  
    24   10   38 1   
    25   11   22 ar  
    26   12   13 ar  
    27   12   14 ar  
    28   12   39 1   
    29   13   40 1   
    30   14   15 ar  
    31   14   18 1   
    32   15   16 1   
    33   16   17 1   
    34   16   19 1   
    35   17   18 2   
    36   17   41 1   
    37   18   42 1   
    38   19   20 2   
    39   19   21 1   
    40   21   23 1   
    41   22   25 ar  
    42   22   43 1   
    43   23   24 1   
    44   23   44 1   
    45   23   45 1   
    46   24   46 1   
    47   24   47 1   
    48   24   48 1   
    49   25   26 ar  
    50   25   29 1   
    51   26   27 ar  
    52   26   49 1   
    53   27   50 1   
    54   28   51 1   
    55   28   52 1   
    56   28   53 1   
    57   29   30 2   
@<TRIPOS>SUBSTRUCTURE
     1 1RA         1 TEMP              0 ****  ****    0 ROOT
