@<TRIPOS>MOLECULE
1RA
   53    56     1     0     0
SMALL
bcc


@<TRIPOS>ATOM
      1 C1          2.8970    2.4290   -1.1130 ca        1 1RA     -0.108300
      2 N10         6.1500   -1.2130    0.2820 n         1 1RA     -0.541900
      3 C11         6.9350   -2.2390    0.8680 cx        1 1RA      0.054700
      4 C12         8.2340   -2.6940    0.2330 cx        1 1RA     -0.154900
      5 C13         7.0500   -3.6160    0.2420 cx        1 1RA     -0.154900
      6 N14         0.9320    1.6940    0.1380 n         1 1RA     -0.475100
      7 C16         0.1120    0.6950    0.6520 c         1 1RA      0.680700
      8 O17         0.5300   -0.4400    0.9390 o         1 1RA     -0.569100
      9 C18        -1.3230    1.0730    0.8290 ca        1 1RA     -0.137600
     10 C19        -2.2920    0.1830    0.3640 ca        1 1RA     -0.068000
     11 C2          2.3040    1.5780   -0.1410 ca        1 1RA      0.063600
     12 C20        -3.0000    2.6230    1.6750 ca        1 1RA     -0.096000
     13 C21        -1.6690    2.2720    1.4770 ca        1 1RA     -0.123000
     14 C22        -3.9980    1.7690    1.2130 ca        1 1RA     -0.067800
     15 C23        -3.6310    0.5400    0.5510 ca        1 1RA      0.002600
     16 N24        -4.8270   -0.1280    0.1940 n         1 1RA     -0.239200
     17 C25        -5.9150    0.6660    0.6300 cc        1 1RA     -0.035400
     18 C26        -5.4490    1.8130    1.2450 cd        1 1RA     -0.172200
     19 C27        -4.9120   -1.3490   -0.4690 c         1 1RA      0.762100
     20 O28        -3.9730   -2.0400   -0.8840 o         1 1RA     -0.544000
     21 O29        -6.2060   -1.7730   -0.6570 os        1 1RA     -0.435900
     22 C3          3.1200    0.6540    0.5480 ca        1 1RA     -0.098000
     23 C30        -6.3320   -3.0460   -1.3330 c3        1 1RA      0.148400
     24 C31        -7.8140   -3.3160   -1.4170 c3        1 1RA     -0.104100
     25 C4          4.4820    0.5740    0.2630 ca        1 1RA     -0.121600
     26 C5          5.0630    1.4100   -0.6910 ca        1 1RA     -0.129000
     27 C6          4.2670    2.3320   -1.3640 ca        1 1RA     -0.114000
     28 C7          2.0920    3.4230   -1.8640 c3        1 1RA     -0.057800
     29 C8          5.3100   -0.4050    1.0310 c         1 1RA      0.679700
     30 O9          5.2620   -0.4810    2.2730 o         1 1RA     -0.591100
     31 H1          6.0910   -1.1830   -0.7080 hn        1 1RA      0.311500
     32 H2          6.8950   -2.1820    1.9820 h1        1 1RA      0.121700
     33 H3          8.5610   -2.2590   -0.7280 hc        1 1RA      0.072950
     34 H4          9.0890   -2.9030    0.8990 hc        1 1RA      0.072950
     35 H5          7.0480   -4.4920    0.9140 hc        1 1RA      0.072950
     36 H6          6.5380   -3.8310   -0.7130 hc        1 1RA      0.072950
     37 H7          0.4920    2.5340   -0.1660 hn        1 1RA      0.322500
     38 H8         -2.0140   -0.7680   -0.1200 ha        1 1RA      0.184000
     39 H9         -3.2640    3.5570    2.1910 ha        1 1RA      0.144000
     40 H10        -0.8760    2.9360    1.8540 ha        1 1RA      0.141000
     41 H11        -6.9370    0.3170    0.4500 h4        1 1RA      0.188000
     42 H12        -6.0460    2.6110    1.6790 ha        1 1RA      0.167000
     43 H13         2.6910   -0.0130    1.3170 ha        1 1RA      0.185000
     44 H14        -5.8570   -2.9600   -2.3450 h1        1 1RA      0.060200
     45 H15        -5.7920   -3.8230   -0.7330 h1        1 1RA      0.060200
     46 H16        -8.3290   -2.5110   -1.9940 hc        1 1RA      0.052367
     47 H17        -7.9710   -4.2930   -1.9330 hc        1 1RA      0.052367
     48 H18        -8.2650   -3.3640   -0.3980 hc        1 1RA      0.052367
     49 H19         6.1410    1.3570   -0.9020 ha        1 1RA      0.140000
     50 H20         4.7250    2.9980   -2.1120 ha        1 1RA      0.135000
     51 H21         1.6710    4.1960   -1.1710 hc        1 1RA      0.046033
     52 H22         2.7180    3.9530   -2.6250 hc        1 1RA      0.046033
     53 H23         1.2460    2.9260   -2.4000 hc        1 1RA      0.046033
@<TRIPOS>BOND
     1    1   11 ar  
     2    1   27 ar  
     3    1   28 1   
     4    2    3 1   
     5    2   29 1   
     6    2   31 1   
     7    3    4 1   
     8    3    5 1   
     9    3   32 1   
    10    4    5 1   
    11    4   33 1   
    12    4   34 1   
    13    5   35 1   
    14    5   36 1   
    15    6    7 1   
    16    6   11 1   
    17    6   37 1   
    18    7    8 2   
    19    7    9 1   
    20    9   10 ar  
    21    9   13 ar  
    22   10   15 ar  
    23   10   38 1   
    24   11   22 ar  
    25   12   13 ar  
    26   12   14 ar  
    27   12   39 1   
    28   13   40 1   
    29   14   15 ar  
    30   14   18 1   
    31   15   16 1   
    32   16   17 1   
    33   16   19 1   
    34   17   18 2   
    35   17   41 1   
    36   18   42 1   
    37   19   20 2   
    38   19   21 1   
    39   21   23 1   
    40   22   25 ar  
    41   22   43 1   
    42   23   24 1   
    43   23   44 1   
    44   23   45 1   
    45   24   46 1   
    46   24   47 1   
    47   24   48 1   
    48   25   26 ar  
    49   25   29 1   
    50   26   27 ar  
    51   26   49 1   
    52   27   50 1   
    53   28   51 1   
    54   28   52 1   
    55   28   53 1   
    56   29   30 2   
@<TRIPOS>SUBSTRUCTURE
     1 1RA         1 TEMP              0 ****  ****    0 ROOT
