@<TRIPOS>MOLECULE
1RA
   54    57     1     0     0
SMALL
bcc


@<TRIPOS>ATOM
      1 C1          0.5080    0.4720    0.2910 ca        1 1RA     -0.061300
      2 N10         1.9180    0.1570    5.2030 n4        1 1RA     -0.650800
      3 C11         1.2170   -0.4930    6.3190 cx        1 1RA     -0.002500
      4 C12        -0.2680   -0.2930    6.5390 cx        1 1RA     -0.103400
      5 C13         0.7100    0.3190    7.4930 cx        1 1RA     -0.103400
      6 N14         2.6190   -0.1100   -0.7940 n         1 1RA     -0.478100
      7 C16         4.0220   -0.1550   -0.8390 c         1 1RA      0.695700
      8 O17         4.6990   -0.1300    0.2030 o         1 1RA     -0.578100
      9 C18         4.6260   -0.2080   -2.1960 ca        1 1RA     -0.158600
     10 C19         5.7530    0.5850   -2.4260 ca        1 1RA     -0.057000
     11 C2          1.8410   -0.0290    0.3600 ca        1 1RA      0.092600
     12 C20         4.6780   -1.1230   -4.4510 ca        1 1RA     -0.091000
     13 C21         4.0980   -1.0520   -3.1900 ca        1 1RA     -0.123000
     14 C22         5.7930   -0.3370   -4.7280 ca        1 1RA     -0.052800
     15 C23         6.3280    0.5250   -3.6980 ca        1 1RA     -0.000400
     16 N24         7.4470    1.1970   -4.2400 n         1 1RA     -0.238200
     17 C25         7.6110    0.7620   -5.5760 cc        1 1RA     -0.018400
     18 C26         6.6300   -0.1590   -5.9000 cd        1 1RA     -0.175200
     19 C27         8.2430    2.1260   -3.5670 c         1 1RA      0.764100
     20 O28         8.0840    2.5270   -2.4070 o         1 1RA     -0.549000
     21 O29         9.2790    2.6000   -4.3280 os        1 1RA     -0.428900
     22 C3          2.3370   -0.4580    1.6140 ca        1 1RA     -0.086000
     23 C30        10.1340    3.5600   -3.6600 c3        1 1RA      0.150400
     24 C31        11.1920    3.9290   -4.6700 c3        1 1RA     -0.106100
     25 C4          1.5460   -0.3400    2.7610 ca        1 1RA     -0.184600
     26 C5          0.2410    0.1640    2.6910 ca        1 1RA     -0.133000
     27 C6         -0.2640    0.5480    1.4550 ca        1 1RA     -0.098000
     28 C7         -0.0810    0.9110   -0.9960 c3        1 1RA     -0.077800
     29 C8          2.1300   -0.7980    4.0220 c         1 1RA      0.590700
     30 O9          2.7920   -1.7920    4.2690 o         1 1RA     -0.405100
     31 H1          1.3960    0.9800    4.8830 hn        1 1RA      0.457300
     32 H2          1.6630   -1.5000    6.5090 hx        1 1RA      0.157700
     33 H3         -0.8600   -1.1770    6.8480 hc        1 1RA      0.108950
     34 H4         -0.8450    0.3680    5.8660 hc        1 1RA      0.108950
     35 H5          0.8400   -0.1140    8.5050 hc        1 1RA      0.108950
     36 H6          0.8350    1.4180    7.5040 hc        1 1RA      0.108950
     37 H7          2.1400   -0.0150   -1.6650 hn        1 1RA      0.336500
     38 H8          6.1790    1.2260   -1.6350 ha        1 1RA      0.184000
     39 H9          4.2680   -1.7930   -5.2210 ha        1 1RA      0.152000
     40 H10         3.2300   -1.6910   -2.9660 ha        1 1RA      0.135000
     41 H11         8.4340    1.1670   -6.1740 h4        1 1RA      0.197000
     42 H12         6.5000   -0.6670   -6.8520 ha        1 1RA      0.175000
     43 H13         3.3530   -0.8870    1.6980 ha        1 1RA      0.197000
     44 H14        10.5670    3.0750   -2.7470 h1        1 1RA      0.060700
     45 H15         9.5090    4.4400   -3.3560 h1        1 1RA      0.060700
     46 H16        10.7290    4.3790   -5.5810 hc        1 1RA      0.057033
     47 H17        11.8850    4.6720   -4.2070 hc        1 1RA      0.057033
     48 H18        11.7740    3.0280   -4.9790 hc        1 1RA      0.057033
     49 H19        -0.4000    0.2220    3.5830 ha        1 1RA      0.131000
     50 H20        -1.2980    0.9260    1.3890 ha        1 1RA      0.160000
     51 H21        -1.1140    1.3130   -0.8520 hc        1 1RA      0.066033
     52 H22        -0.1440    0.0520   -1.7120 hc        1 1RA      0.066033
     53 H23         0.5410    1.7180   -1.4600 hc        1 1RA      0.066033
     54 H102        2.8410    0.4610    5.5400 hn        1 1RA      0.457300
@<TRIPOS>BOND
     1    1   11 ar  
     2    1   27 ar  
     3    1   28 1   
     4    2    3 1   
     5    2   29 1   
     6    2   31 1   
     7    2   54 1   
     8    3    4 1   
     9    3    5 1   
    10    3   32 1   
    11    4    5 1   
    12    4   33 1   
    13    4   34 1   
    14    5   35 1   
    15    5   36 1   
    16    6    7 1   
    17    6   11 1   
    18    6   37 1   
    19    7    8 2   
    20    7    9 1   
    21    9   10 ar  
    22    9   13 ar  
    23   10   15 ar  
    24   10   38 1   
    25   11   22 ar  
    26   12   13 ar  
    27   12   14 ar  
    28   12   39 1   
    29   13   40 1   
    30   14   15 ar  
    31   14   18 1   
    32   15   16 1   
    33   16   17 1   
    34   16   19 1   
    35   17   18 2   
    36   17   41 1   
    37   18   42 1   
    38   19   20 2   
    39   19   21 1   
    40   21   23 1   
    41   22   25 ar  
    42   22   43 1   
    43   23   24 1   
    44   23   44 1   
    45   23   45 1   
    46   24   46 1   
    47   24   47 1   
    48   24   48 1   
    49   25   26 ar  
    50   25   29 1   
    51   26   27 ar  
    52   26   49 1   
    53   27   50 1   
    54   28   51 1   
    55   28   52 1   
    56   28   53 1   
    57   29   30 2   
@<TRIPOS>SUBSTRUCTURE
     1 1RA         1 TEMP              0 ****  ****    0 ROOT
