@<TRIPOS>MOLECULE
1RA
   55    58     1     0     0
SMALL
bcc


@<TRIPOS>ATOM
      1 C1          0.5210    0.6890   -0.0990 ca        1 1RA      0.033700
      2 N10         1.2050    0.2140    5.0310 n4        1 1RA     -0.631800
      3 C11         1.8040   -0.2370    6.3020 cx        1 1RA     -0.013500
      4 C12         0.9700   -0.9390    7.3560 cx        1 1RA     -0.092400
      5 C13         1.4450    0.4590    7.6010 cx        1 1RA     -0.092400
      6 N14         2.3250   -0.7840   -1.0030 n4        1 1RA     -0.565200
      7 C16         3.8150   -0.3470   -1.0260 c         1 1RA      0.593700
      8 O17         4.2780   -0.0740    0.0710 o         1 1RA     -0.444100
      9 C18         4.4240   -0.3230   -2.3390 ca        1 1RA     -0.233600
     10 C19         5.5790    0.4750   -2.4600 ca        1 1RA      0.002000
     11 C2          1.5630   -0.2430    0.1200 ca        1 1RA     -0.040400
     12 C20         4.5640   -1.0410   -4.6670 ca        1 1RA     -0.075000
     13 C21         3.9350   -1.0750   -3.4370 ca        1 1RA     -0.124000
     14 C22         5.7040   -0.2440   -4.8340 ca        1 1RA     -0.002800
     15 C23         6.2040    0.5170   -3.7030 ca        1 1RA     -0.026400
     16 N24         7.3510    1.2140   -4.1370 n         1 1RA     -0.227200
     17 C25         7.5680    0.8990   -5.4900 cc        1 1RA      0.033600
     18 C26         6.5850    0.0190   -5.9410 cd        1 1RA     -0.184200
     19 C27         8.1310    2.0690   -3.3330 c         1 1RA      0.766100
     20 O28         7.8900    2.3380   -2.1500 o         1 1RA     -0.542000
     21 O29         9.2000    2.5920   -3.9900 os        1 1RA     -0.414900
     22 C3          1.8870   -0.6580    1.4240 ca        1 1RA     -0.003000
     23 C30        10.0430    3.4740   -3.1940 c3        1 1RA      0.152400
     24 C31        11.1460    3.9100   -4.1230 c3        1 1RA     -0.111100
     25 C4          1.1750   -0.1460    2.5190 ca        1 1RA     -0.191600
     26 C5          0.1330    0.7670    2.3080 ca        1 1RA     -0.048000
     27 C6         -0.1820    1.1720    1.0160 ca        1 1RA     -0.110000
     28 C7          0.1500    1.1600   -1.4530 c3        1 1RA     -0.111800
     29 C8          1.5700   -0.6520    3.8440 c         1 1RA      0.561700
     30 O9          2.1800   -1.6870    4.0680 o         1 1RA     -0.383100
     31 H1          1.5250    1.1730    4.8440 hn        1 1RA      0.461800
     32 H2          2.8540   -0.5760    6.1350 hx        1 1RA      0.159700
     33 H3         -0.1080   -1.1190    7.1860 hc        1 1RA      0.117200
     34 H4          1.4420   -1.7870    7.8930 hc        1 1RA      0.117200
     35 H5          0.7080    1.2850    7.6080 hc        1 1RA      0.117200
     36 H6          2.2700    0.6470    8.3180 hc        1 1RA      0.117200
     37 H7          2.3000   -1.8100   -0.9550 hn        1 1RA      0.467300
     38 H8          5.9790    1.0470   -1.6020 ha        1 1RA      0.197000
     39 H9          4.1850   -1.6380   -5.5120 ha        1 1RA      0.174000
     40 H10         3.0650   -1.7400   -3.3250 ha        1 1RA      0.119000
     41 H11         8.4220    1.3390   -6.0220 h4        1 1RA      0.218000
     42 H12         6.4980   -0.3960   -6.9440 ha        1 1RA      0.195000
     43 H13         2.7110   -1.3770    1.6030 ha        1 1RA      0.192000
     44 H14         9.4130    4.3310   -2.8400 h1        1 1RA      0.066700
     45 H15        10.4240    2.8930   -2.3150 h1        1 1RA      0.066700
     46 H16        11.7290    3.0310   -4.4890 hc        1 1RA      0.065700
     47 H17        11.8300    4.5950   -3.5640 hc        1 1RA      0.065700
     48 H18        10.7310    4.4530   -5.0060 hc        1 1RA      0.065700
     49 H19        -0.4670    1.1710    3.1400 ha        1 1RA      0.153000
     50 H20        -1.0080    1.8910    0.8570 ha        1 1RA      0.192000
     51 H21         1.0180    1.6570   -1.9580 hc        1 1RA      0.089033
     52 H22        -0.2070    0.3080   -2.0890 hc        1 1RA      0.089033
     53 H23        -0.6820    1.9100   -1.4070 hc        1 1RA      0.089033
     54 H102        0.1810    0.2240    5.1220 hn        1 1RA      0.461800
     55 H142        1.8940   -0.4890   -1.8890 hn        1 1RA      0.467300
@<TRIPOS>BOND
     1    1   11 ar  
     2    1   27 ar  
     3    1   28 1   
     4    2    3 1   
     5    2   29 1   
     6    2   31 1   
     7    2   54 1   
     8    3    4 1   
     9    3    5 1   
    10    3   32 1   
    11    4    5 1   
    12    4   33 1   
    13    4   34 1   
    14    5   35 1   
    15    5   36 1   
    16    6    7 1   
    17    6   11 1   
    18    6   37 1   
    19    6   55 1   
    20    7    8 2   
    21    7    9 1   
    22    9   10 ar  
    23    9   13 ar  
    24   10   15 ar  
    25   10   38 1   
    26   11   22 ar  
    27   12   13 ar  
    28   12   14 ar  
    29   12   39 1   
    30   13   40 1   
    31   14   15 ar  
    32   14   18 1   
    33   15   16 1   
    34   16   17 1   
    35   16   19 1   
    36   17   18 2   
    37   17   41 1   
    38   18   42 1   
    39   19   20 2   
    40   19   21 1   
    41   21   23 1   
    42   22   25 ar  
    43   22   43 1   
    44   23   24 1   
    45   23   44 1   
    46   23   45 1   
    47   24   46 1   
    48   24   47 1   
    49   24   48 1   
    50   25   26 ar  
    51   25   29 1   
    52   26   27 ar  
    53   26   49 1   
    54   27   50 1   
    55   28   51 1   
    56   28   52 1   
    57   28   53 1   
    58   29   30 2   
@<TRIPOS>SUBSTRUCTURE
     1 1RA         1 TEMP              0 ****  ****    0 ROOT
