@<TRIPOS>MOLECULE
1RB
   35    37     1     0     0
SMALL
bcc


@<TRIPOS>ATOM
      1 N3         -0.4490    0.7990    0.3480 nc        1 1RB     -0.625100
      2 N1          1.5590    0.5800    1.4590 na        1 1RB     -0.155300
      3 C2          0.8900    0.9290    0.2710 cd        1 1RB      0.458700
      4 C7A         0.5690    0.1710    2.3580 ca        1 1RB     -0.065200
      5 C3A        -0.7000    0.3230    1.6490 ca        1 1RB      0.068400
      6 C4         -1.8940    0.0030    2.3050 ca        1 1RB     -0.091000
      7 C5         -1.8310   -0.4530    3.6150 ca        1 1RB     -0.175000
      8 C6         -0.6070   -0.5980    4.2870 ca        1 1RB     -0.146000
      9 C7          0.6020   -0.2920    3.6780 ca        1 1RB     -0.122000
     10 P           6.9100    0.9320   -2.2520 p5        1 1RB      1.331900
     11 O1P         7.6900    1.1110   -0.9790 o         1 1RB     -0.927500
     12 O2P         7.6400    0.5030   -3.4840 o         1 1RB     -0.927500
     13 O3P         5.8110    1.9670   -2.4040 o         1 1RB     -0.927500
     14 O5'         5.9140   -0.4460   -1.8650 os        1 1RB     -0.562200
     15 C5'         5.5460   -0.5830   -0.5560 c3        1 1RB      0.224400
     16 C4'         4.1510    0.0460   -0.3050 c3        1 1RB      0.054100
     17 O4'         3.6150   -0.4760    0.9370 os        1 1RB     -0.428600
     18 C3'         4.2410    1.5790   -0.1670 c3        1 1RB      0.088100
     19 O3'         3.4000    2.2170   -1.1050 oh        1 1RB     -0.698800
     20 C2'         3.7320    1.8870    1.2540 c3        1 1RB      0.111100
     21 O2'         2.9460    3.0420    1.3840 oh        1 1RB     -0.609800
     22 C1'         2.9980    0.5670    1.6790 c3        1 1RB      0.211800
     23 H2          1.4680    1.2770   -0.6080 h5        1 1RB      0.117800
     24 H4         -2.8560    0.1120    1.7870 ha        1 1RB      0.126000
     25 H5         -2.7610   -0.7100    4.1420 ha        1 1RB      0.105000
     26 H6         -0.6080   -0.9660    5.3230 ha        1 1RB      0.108000
     27 H7          1.5540   -0.4120    4.2110 ha        1 1RB      0.131000
     28 H5'1        5.4570   -1.6800   -0.3040 h1        1 1RB      0.009700
     29 H5'2        6.2960   -0.1010    0.1330 h1        1 1RB      0.009700
     30 H4'         3.4400   -0.2380   -1.1230 h1        1 1RB      0.056700
     31 H3'         5.3180    1.9070   -0.3450 h1        1 1RB      0.171700
     32 HO23        3.9690    2.3580   -1.8990 ho        1 1RB      0.509000
     33 H2'         4.5970    2.0240    1.9590 h1        1 1RB      0.077700
     34 HO22        2.5620    3.2360    0.5160 ho        1 1RB      0.427000
     35 H1'         3.1620    0.3200    2.7660 h2        1 1RB      0.065700
@<TRIPOS>BOND
     1    1    3 2   
     2    1    5 1   
     3    2    3 1   
     4    2    4 1   
     5    2   22 1   
     6    3   23 1   
     7    4    5 ar  
     8    4    9 ar  
     9    5    6 ar  
    10    6    7 ar  
    11    6   24 1   
    12    7    8 ar  
    13    7   25 1   
    14    8    9 ar  
    15    8   26 1   
    16    9   27 1   
    17   10   11 1   
    18   10   12 1   
    19   10   13 1   
    20   10   14 1   
    21   14   15 1   
    22   15   16 1   
    23   15   28 1   
    24   15   29 1   
    25   16   17 1   
    26   16   18 1   
    27   16   30 1   
    28   17   22 1   
    29   18   19 1   
    30   18   20 1   
    31   18   31 1   
    32   19   32 1   
    33   20   21 1   
    34   20   22 1   
    35   20   33 1   
    36   21   34 1   
    37   22   35 1   
@<TRIPOS>SUBSTRUCTURE
     1 1RB         1 TEMP              0 ****  ****    0 ROOT
