@<TRIPOS>MOLECULE
1RB
   35    37     1     0     0
SMALL
bcc


@<TRIPOS>ATOM
      1 N3         -0.4470    0.7820    0.3290 nc        1 1RB     -0.625100
      2 N1          1.5560    0.5820    1.4520 na        1 1RB     -0.155300
      3 C2          0.8920    0.9160    0.2570 cd        1 1RB      0.458700
      4 C7A         0.5630    0.1790    2.3510 ca        1 1RB     -0.065200
      5 C3A        -0.7030    0.3200    1.6340 ca        1 1RB      0.068400
      6 C4         -1.8980    0.0030    2.2880 ca        1 1RB     -0.091000
      7 C5         -1.8400   -0.4390    3.6030 ca        1 1RB     -0.175000
      8 C6         -0.6190   -0.5730    4.2830 ca        1 1RB     -0.146000
      9 C7          0.5920   -0.2690    3.6760 ca        1 1RB     -0.122000
     10 P           6.9240    0.9120   -2.2380 p5        1 1RB      1.331900
     11 O1P         7.6970    1.1070   -0.9640 o         1 1RB     -0.927500
     12 O2P         7.6610    0.4720   -3.4630 o         1 1RB     -0.927500
     13 O3P         5.8220    1.9410   -2.4060 o         1 1RB     -0.927500
     14 O5'         5.9300   -0.4650   -1.8410 os        1 1RB     -0.562200
     15 C5'         5.5560   -0.5890   -0.5330 c3        1 1RB      0.224400
     16 C4'         4.1580    0.0380   -0.2950 c3        1 1RB      0.054100
     17 O4'         3.6180   -0.4730    0.9510 os        1 1RB     -0.428600
     18 C3'         4.2430    1.5730   -0.1720 c3        1 1RB      0.088100
     19 O3'         3.4040    2.1980   -1.1210 oh        1 1RB     -0.698800
     20 C2'         3.7270    1.8930    1.2430 c3        1 1RB      0.111100
     21 O2'         2.9360    3.0480    1.3570 oh        1 1RB     -0.609800
     22 C1'         2.9940    0.5760    1.6790 c3        1 1RB      0.211800
     23 H2          1.4730    1.2570   -0.6230 h5        1 1RB      0.117800
     24 H4         -2.8580    0.1030    1.7650 ha        1 1RB      0.126000
     25 H5         -2.7710   -0.6930    4.1290 ha        1 1RB      0.105000
     26 H6         -0.6240   -0.9300    5.3230 ha        1 1RB      0.108000
     27 H7          1.5420   -0.3810    4.2140 ha        1 1RB      0.131000
     28 H5'1        5.4700   -1.6840   -0.2690 h1        1 1RB      0.009700
     29 H5'2        6.3020   -0.0980    0.1550 h1        1 1RB      0.009700
     30 H4'         3.4510   -0.2570   -1.1130 h1        1 1RB      0.056700
     31 H3'         5.3200    1.9020   -0.3490 h1        1 1RB      0.171700
     32 HO23        3.9760    2.3320   -1.9140 ho        1 1RB      0.509000
     33 H2'         4.5880    2.0410    1.9500 h1        1 1RB      0.077700
     34 HO22        2.5550    3.2310    0.4850 ho        1 1RB      0.427000
     35 H1'         3.1550    0.3410    2.7690 h2        1 1RB      0.065700
@<TRIPOS>BOND
     1    1    3 2   
     2    1    5 1   
     3    2    3 1   
     4    2    4 1   
     5    2   22 1   
     6    3   23 1   
     7    4    5 ar  
     8    4    9 ar  
     9    5    6 ar  
    10    6    7 ar  
    11    6   24 1   
    12    7    8 ar  
    13    7   25 1   
    14    8    9 ar  
    15    8   26 1   
    16    9   27 1   
    17   10   11 1   
    18   10   12 1   
    19   10   13 1   
    20   10   14 1   
    21   14   15 1   
    22   15   16 1   
    23   15   28 1   
    24   15   29 1   
    25   16   17 1   
    26   16   18 1   
    27   16   30 1   
    28   17   22 1   
    29   18   19 1   
    30   18   20 1   
    31   18   31 1   
    32   19   32 1   
    33   20   21 1   
    34   20   22 1   
    35   20   33 1   
    36   21   34 1   
    37   22   35 1   
@<TRIPOS>SUBSTRUCTURE
     1 1RB         1 TEMP              0 ****  ****    0 ROOT
