@<TRIPOS>MOLECULE
1RB
   35    31     1     0     0
SMALL
bcc


@<TRIPOS>ATOM
      1 N3         -2.7920    0.5290   -1.1070 n2        1 1RB     -0.189500
      2 N1         -1.1330    0.4050    0.2890 n2        1 1RB     -0.189500
      3 C2         -1.4420    0.6970   -0.9550 c1        1 1RB      0.003000
      4 C7A        -2.2990    0.0450    0.9490 c1        1 1RB     -0.045500
      5 C3A        -3.3020    0.1260    0.0810 c1        1 1RB     -0.045500
      6 C4         -4.6410   -0.2680    0.4790 c1        1 1RB     -0.106500
      7 C5         -4.8700   -0.7220    1.7430 c1        1 1RB     -0.160500
      8 C6         -3.8420   -0.8040    2.6330 c1        1 1RB     -0.160500
      9 C7         -2.5320   -0.4180    2.2420 c1        1 1RB     -0.106500
     10 P           4.0720   -2.1090   -2.9930 p3        1 1RB      2.524000
     11 O1P         5.2350   -2.4900   -1.9790 o         1 1RB     -1.259500
     12 O2P         3.6770   -3.3480   -3.8040 os        1 1RB     -1.222000
     13 O3P         4.5810   -0.9680   -3.9790 o         1 1RB     -1.259500
     14 O5'         2.8480   -1.5980   -2.2050 os        1 1RB     -0.724000
     15 C5'         2.9900   -0.3900   -1.4300 c3        1 1RB      0.074000
     16 C4'         1.5950    0.0940   -0.9560 c3        1 1RB     -0.057000
     17 O4'         1.0080   -0.8220   -0.2840 os        1 1RB     -0.285000
     18 C3'         1.7500    1.2790    0.0280 c3        1 1RB     -0.023000
     19 O3'         1.3190    2.4480   -0.5580 oh        1 1RB     -0.426000
     20 C2'         0.8670    0.9320    1.2340 c3        1 1RB      0.000000
     21 O2'        -0.0250    2.1140    1.5850 oh        1 1RB     -0.337000
     22 C1'         0.1540   -0.0670    0.8480 c2        1 1RB      0.120000
     23 H2         -0.8320    1.0190   -1.6300 DU        1 1RB      0.247000
     24 H4         -5.3560   -0.2110   -0.1410 ha        1 1RB      0.128500
     25 H5         -5.7940   -0.9510    2.0280 ha        1 1RB      0.106500
     26 H6         -3.9980   -1.1140    3.4960 ha        1 1RB      0.106500
     27 H7         -1.7080   -0.4830    2.9560 ha        1 1RB      0.128500
     28 H5'1        3.4500    0.3770   -2.0370 h1        1 1RB      0.049000
     29 H5'2        3.5590   -0.5760   -0.6400 h1        1 1RB      0.049000
     30 H4'         1.0230    0.3670   -1.7530 h1        1 1RB      0.096000
     31 H3'         2.7570    1.3710    0.3270 h1        1 1RB      0.211000
     32 HO23        1.9390    3.0390   -0.5040 ho        1 1RB      0.308000
     33 H2'         1.4560    0.6670    2.0490 h1        1 1RB      0.117000
     34 HO22        0.3030    2.5330    2.3440 ho        1 1RB      0.226000
     35 H1'        -0.0180   -0.7050    1.6440 h4        1 1RB      0.105000
@<TRIPOS>BOND
     1    1    3 1   
     2    1    5 1   
     3    2    3 1   
     4    2    4 1   
     5    4    9 1   
     6    5    6 1   
     7    6   24 1   
     8    7    8 1   
     9    7   25 1   
    10    8   26 1   
    11    9   27 1   
    12   10   11 1   
    13   10   13 1   
    14   10   14 1   
    15   14   15 1   
    16   15   16 1   
    17   15   28 1   
    18   15   29 1   
    19   16   17 1   
    20   16   18 1   
    21   16   30 1   
    22   17   22 1   
    23   18   19 1   
    24   18   20 1   
    25   18   31 1   
    26   19   32 1   
    27   20   21 1   
    28   20   22 1   
    29   20   33 1   
    30   21   34 1   
    31   22   35 1   
@<TRIPOS>SUBSTRUCTURE
     1 1RB         1 TEMP              0 ****  ****    0 ROOT
