@<TRIPOS>MOLECULE
1RB
   35    37     1     0     0
SMALL
bcc


@<TRIPOS>ATOM
      1 N3          3.0430   -1.3260    1.6880 nc        1 1RB     -0.625100
      2 N1          2.1870    0.0920    0.0830 na        1 1RB     -0.155300
      3 C2          1.9660   -0.6310    1.2700 cd        1 1RB      0.458700
      4 C7A         3.5030   -0.1830   -0.3010 ca        1 1RB     -0.065200
      5 C3A         4.0400   -1.0730    0.7270 ca        1 1RB      0.068400
      6 C4          5.3640   -1.5150    0.6260 ca        1 1RB     -0.091000
      7 C5          6.1250   -1.0930   -0.4550 ca        1 1RB     -0.175000
      8 C6          5.6000   -0.2390   -1.4390 ca        1 1RB     -0.146000
      9 C7          4.2940    0.2260   -1.3800 ca        1 1RB     -0.122000
     10 P          -4.2820    0.9130    0.1810 p5        1 1RB      1.331900
     11 O1P        -4.0700    2.1000   -0.7180 o         1 1RB     -0.927500
     12 O2P        -5.6460    0.3040    0.2530 o         1 1RB     -0.927500
     13 O3P        -3.4840    1.0150    1.4680 o         1 1RB     -0.927500
     14 O5'        -3.3280   -0.3100   -0.6170 os        1 1RB     -0.562200
     15 C5'        -2.2200    0.1250   -1.2890 c3        1 1RB      0.224400
     16 C4'        -0.9570    0.0210   -0.3960 c3        1 1RB      0.054100
     17 O4'         0.2220    0.0720   -1.2400 os        1 1RB     -0.428600
     18 C3'        -0.8710    1.1980    0.5970 c3        1 1RB      0.088100
     19 O3'        -0.7880    0.7260    1.9260 oh        1 1RB     -0.698800
     20 C2'         0.4360    1.9310    0.2420 c3        1 1RB      0.111100
     21 O2'         1.1770    2.4190    1.3300 oh        1 1RB     -0.609800
     22 C1'         1.2150    0.8950   -0.6430 c3        1 1RB      0.211800
     23 H2          0.9770   -0.5870    1.7700 h5        1 1RB      0.117800
     24 H4          5.7840   -2.1830    1.3890 ha        1 1RB      0.126000
     25 H5          7.1660   -1.4330   -0.5480 ha        1 1RB      0.105000
     26 H6          6.2420    0.0650   -2.2780 ha        1 1RB      0.108000
     27 H7          3.8910    0.8900   -2.1560 ha        1 1RB      0.131000
     28 H5'1       -2.3420    1.1910   -1.6330 h1        1 1RB      0.009700
     29 H5'2       -2.0410   -0.5390   -2.1840 h1        1 1RB      0.009700
     30 H4'        -0.9380   -0.9590    0.1460 h1        1 1RB      0.056700
     31 H3'        -1.8010    1.8470    0.4870 h1        1 1RB      0.171700
     32 HO23       -1.7250    0.6690    2.2320 ho        1 1RB      0.509000
     33 H2'         0.2210    2.8240   -0.4070 h1        1 1RB      0.077700
     34 HO22        0.9320    1.8990    2.1100 ho        1 1RB      0.427000
     35 H1'         1.7660    1.3910   -1.4920 h2        1 1RB      0.065700
@<TRIPOS>BOND
     1    1    3 2   
     2    1    5 1   
     3    2    3 1   
     4    2    4 1   
     5    2   22 1   
     6    3   23 1   
     7    4    5 ar  
     8    4    9 ar  
     9    5    6 ar  
    10    6    7 ar  
    11    6   24 1   
    12    7    8 ar  
    13    7   25 1   
    14    8    9 ar  
    15    8   26 1   
    16    9   27 1   
    17   10   11 1   
    18   10   12 1   
    19   10   13 1   
    20   10   14 1   
    21   14   15 1   
    22   15   16 1   
    23   15   28 1   
    24   15   29 1   
    25   16   17 1   
    26   16   18 1   
    27   16   30 1   
    28   17   22 1   
    29   18   19 1   
    30   18   20 1   
    31   18   31 1   
    32   19   32 1   
    33   20   21 1   
    34   20   22 1   
    35   20   33 1   
    36   21   34 1   
    37   22   35 1   
@<TRIPOS>SUBSTRUCTURE
     1 1RB         1 TEMP              0 ****  ****    0 ROOT
