@<TRIPOS>MOLECULE
1RC
   43    45     1     0     0
SMALL
bcc


@<TRIPOS>ATOM
      1 N1          0.1130   -0.3220    0.5370 n         1 1RC     -0.481800
      2 C4          1.6040    0.8610    3.7450 ca        1 1RC     -0.074000
      3 C5          1.2480    0.4100    2.4870 ca        1 1RC     -0.152300
      4 C6          2.2240    0.1710    1.4900 ca        1 1RC     -0.092300
      5 C7          1.5500   -0.2750    0.2230 c3        1 1RC      0.126300
      6 C8         -0.1220    0.1340    1.9110 c3        1 1RC      0.102000
      7 C10        -0.5280    0.0310   -1.8550 ca        1 1RC     -0.230600
      8 C13        -0.0270    0.3770   -4.5970 ca        1 1RC      0.222100
      9 C15         0.0760    1.2140   -2.3310 ca        1 1RC      0.203100
     10 C17        -2.4150   -2.8140    3.0980 c3        1 1RC      0.108800
     11 C1          2.9670    1.0700    4.0080 ca        1 1RC     -0.118000
     12 C2          3.9290    0.8300    3.0310 ca        1 1RC     -0.091000
     13 C3          3.5660    0.3760    1.7530 ca        1 1RC     -0.099000
     14 C9         -0.8840   -0.1300   -0.4290 c         1 1RC      0.718700
     15 C11        -0.8910   -0.9640   -2.7680 ca        1 1RC     -0.006000
     16 C12        -0.6350   -0.8100   -4.1280 ca        1 1RC     -0.112600
     17 C14         0.3260    1.3930   -3.6940 ca        1 1RC     -0.243000
     18 O1          0.4040    2.1630   -1.3970 oh        1 1RC     -0.504100
     19 O2          0.2590    0.6270   -5.9050 oh        1 1RC     -0.465100
     20 Cl1        -1.0700   -2.0470   -5.2030 cl        1 1RC     -0.052400
     21 O3         -2.0710   -0.2010   -0.0420 o         1 1RC     -0.632100
     22 C16        -0.8720   -0.8510    2.8170 c         1 1RC      0.541100
     23 N2         -1.6690   -1.9380    2.1460 ny        1 1RC     -0.678800
     24 C18        -3.2050   -3.8940    2.3910 c3        1 1RC     -0.134100
     25 O4         -0.9330   -0.7870    4.0350 o         1 1RC     -0.420100
     26 H4          0.8480    1.0440    4.5240 ha        1 1RC      0.157000
     27 H7          1.8830   -1.3050   -0.0840 h1        1 1RC      0.086200
     28 H7A         1.7590    0.4460   -0.6170 h1        1 1RC      0.086200
     29 H8         -0.7750    1.0650    1.9210 h1        1 1RC      0.131700
     30 H17        -1.6640   -3.2700    3.8060 hx        1 1RC      0.109700
     31 H17A       -3.1030   -2.1520    3.7010 hx        1 1RC      0.109700
     32 H1          3.2720    1.4310    5.0030 ha        1 1RC      0.158000
     33 H2          4.9940    1.0010    3.2580 ha        1 1RC      0.157000
     34 H3          4.3330    0.1940    0.9860 ha        1 1RC      0.156000
     35 H11        -1.3930   -1.8770   -2.4050 ha        1 1RC      0.156000
     36 H14         0.7870    2.3170   -4.0760 ha        1 1RC      0.178000
     37 HO1         0.7070    2.9620   -1.8610 ho        1 1RC      0.450000
     38 HO2        -0.0440   -0.1210   -6.4490 ho        1 1RC      0.450000
     39 HN2        -2.3390   -1.4840    1.4960 hn        1 1RC      0.475300
     40 H18        -2.5410   -4.5830    1.8150 hc        1 1RC      0.077367
     41 H18A       -3.7390   -4.4960    3.1710 hc        1 1RC      0.077367
     42 H18B       -3.9700   -3.4630    1.7000 hc        1 1RC      0.077367
     43 H22        -1.0320   -2.5110    1.5840 hn        1 1RC      0.475300
@<TRIPOS>BOND
     1    1    5 1   
     2    1    6 1   
     3    1   14 1   
     4    2    3 ar  
     5    2   11 ar  
     6    2   26 1   
     7    3    4 ar  
     8    3    6 1   
     9    4    5 1   
    10    4   13 ar  
    11    5   27 1   
    12    5   28 1   
    13    6   22 1   
    14    6   29 1   
    15    7    9 ar  
    16    7   14 1   
    17    7   15 ar  
    18    8   16 ar  
    19    8   17 ar  
    20    8   19 1   
    21    9   17 ar  
    22    9   18 1   
    23   10   23 1   
    24   10   24 1   
    25   10   30 1   
    26   10   31 1   
    27   11   12 ar  
    28   11   32 1   
    29   12   13 ar  
    30   12   33 1   
    31   13   34 1   
    32   14   21 2   
    33   15   16 ar  
    34   15   35 1   
    35   16   20 1   
    36   17   36 1   
    37   18   37 1   
    38   19   38 1   
    39   22   23 1   
    40   22   25 2   
    41   23   39 1   
    42   23   43 1   
    43   24   40 1   
    44   24   41 1   
    45   24   42 1   
@<TRIPOS>SUBSTRUCTURE
     1 1RC         1 TEMP              0 ****  ****    0 ROOT
