@<TRIPOS>MOLECULE
1RC
   42    44     1     0     0
SMALL
bcc


@<TRIPOS>ATOM
      1 N1          0.9520   -0.1640   -0.1840 n         1 1RC     -0.440800
      2 C4          3.8470   -2.3220   -1.1090 ca        1 1RC     -0.072000
      3 C5          2.6710   -1.6960   -0.7380 ca        1 1RC     -0.092300
      4 C6          1.5000   -2.4470   -0.4790 ca        1 1RC     -0.110300
      5 C7          0.3950   -1.5160   -0.0610 c3        1 1RC      0.129300
      6 C8          2.3810   -0.2250   -0.5530 c3        1 1RC      0.072000
      7 C10        -1.2880    0.8880   -0.4330 ca        1 1RC     -0.261600
      8 C13        -4.0850    0.8650   -0.1510 ca        1 1RC      0.197100
      9 C15        -2.1140    1.4860   -1.4110 ca        1 1RC      0.229100
     10 C17         3.8340    2.3940    1.8670 c3        1 1RC      0.082000
     11 C1          3.8400   -3.7200   -1.2400 ca        1 1RC     -0.127000
     12 C2          2.6850   -4.4570   -0.9970 ca        1 1RC     -0.121000
     13 C3          1.4940   -3.8230   -0.6070 ca        1 1RC     -0.109000
     14 C9          0.1870    0.9190   -0.5900 c         1 1RC      0.682700
     15 C11        -1.8800    0.3270    0.7030 ca        1 1RC     -0.017000
     16 C12        -3.2630    0.3070    0.8540 ca        1 1RC     -0.121600
     17 C14        -3.5130    1.4570   -1.2810 ca        1 1RC     -0.205000
     18 O1         -1.6560    2.0930   -2.5440 oh        1 1RC     -0.492100
     19 O2         -5.4530    0.8780   -0.0970 oh        1 1RC     -0.480100
     20 CL1        -3.9430   -0.3860    2.2510 cl        1 1RC     -0.084400
     21 O3          0.7600    1.9400   -1.0440 o         1 1RC     -0.646100
     22 C16         3.3300    0.4210    0.4810 c         1 1RC      0.660100
     23 N2          2.9630    1.6390    1.0040 n         1 1RC     -0.552900
     24 C18         4.4240    3.6470    1.2370 c3        1 1RC     -0.121100
     25 O4          4.3930   -0.1470    0.7970 o         1 1RC     -0.609100
     26 H4          4.7690   -1.7430   -1.2660 ha        1 1RC      0.156000
     27 H7          0.1180   -1.7010    1.0150 h1        1 1RC      0.068200
     28 H7A        -0.5230   -1.6380   -0.6990 h1        1 1RC      0.068200
     29 H8          2.5500    0.3370   -1.5220 h1        1 1RC      0.095700
     30 H17         3.2310    2.6950    2.7730 h1        1 1RC      0.060200
     31 H17A        4.6730    1.7240    2.2140 h1        1 1RC      0.060200
     32 H1          4.7670   -4.2360   -1.5320 ha        1 1RC      0.137000
     33 H2          2.7000   -5.5510   -1.1060 ha        1 1RC      0.135000
     34 H3          0.5890   -4.4120   -0.4080 ha        1 1RC      0.138000
     35 H11        -1.2440   -0.0950    1.5020 ha        1 1RC      0.161000
     36 H14        -4.1500    1.9060   -2.0570 ha        1 1RC      0.180000
     37 HO1        -0.6970    2.2450   -2.4720 ho        1 1RC      0.459000
     38 HO2        -5.7350    0.4660    0.7360 ho        1 1RC      0.437000
     39 HN2         2.2150    2.1420    0.5790 hn        1 1RC      0.327500
     40 H18         5.0790    3.3900    0.3700 hc        1 1RC      0.042033
     41 H18A        3.6230    4.3390    0.8830 hc        1 1RC      0.042033
     42 H18B        5.0400    4.1770    2.0020 hc        1 1RC      0.042033
@<TRIPOS>BOND
     1    1    5 1   
     2    1    6 1   
     3    1   14 1   
     4    2    3 ar  
     5    2   11 ar  
     6    2   26 1   
     7    3    4 ar  
     8    3    6 1   
     9    4    5 1   
    10    4   13 ar  
    11    5   27 1   
    12    5   28 1   
    13    6   22 1   
    14    6   29 1   
    15    7    9 ar  
    16    7   14 1   
    17    7   15 ar  
    18    8   16 ar  
    19    8   17 ar  
    20    8   19 1   
    21    9   17 ar  
    22    9   18 1   
    23   10   23 1   
    24   10   24 1   
    25   10   30 1   
    26   10   31 1   
    27   11   12 ar  
    28   11   32 1   
    29   12   13 ar  
    30   12   33 1   
    31   13   34 1   
    32   14   21 2   
    33   15   16 ar  
    34   15   35 1   
    35   16   20 1   
    36   17   36 1   
    37   18   37 1   
    38   19   38 1   
    39   22   23 1   
    40   22   25 2   
    41   23   39 1   
    42   24   40 1   
    43   24   41 1   
    44   24   42 1   
@<TRIPOS>SUBSTRUCTURE
     1 1RC         1 TEMP              0 ****  ****    0 ROOT
