@<TRIPOS>MOLECULE
1RC
   42    38     1     0     0
SMALL
bcc


@<TRIPOS>ATOM
      1 N1          1.4910    0.4200   -1.1250 n         1 1RC     -0.310000
      2 C4          2.0580    0.8390    2.5550 c1        1 1RC     -0.115000
      3 C5          2.0540    0.6800    1.1580 c1        1 1RC     -0.104000
      4 C6          3.2330    0.5860    0.4790 c1        1 1RC     -0.080000
      5 C7          2.9130    0.4660   -0.9900 c2        1 1RC      0.011000
      6 C8          0.9190    0.2480    0.2030 c3        1 1RC      0.066000
      7 C10        -0.7790    0.3220   -2.3720 c1        1 1RC     -0.174000
      8 C13        -3.5520    0.1250   -2.3780 c1        1 1RC      0.148000
      9 C15        -1.4750    0.3010   -3.5770 c1        1 1RC      0.166000
     10 C17        -1.3100   -0.8570    2.2450 c3        1 1RC     -0.019000
     11 C1          3.2600    0.9000    3.2430 c1        1 1RC     -0.115000
     12 C2          4.4560    0.8050    2.5550 c1        1 1RC     -0.117000
     13 C3          4.4530    0.6480    1.1770 c2        1 1RC     -0.108000
     14 C9          0.7460    0.5250   -2.3700 c2        1 1RC      0.371000
     15 C11        -1.4680    0.2450   -1.1730 c1        1 1RC     -0.032000
     16 C12        -2.8560    0.1460   -1.1720 c1        1 1RC     -0.199000
     17 C14        -2.8610    0.2030   -3.5780 c1        1 1RC     -0.253000
     18 O1         -1.1910    0.9900   -4.7800 oh        1 1RC     -0.217000
     19 O2         -4.9420   -0.1360   -2.3830 oh        1 1RC     -0.239000
     20 CL1        -3.7300    0.2660    0.3280 cl        1 1RC     -0.010000
     21 O3          1.3450    0.6670   -3.4300 o         1 1RC     -0.336000
     22 C16         0.4030   -1.1450    0.4670 c2        1 1RC      0.300000
     23 N2         -0.9290   -1.3350    0.9350 n         1 1RC     -0.394000
     24 C18        -2.4290   -1.7210    2.7920 c3        1 1RC     -0.228000
     25 O4          1.1440   -2.0980    0.3460 o         1 1RC     -0.340000
     26 H4          1.2130    0.9070    3.0420 ha        1 1RC      0.136000
     27 H7          3.2560    1.2570   -1.4610 h4        1 1RC      0.120000
     28 H7A         3.2980   -0.3670   -1.3370 h4        1 1RC      0.120000
     29 H8          0.1140    0.7850    0.3260 h1        1 1RC      0.110000
     30 H17        -0.5350   -0.9030    2.8490 h1        1 1RC      0.073500
     31 H17A       -1.6170    0.0740    2.1770 h1        1 1RC      0.073500
     32 H1          3.2630    1.0110    4.2120 ha        1 1RC      0.136000
     33 H2          5.2980    0.8470    3.0380 ha        1 1RC      0.136000
     34 H3          5.2980    0.5800    0.6910 ha        1 1RC      0.142000
     35 H11        -0.9840    0.2600   -0.3370 ha        1 1RC      0.157000
     36 H14        -3.3510    0.1880   -4.4290 ha        1 1RC      0.164000
     37 HO1        -1.5800    1.7980   -4.7600 ho        1 1RC      0.230000
     38 HO2        -5.0810   -1.0190   -2.3110 ho        1 1RC      0.235000
     39 HN2        -1.5340   -1.7860    0.4210 hn        1 1RC      0.233000
     40 H18        -2.3260   -1.8130    3.7610 hc        1 1RC      0.086333
     41 H18A       -3.2940   -1.3020    2.5920 hc        1 1RC      0.086333
     42 H18B       -2.3910   -2.6060    2.3740 hc        1 1RC      0.086333
@<TRIPOS>BOND
     1    1    5 1   
     2    1    6 1   
     3    1   14 1   
     4    2   11 1   
     5    2   26 1   
     6    3    4 1   
     7    3    6 1   
     8    4   13 1   
     9    5   27 1   
    10    5   28 1   
    11    6   22 1   
    12    6   29 1   
    13    7   14 1   
    14    7   15 1   
    15    8   16 1   
    16    8   19 1   
    17    9   17 1   
    18    9   18 1   
    19   10   23 1   
    20   10   24 1   
    21   10   30 1   
    22   10   31 1   
    23   11   32 1   
    24   12   13 1   
    25   12   33 1   
    26   13   34 1   
    27   14   21 1   
    28   15   35 1   
    29   16   20 1   
    30   17   36 1   
    31   18   37 1   
    32   19   38 1   
    33   22   23 1   
    34   22   25 1   
    35   23   39 1   
    36   24   40 1   
    37   24   41 1   
    38   24   42 1   
@<TRIPOS>SUBSTRUCTURE
     1 1RC         1 TEMP              0 ****  ****    0 ROOT
