@<TRIPOS>MOLECULE
1RC
   43    45     1     0     0
SMALL
bcc


@<TRIPOS>ATOM
      1 N1          0.1130   -0.3220    0.5370 n         1 1RC     -0.481800
      2 C4          1.6110    0.8440    3.7490 ca        1 1RC     -0.074000
      3 C5          1.2520    0.4010    2.4890 ca        1 1RC     -0.152300
      4 C6          2.2250    0.1770    1.4850 ca        1 1RC     -0.092300
      5 C7          1.5480   -0.2630    0.2170 c3        1 1RC      0.126300
      6 C8         -0.1190    0.1210    1.9170 c3        1 1RC      0.102000
      7 C10        -0.5420    0.0460   -1.8480 ca        1 1RC     -0.230600
      8 C13        -0.0560    0.4180   -4.5890 ca        1 1RC      0.222100
      9 C15         0.0520    1.2370   -2.3170 ca        1 1RC      0.203100
     10 C17        -2.3880   -2.8520    3.0890 c3        1 1RC      0.108800
     11 C1          2.9740    1.0610    4.0060 ca        1 1RC     -0.118000
     12 C2          3.9330    0.8360    3.0220 ca        1 1RC     -0.091000
     13 C3          3.5670    0.3890    1.7420 ca        1 1RC     -0.099000
     14 C9         -0.8900   -0.1280   -0.4210 c         1 1RC      0.718700
     15 C11        -0.9030   -0.9440   -2.7670 ca        1 1RC     -0.006000
     16 C12        -0.6540   -0.7770   -4.1270 ca        1 1RC     -0.112600
     17 C14         0.2940    1.4300   -3.6800 ca        1 1RC     -0.243000
     18 O1          0.3780    2.1810   -1.3770 oh        1 1RC     -0.504100
     19 O2          0.2220    0.6810   -5.8970 oh        1 1RC     -0.465100
     20 CL1        -1.0860   -2.0080   -5.2110 cl        1 1RC     -0.052400
     21 O3         -2.0750   -0.2100   -0.0300 o         1 1RC     -0.632100
     22 C16        -0.8570   -0.8770    2.8180 c         1 1RC      0.541100
     23 N2         -1.6520   -1.9620    2.1420 n4        1 1RC     -0.678800
     24 C18        -3.1760   -3.9290    2.3770 c3        1 1RC     -0.134100
     25 O4         -0.9120   -0.8250    4.0360 o         1 1RC     -0.420100
     26 H4          0.8580    1.0150    4.5320 ha        1 1RC      0.157000
     27 H7          1.7480    0.4660   -0.6170 h1        1 1RC      0.086200
     28 H7A         1.8860   -1.2880   -0.1000 h1        1 1RC      0.086200
     29 H8         -0.7770    1.0460    1.9380 h1        1 1RC      0.131700
     30 H17        -1.6310   -3.3110    3.7880 hx        1 1RC      0.109700
     31 H17A       -3.0750   -2.1990    3.7020 hx        1 1RC      0.109700
     32 H1          3.2820    1.4150    5.0030 ha        1 1RC      0.158000
     33 H2          4.9980    1.0120    3.2460 ha        1 1RC      0.157000
     34 H3          4.3320    0.2190    0.9710 ha        1 1RC      0.156000
     35 H11        -1.3960   -1.8630   -2.4100 ha        1 1RC      0.156000
     36 H14         0.7480    2.3590   -4.0560 ha        1 1RC      0.178000
     37 HO1         0.6730    2.9850   -1.8350 ho        1 1RC      0.450000
     38 HO2        -0.0790   -0.0650   -6.4450 ho        1 1RC      0.450000
     39 HN2        -1.0140   -2.5270    1.5710 hn        1 1RC      0.475300
     40 H18        -3.9480   -3.4960    1.6940 hc        1 1RC      0.077367
     41 H18A       -2.5120   -4.6090    1.7900 hc        1 1RC      0.077367
     42 H18B       -3.7030   -4.5410    3.1540 hc        1 1RC      0.077367
     43 H22        -2.3280   -1.5060    1.4990 hn        1 1RC      0.475300
@<TRIPOS>BOND
     1    1    5 1   
     2    1    6 1   
     3    1   14 1   
     4    2    3 ar  
     5    2   11 ar  
     6    2   26 1   
     7    3    4 ar  
     8    3    6 1   
     9    4    5 1   
    10    4   13 ar  
    11    5   27 1   
    12    5   28 1   
    13    6   22 1   
    14    6   29 1   
    15    7    9 ar  
    16    7   14 1   
    17    7   15 ar  
    18    8   16 ar  
    19    8   17 ar  
    20    8   19 1   
    21    9   17 ar  
    22    9   18 1   
    23   10   23 1   
    24   10   24 1   
    25   10   30 1   
    26   10   31 1   
    27   11   12 ar  
    28   11   32 1   
    29   12   13 ar  
    30   12   33 1   
    31   13   34 1   
    32   14   21 2   
    33   15   16 ar  
    34   15   35 1   
    35   16   20 1   
    36   17   36 1   
    37   18   37 1   
    38   19   38 1   
    39   22   23 1   
    40   22   25 2   
    41   23   39 1   
    42   23   43 1   
    43   24   40 1   
    44   24   41 1   
    45   24   42 1   
@<TRIPOS>SUBSTRUCTURE
     1 1RC         1 TEMP              0 ****  ****    0 ROOT
