@<TRIPOS>MOLECULE
1RC
   43    45     1     0     0
SMALL
bcc


@<TRIPOS>ATOM
      1 N1          0.1140   -0.3250    0.5360 n         1 1RC     -0.481800
      2 C4          1.6540    0.8290    3.7330 ca        1 1RC     -0.074000
      3 C5          1.2790    0.3860    2.4770 ca        1 1RC     -0.152300
      4 C6          2.2420    0.1330    1.4700 ca        1 1RC     -0.092300
      5 C7          1.5480   -0.3000    0.2090 c3        1 1RC      0.126300
      6 C8         -0.1010    0.1330    1.9130 c3        1 1RC      0.102000
      7 C10        -0.5440    0.0420   -1.8480 ca        1 1RC     -0.230600
      8 C13        -0.0640    0.3850   -4.5940 ca        1 1RC      0.222100
      9 C15         0.0730    1.2160   -2.3280 ca        1 1RC      0.203100
     10 C17        -2.4290   -2.7810    3.1180 c3        1 1RC      0.108800
     11 C1          3.0220    1.0160    3.9830 ca        1 1RC     -0.118000
     12 C2          3.9710    0.7620    2.9960 ca        1 1RC     -0.091000
     13 C3          3.5890    0.3160    1.7210 ca        1 1RC     -0.099000
     14 C9         -0.8890   -0.1150   -0.4190 c         1 1RC      0.718700
     15 C11        -0.9320   -0.9450   -2.7590 ca        1 1RC     -0.006000
     16 C12        -0.6860   -0.7930   -4.1220 ca        1 1RC     -0.112600
     17 C14         0.3140    1.3950   -3.6930 ca        1 1RC     -0.243000
     18 O1          0.4260    2.1590   -1.3960 oh        1 1RC     -0.504100
     19 O2          0.2140    0.6330   -5.9050 oh        1 1RC     -0.465100
     20 CL1        -1.1510   -2.0210   -5.1950 cl        1 1RC     -0.052400
     21 O3         -2.0740   -0.1680   -0.0210 o         1 1RC     -0.632100
     22 C16        -0.8580   -0.8420    2.8250 c         1 1RC      0.541100
     23 N2         -1.6790   -1.9150    2.1600 n4        1 1RC     -0.678800
     24 C18        -3.2420   -3.8480    2.4170 c3        1 1RC     -0.134100
     25 O4         -0.9070   -0.7800    4.0430 o         1 1RC     -0.420100
     26 H4          0.9080    1.0220    4.5190 ha        1 1RC      0.157000
     27 H7          1.8620   -1.3340   -0.1030 h1        1 1RC      0.086200
     28 H7A         1.7610    0.4190   -0.6310 h1        1 1RC      0.086200
     29 H8         -0.7390    1.0730    1.9310 h1        1 1RC      0.131700
     30 H17        -1.6790   -3.2500    3.8180 hx        1 1RC      0.109700
     31 H17A       -3.1010   -2.1100    3.7280 hx        1 1RC      0.109700
     32 H1          3.3430    1.3690    4.9760 ha        1 1RC      0.158000
     33 H2          5.0410    0.9160    3.2130 ha        1 1RC      0.157000
     34 H3          4.3460    0.1230    0.9460 ha        1 1RC      0.156000
     35 H11        -1.4440   -1.8500   -2.3930 ha        1 1RC      0.156000
     36 H14         0.7860    2.3110   -4.0780 ha        1 1RC      0.178000
     37 HO1         0.7370    2.9530   -1.8610 ho        1 1RC      0.450000
     38 HO2        -0.1070   -0.1090   -6.4470 ho        1 1RC      0.450000
     39 HN2        -2.3470   -1.4490    1.5160 hn        1 1RC      0.475300
     40 H18        -2.5940   -4.5460    1.8330 hc        1 1RC      0.077367
     41 H18A       -3.7790   -4.4420    3.2000 hc        1 1RC      0.077367
     42 H18B       -4.0070   -3.4040    1.7330 hc        1 1RC      0.077367
     43 H22        -1.0550   -2.4980    1.5910 hn        1 1RC      0.475300
@<TRIPOS>BOND
     1    1    5 1   
     2    1    6 1   
     3    1   14 1   
     4    2    3 ar  
     5    2   11 ar  
     6    2   26 1   
     7    3    4 ar  
     8    3    6 1   
     9    4    5 1   
    10    4   13 ar  
    11    5   27 1   
    12    5   28 1   
    13    6   22 1   
    14    6   29 1   
    15    7    9 ar  
    16    7   14 1   
    17    7   15 ar  
    18    8   16 ar  
    19    8   17 ar  
    20    8   19 1   
    21    9   17 ar  
    22    9   18 1   
    23   10   23 1   
    24   10   24 1   
    25   10   30 1   
    26   10   31 1   
    27   11   12 ar  
    28   11   32 1   
    29   12   13 ar  
    30   12   33 1   
    31   13   34 1   
    32   14   21 2   
    33   15   16 ar  
    34   15   35 1   
    35   16   20 1   
    36   17   36 1   
    37   18   37 1   
    38   19   38 1   
    39   22   23 1   
    40   22   25 2   
    41   23   39 1   
    42   23   43 1   
    43   24   40 1   
    44   24   41 1   
    45   24   42 1   
@<TRIPOS>SUBSTRUCTURE
     1 1RC         1 TEMP              0 ****  ****    0 ROOT
