@<TRIPOS>MOLECULE
1RD
   75    76     1     0     0
SMALL
bcc


@<TRIPOS>ATOM
      1 O23         0.7940   -1.0510    0.8990 o         1 1RD     -0.422000
      2 C22         1.8550   -1.6480    0.8160 c         1 1RD      0.639100
      3 O24         2.4470   -2.4710    1.6720 os        1 1RD     -0.408900
      4 C25         1.8620   -2.5660    3.0510 c3        1 1RD      0.276700
      5 C26         2.2460   -1.4190    3.8520 cc        1 1RD     -0.381700
      6 S30         3.5180   -1.3510    4.9500 ss        1 1RD      0.070700
      7 C29         3.0930    0.2190    5.3950 cc        1 1RD      0.396300
      8 N28         2.0230    0.7300    4.7650 nd        1 1RD     -0.613000
      9 C27         1.5270   -0.2070    3.8960 cd        1 1RD      0.391200
     10 N21         2.7050   -1.5200   -0.4490 ny        1 1RD     -0.658800
     11 C20         1.8490   -1.3480   -1.6560 c3        1 1RD      0.104800
     12 C19         2.6240   -0.9360   -2.9070 c3        1 1RD     -0.103400
     13 C18         1.6460   -0.7470   -4.0570 c3        1 1RD     -0.105400
     14 C17         2.4060   -0.3100   -5.3080 c3        1 1RD      0.103800
     15 N16         1.5100   -0.1140   -6.4980 ny        1 1RD     -0.675800
     16 C14         2.2540    0.3810   -7.7200 c         1 1RD      0.513100
     17 O15         3.2790    1.0120   -7.5310 o         1 1RD     -0.372100
     18 C13         1.6490    0.0240   -9.1010 c3        1 1RD      0.057700
     19 C31         2.2970   -1.3100   -9.5780 c3        1 1RD     -0.081700
     20 C33         2.1090   -2.4000   -8.5450 c3        1 1RD     -0.120100
     21 C32         1.6800   -1.7400  -10.8940 c3        1 1RD     -0.120100
     22 N12         1.9020    1.1130  -10.0330 ns        1 1RD     -0.531900
     23 C10         0.8630    1.8810  -10.5100 c         1 1RD      0.653100
     24 O11        -0.2740    1.9290  -10.0340 o         1 1RD     -0.469100
     25 N08         1.1370    2.8090  -11.7160 nx        1 1RD     -0.576200
     26 C09         1.8240    4.0370  -11.2350 c3        1 1RD      0.073100
     27 C07        -0.1720    3.1230  -12.4020 c3        1 1RD      0.189100
     28 C06        -0.0140    3.7780  -13.7340 cc        1 1RD     -0.139600
     29 N05        -0.4740    5.0770  -13.9940 na        1 1RD     -0.098100
     30 C34         0.4510    3.1730  -14.8980 cd        1 1RD     -0.214100
     31 S35         0.3080    4.1520  -16.2270 ss        1 1RD      0.477200
     32 C04        -0.3670    5.3910  -15.3180 cc        1 1RD      0.006300
     33 C02        -0.8190    6.6840  -15.9240 c3        1 1RD     -0.038400
     34 C03        -0.3740    7.8850  -15.1140 c3        1 1RD     -0.120600
     35 C01        -0.3130    6.7700  -17.3530 c3        1 1RD     -0.120600
     36 H1          0.7510   -2.6640    2.9260 h1        1 1RD      0.114200
     37 H2          2.3390   -3.5350    3.3710 h1        1 1RD      0.114200
     38 H3          3.6230    0.8080    6.1570 h5        1 1RD      0.091100
     39 H4          0.6230    0.0210    3.3140 h4        1 1RD      0.055100
     40 H5          3.3170   -0.7040   -0.3240 hn        1 1RD      0.472300
     41 H6          1.3140   -2.3270   -1.8330 hx        1 1RD      0.125700
     42 H7          1.0700   -0.5630   -1.4090 hx        1 1RD      0.125700
     43 H8          3.1800    0.0220   -2.7230 hc        1 1RD      0.082700
     44 H9          3.3780   -1.7240   -3.1750 hc        1 1RD      0.082700
     45 H10         0.8830    0.0280   -3.7740 hc        1 1RD      0.084200
     46 H11         1.1020   -1.7120   -4.2460 hc        1 1RD      0.084200
     47 H12         2.9420    0.6670   -5.1170 hx        1 1RD      0.125700
     48 H13         3.1750   -1.0870   -5.5900 hx        1 1RD      0.125700
     49 H14         1.0470   -1.0060   -6.7230 hn        1 1RD      0.471800
     50 H15         0.5290   -0.1230   -9.0020 h1        1 1RD      0.127700
     51 H16         3.4040   -1.1430   -9.7260 hc        1 1RD      0.097700
     52 H17         1.0360   -2.5150   -8.2570 hc        1 1RD      0.067700
     53 H18         2.4400   -3.3810   -8.9840 hc        1 1RD      0.067700
     54 H19         2.7420   -2.2220   -7.6430 hc        1 1RD      0.067700
     55 H20         1.9000   -1.0080  -11.7070 hc        1 1RD      0.067700
     56 H21         2.1140   -2.7270  -11.2040 hc        1 1RD      0.067700
     57 H22         0.5740   -1.8660  -10.8000 hc        1 1RD      0.067700
     58 H23         2.8100    1.1360  -10.4520 hn        1 1RD      0.368500
     59 H24         2.8280    3.7680  -10.8060 hx        1 1RD      0.122700
     60 H25         1.9730    4.7420  -12.1000 hx        1 1RD      0.122700
     61 H26         1.1980    4.5390  -10.4470 hx        1 1RD      0.122700
     62 H27        -0.7190    2.1400  -12.5540 hx        1 1RD      0.148700
     63 H28        -0.7880    3.7490  -11.6870 hx        1 1RD      0.148700
     64 H29         0.8330    2.1460  -14.9520 h4        1 1RD      0.228000
     65 H30        -1.9550    6.6640  -15.9420 hc        1 1RD      0.131700
     66 H31        -0.8420    7.8900  -14.1010 hc        1 1RD      0.078033
     67 H32         0.7370    7.9180  -15.0120 hc        1 1RD      0.078033
     68 H33        -0.6980    8.8190  -15.6450 hc        1 1RD      0.078033
     69 H34        -0.8200    7.6270  -17.8720 hc        1 1RD      0.078033
     70 H35         0.7880    6.9600  -17.3850 hc        1 1RD      0.078033
     71 H36        -0.5530    5.8400  -17.9280 hc        1 1RD      0.078033
     72 H212        3.2970   -2.3570   -0.5340 hn        1 1RD      0.472300
     73 H162        0.7830    0.5750   -6.2580 hn        1 1RD      0.471800
     74 H122       -0.8850    5.6840  -13.3100 hn        1 1RD      0.362700
     75 H081        1.7460    2.3290  -12.3930 hn        1 1RD      0.461800
@<TRIPOS>BOND
     1    1    2 2   
     2    2    3 1   
     3    2   10 1   
     4    3    4 1   
     5    4    5 1   
     6    4   36 1   
     7    4   37 1   
     8    5    6 1   
     9    5    9 2   
    10    6    7 1   
    11    7    8 2   
    12    7   38 1   
    13    8    9 1   
    14    9   39 1   
    15   10   11 1   
    16   10   40 1   
    17   10   72 1   
    18   11   12 1   
    19   11   41 1   
    20   11   42 1   
    21   12   13 1   
    22   12   43 1   
    23   12   44 1   
    24   13   14 1   
    25   13   45 1   
    26   13   46 1   
    27   14   15 1   
    28   14   47 1   
    29   14   48 1   
    30   15   16 1   
    31   15   49 1   
    32   15   73 1   
    33   16   17 2   
    34   16   18 1   
    35   18   19 1   
    36   18   22 1   
    37   18   50 1   
    38   19   20 1   
    39   19   21 1   
    40   19   51 1   
    41   20   52 1   
    42   20   53 1   
    43   20   54 1   
    44   21   55 1   
    45   21   56 1   
    46   21   57 1   
    47   22   23 1   
    48   22   58 1   
    49   23   24 2   
    50   23   25 1   
    51   25   26 1   
    52   25   27 1   
    53   25   75 1   
    54   26   59 1   
    55   26   60 1   
    56   26   61 1   
    57   27   28 1   
    58   27   62 1   
    59   27   63 1   
    60   28   29 1   
    61   28   30 2   
    62   29   32 2   
    63   29   74 1   
    64   30   31 1   
    65   30   64 1   
    66   31   32 1   
    67   32   33 1   
    68   33   34 1   
    69   33   35 1   
    70   33   65 1   
    71   34   66 1   
    72   34   67 1   
    73   34   68 1   
    74   35   69 1   
    75   35   70 1   
    76   35   71 1   
@<TRIPOS>SUBSTRUCTURE
     1 1RD         1 TEMP              0 ****  ****    0 ROOT
