@<TRIPOS>MOLECULE
1RD
   75    76     1     0     0
SMALL
bcc


@<TRIPOS>ATOM
      1 O23         0.9110   -0.5630    0.9210 o         1 1RD     -0.422000
      2 C22         1.7980   -1.3930    0.8120 c         1 1RD      0.639100
      3 O24         2.2260   -2.3090    1.6720 os        1 1RD     -0.408900
      4 C25         1.7070   -2.2290    3.0780 c3        1 1RD      0.276700
      5 C26         2.3870   -1.1830    3.8180 cc        1 1RD     -0.381700
      6 S30         3.6950   -1.3850    4.8550 ss        1 1RD      0.070700
      7 C29         3.6690    0.2510    5.2590 cc        1 1RD      0.396300
      8 N28         2.7160    0.9810    4.6580 nd        1 1RD     -0.613000
      9 C27         1.9720    0.1640    3.8480 cd        1 1RD      0.391200
     10 N21         2.5870   -1.5020   -0.4930 n4        1 1RD     -0.658800
     11 C20         1.7380   -1.1500   -1.6640 c3        1 1RD      0.105800
     12 C19         2.5230   -0.9700   -2.9630 c3        1 1RD     -0.103400
     13 C18         1.5640   -0.5670   -4.0730 c3        1 1RD     -0.105400
     14 C17         2.3420   -0.3630   -5.3710 c3        1 1RD      0.103800
     15 N16         1.4620    0.0320   -6.5240 n4        1 1RD     -0.674800
     16 C14         2.2410    0.2960   -7.7950 c         1 1RD      0.512100
     17 O15         3.4060    0.6340   -7.6760 o         1 1RD     -0.373100
     18 C13         1.4890    0.0960   -9.1350 c3        1 1RD      0.057700
     19 C31         1.7400   -1.3660   -9.6110 c3        1 1RD     -0.080700
     20 C33         1.3420   -2.3570   -8.5400 c3        1 1RD     -0.120100
     21 C32         0.9530   -1.6360  -10.8780 c3        1 1RD     -0.120100
     22 N12         1.9700    1.0710  -10.1040 n         1 1RD     -0.522900
     23 C10         1.1470    2.0710  -10.5570 c         1 1RD      0.652100
     24 O11         0.0470    2.3750  -10.0810 o         1 1RD     -0.485100
     25 N08         1.5850    2.9680  -11.7340 n4        1 1RD     -0.577200
     26 C09         3.0250    2.8900  -12.0750 c3        1 1RD      0.063100
     27 C07         0.7030    2.6750  -12.9270 c3        1 1RD      0.187100
     28 C06         0.6390    3.7810  -13.9270 cc        1 1RD     -0.151600
     29 N05        -0.4120    4.7090  -13.9710 na        1 1RD     -0.100100
     30 C34         1.4990    3.9530  -15.0090 cd        1 1RD     -0.198100
     31 S35         1.0200    5.1740  -16.0190 ss        1 1RD      0.480200
     32 C04        -0.3240    5.5150  -15.0690 cc        1 1RD      0.006300
     33 C02        -1.3150    6.5780  -15.4280 c3        1 1RD     -0.039400
     34 C03        -1.6830    7.4440  -14.2390 c3        1 1RD     -0.120100
     35 C01        -0.7590    7.4170  -16.5640 c3        1 1RD     -0.120100
     36 H1          0.5990   -2.0680    3.0060 h1        1 1RD      0.114200
     37 H2          1.9620   -3.2740    3.4120 h1        1 1RD      0.114200
     38 H3          4.3610    0.7200    5.9750 h5        1 1RD      0.091100
     39 H4          1.1170    0.5810    3.2990 h4        1 1RD      0.055100
     40 H5          2.9530   -2.4590   -0.5780 hn        1 1RD      0.472300
     41 H6          1.1900   -0.1910   -1.4090 hx        1 1RD      0.125700
     42 H7          0.9700   -1.9690   -1.7830 hx        1 1RD      0.125700
     43 H8          3.0430   -1.9260   -3.2390 hc        1 1RD      0.082700
     44 H9          3.3090   -0.1760   -2.8370 hc        1 1RD      0.082700
     45 H10         0.7870   -1.3680   -4.2020 hc        1 1RD      0.084200
     46 H11         1.0350    0.3810   -3.7820 hc        1 1RD      0.084200
     47 H12         2.8730   -1.3160   -5.6630 hx        1 1RD      0.125700
     48 H13         3.1170    0.4500   -5.2380 hx        1 1RD      0.125700
     49 H14         0.7770   -0.7180   -6.6980 hn        1 1RD      0.471800
     50 H15         0.3770    0.2490   -8.9790 h1        1 1RD      0.129700
     51 H16         2.8410   -1.4940   -9.8260 hc        1 1RD      0.097700
     52 H17         0.2940   -2.1890   -8.1900 hc        1 1RD      0.067867
     53 H18         2.0520   -2.3360   -7.6780 hc        1 1RD      0.067867
     54 H19         1.3840   -3.3960   -8.9680 hc        1 1RD      0.067867
     55 H20         1.1040   -2.7030  -11.1890 hc        1 1RD      0.067867
     56 H21         1.2970   -0.9900  -11.7190 hc        1 1RD      0.067867
     57 H22        -0.1410   -1.4790  -10.7150 hc        1 1RD      0.067867
     58 H23         2.8480    0.8700  -10.5390 hn        1 1RD      0.370500
     59 H24         3.2520    3.6590  -12.8680 hx        1 1RD      0.122367
     60 H25         3.6480    3.1210  -11.1660 hx        1 1RD      0.122367
     61 H26         3.2850    1.8760  -12.4810 hx        1 1RD      0.122367
     62 H27         1.1130    1.7540  -13.4420 hx        1 1RD      0.142700
     63 H28        -0.3340    2.4350  -12.5320 hx        1 1RD      0.142700
     64 H29         2.3820    3.3270  -15.1990 h4        1 1RD      0.235000
     65 H30        -2.2530    6.0500  -15.7910 hc        1 1RD      0.130700
     66 H31        -2.2010    6.8520  -13.4480 hc        1 1RD      0.078033
     67 H32        -2.3870    8.2480  -14.5820 hc        1 1RD      0.078033
     68 H33        -0.7830    7.9400  -13.8040 hc        1 1RD      0.078033
     69 H34         0.0670    8.0820  -16.2130 hc        1 1RD      0.078033
     70 H35        -0.3950    6.7740  -17.4060 hc        1 1RD      0.078033
     71 H36        -1.5740    8.0740  -16.9710 hc        1 1RD      0.078033
     72 H212        3.3840   -0.8580   -0.4210 hn        1 1RD      0.472300
     73 H162        0.9470    0.8870   -6.2740 hn        1 1RD      0.471800
     74 H122       -1.1670    4.7500  -13.3120 hn        1 1RD      0.360700
     75 H081        1.3810    3.9310  -11.4140 hn        1 1RD      0.480800
@<TRIPOS>BOND
     1    1    2 2   
     2    2    3 1   
     3    2   10 1   
     4    3    4 1   
     5    4    5 1   
     6    4   36 1   
     7    4   37 1   
     8    5    6 1   
     9    5    9 2   
    10    6    7 1   
    11    7    8 2   
    12    7   38 1   
    13    8    9 1   
    14    9   39 1   
    15   10   11 1   
    16   10   40 1   
    17   10   72 1   
    18   11   12 1   
    19   11   41 1   
    20   11   42 1   
    21   12   13 1   
    22   12   43 1   
    23   12   44 1   
    24   13   14 1   
    25   13   45 1   
    26   13   46 1   
    27   14   15 1   
    28   14   47 1   
    29   14   48 1   
    30   15   16 1   
    31   15   49 1   
    32   15   73 1   
    33   16   17 2   
    34   16   18 1   
    35   18   19 1   
    36   18   22 1   
    37   18   50 1   
    38   19   20 1   
    39   19   21 1   
    40   19   51 1   
    41   20   52 1   
    42   20   53 1   
    43   20   54 1   
    44   21   55 1   
    45   21   56 1   
    46   21   57 1   
    47   22   23 1   
    48   22   58 1   
    49   23   24 2   
    50   23   25 1   
    51   25   26 1   
    52   25   27 1   
    53   25   75 1   
    54   26   59 1   
    55   26   60 1   
    56   26   61 1   
    57   27   28 1   
    58   27   62 1   
    59   27   63 1   
    60   28   29 1   
    61   28   30 2   
    62   29   32 2   
    63   29   74 1   
    64   30   31 1   
    65   30   64 1   
    66   31   32 1   
    67   32   33 1   
    68   33   34 1   
    69   33   35 1   
    70   33   65 1   
    71   34   66 1   
    72   34   67 1   
    73   34   68 1   
    74   35   69 1   
    75   35   70 1   
    76   35   71 1   
@<TRIPOS>SUBSTRUCTURE
     1 1RD         1 TEMP              0 ****  ****    0 ROOT
