@<TRIPOS>MOLECULE
1RD
   71    72     1     0     0
SMALL
bcc


@<TRIPOS>ATOM
      1 O23         4.7310    1.2990    2.5810 o         1 1RD     -0.583000
      2 C22         5.2520    0.6510    1.6570 c         1 1RD      0.723100
      3 O24         6.3030    1.2200    0.9630 os        1 1RD     -0.448900
      4 C25         6.7460    2.4950    1.4760 c3        1 1RD      0.232700
      5 C26         7.8250    2.9690    0.5920 cc        1 1RD     -0.216700
      6 S30         9.3780    2.3230    0.4910 ss        1 1RD     -0.048300
      7 C29         9.8170    3.4920   -0.6620 cc        1 1RD      0.360300
      8 N28         8.8570    4.3560   -0.9920 nd        1 1RD     -0.629000
      9 C27         7.7130    4.0560   -0.2760 cd        1 1RD      0.347200
     10 N21         4.9760   -0.6420    1.2450 n         1 1RD     -0.510900
     11 C20         3.6970   -1.2250    1.5660 c3        1 1RD      0.077000
     12 C19         2.6070   -1.0290    0.5110 c3        1 1RD     -0.113400
     13 C18         1.3450   -1.7450    0.9370 c3        1 1RD     -0.099400
     14 C17         0.2520   -1.5360   -0.1140 c3        1 1RD      0.090000
     15 N16        -0.9980   -2.1590    0.2130 n         1 1RD     -0.564900
     16 C14        -1.5620   -3.1510   -0.5530 c         1 1RD      0.646100
     17 O15        -1.0400   -3.5580   -1.6100 o         1 1RD     -0.623100
     18 C13        -2.9110   -3.7260   -0.0320 c3        1 1RD      0.050700
     19 C31        -3.2060   -5.0590   -0.7540 c3        1 1RD     -0.072700
     20 C33        -2.1990   -6.1000   -0.3030 c3        1 1RD     -0.094100
     21 C32        -4.6110   -5.5500   -0.4790 c3        1 1RD     -0.094100
     22 N12        -3.9510   -2.7390   -0.1890 n         1 1RD     -0.567900
     23 C10        -4.2580   -1.8710    0.8600 c         1 1RD      0.765100
     24 O11        -3.4910   -1.8120    1.8580 o         1 1RD     -0.669100
     25 N08        -5.4470   -1.1010    0.8260 n         1 1RD     -0.438800
     26 C09        -6.2180   -1.0240   -0.3860 c3        1 1RD      0.065300
     27 C07        -5.5190    0.0230    1.7330 c3        1 1RD      0.065700
     28 C06        -4.9190    1.3110    1.2430 cc        1 1RD      0.298600
     29 N05        -5.3210    1.8980    0.0460 nc        1 1RD     -0.640000
     30 C34        -3.9510    2.0230    1.9430 cd        1 1RD     -0.237400
     31 S35        -3.5430    3.4190    1.1290 ss        1 1RD     -0.086300
     32 C04        -4.6580    3.0410   -0.1370 cd        1 1RD      0.402700
     33 C02        -4.8350    3.9430   -1.3140 c3        1 1RD     -0.099000
     34 C03        -6.2130    4.5780   -1.2970 c3        1 1RD     -0.097100
     35 C01        -3.7560    5.0070   -1.3450 c3        1 1RD     -0.097100
     36 H1          5.8740    3.2040    1.4760 h1        1 1RD      0.068700
     37 H2          7.1000    2.3480    2.5320 h1        1 1RD      0.068700
     38 H3         10.8100    3.5470   -1.1160 h5        1 1RD      0.056100
     39 H4          6.8170    4.6700   -0.4240 h4        1 1RD      0.047100
     40 H5          5.3830   -0.9160    0.3770 hn        1 1RD      0.313500
     41 H6          3.8760   -2.3310    1.7060 h1        1 1RD      0.071700
     42 H7          3.3440   -0.7960    2.5480 h1        1 1RD      0.071700
     43 H8          2.3970    0.0650    0.3790 hc        1 1RD      0.049700
     44 H9          2.9500   -1.4270   -0.4800 hc        1 1RD      0.049700
     45 H10         1.5530   -2.8400    1.0610 hc        1 1RD      0.049700
     46 H11         1.0040   -1.3530    1.9310 hc        1 1RD      0.049700
     47 H12         0.0780   -0.4260   -0.2310 h1        1 1RD      0.057200
     48 H13         0.6140   -1.9370   -1.1050 h1        1 1RD      0.057200
     49 H14        -1.4590   -1.8690    1.0480 hn        1 1RD      0.340500
     50 H15        -2.7870   -3.9490    1.0740 h1        1 1RD      0.089700
     51 H16        -3.0770   -4.8960   -1.8620 hc        1 1RD      0.077700
     52 H17        -2.3030   -6.3040    0.7900 hc        1 1RD      0.039867
     53 H18        -2.3670   -7.0540   -0.8590 hc        1 1RD      0.039867
     54 H19        -1.1590   -5.7480   -0.5100 hc        1 1RD      0.039867
     55 H20        -5.3710   -4.9370   -1.0200 hc        1 1RD      0.039867
     56 H21        -4.7170   -6.6070   -0.8260 hc        1 1RD      0.039867
     57 H22        -4.8370   -5.5140    0.6140 hc        1 1RD      0.039867
     58 H23        -4.5540   -2.8340   -0.9700 hn        1 1RD      0.321500
     59 H24        -5.6150   -0.6530   -1.2580 h1        1 1RD      0.046033
     60 H25        -6.6280   -2.0420   -0.6280 h1        1 1RD      0.046033
     61 H26        -7.0810   -0.3220   -0.2350 h1        1 1RD      0.046033
     62 H27        -6.6130    0.2010    1.9520 h1        1 1RD      0.080200
     63 H28        -4.9990   -0.2630    2.6940 h1        1 1RD      0.080200
     64 H29        -3.5070    1.7090    2.8860 h4        1 1RD      0.188000
     65 H30        -4.7440    3.3170   -2.2510 hc        1 1RD      0.075700
     66 H31        -6.3460    5.2100   -0.3870 hc        1 1RD      0.043867
     67 H32        -6.3400    5.2230   -2.2000 hc        1 1RD      0.043867
     68 H33        -7.0050    3.7910   -1.3050 hc        1 1RD      0.043867
     69 H34        -3.9090    5.6740   -2.2270 hc        1 1RD      0.043867
     70 H35        -3.7910    5.6350   -0.4200 hc        1 1RD      0.043867
     71 H36        -2.7440    4.5420   -1.4240 hc        1 1RD      0.043867
@<TRIPOS>BOND
     1    1    2 2   
     2    2    3 1   
     3    2   10 1   
     4    3    4 1   
     5    4    5 1   
     6    4   36 1   
     7    4   37 1   
     8    5    6 1   
     9    5    9 2   
    10    6    7 1   
    11    7    8 2   
    12    7   38 1   
    13    8    9 1   
    14    9   39 1   
    15   10   11 1   
    16   10   40 1   
    17   11   12 1   
    18   11   41 1   
    19   11   42 1   
    20   12   13 1   
    21   12   43 1   
    22   12   44 1   
    23   13   14 1   
    24   13   45 1   
    25   13   46 1   
    26   14   15 1   
    27   14   47 1   
    28   14   48 1   
    29   15   16 1   
    30   15   49 1   
    31   16   17 2   
    32   16   18 1   
    33   18   19 1   
    34   18   22 1   
    35   18   50 1   
    36   19   20 1   
    37   19   21 1   
    38   19   51 1   
    39   20   52 1   
    40   20   53 1   
    41   20   54 1   
    42   21   55 1   
    43   21   56 1   
    44   21   57 1   
    45   22   23 1   
    46   22   58 1   
    47   23   24 2   
    48   23   25 1   
    49   25   26 1   
    50   25   27 1   
    51   26   59 1   
    52   26   60 1   
    53   26   61 1   
    54   27   28 1   
    55   27   62 1   
    56   27   63 1   
    57   28   29 1   
    58   28   30 2   
    59   29   32 2   
    60   30   31 1   
    61   30   64 1   
    62   31   32 1   
    63   32   33 1   
    64   33   34 1   
    65   33   35 1   
    66   33   65 1   
    67   34   66 1   
    68   34   67 1   
    69   34   68 1   
    70   35   69 1   
    71   35   70 1   
    72   35   71 1   
@<TRIPOS>SUBSTRUCTURE
     1 1RD         1 TEMP              0 ****  ****    0 ROOT
