@<TRIPOS>MOLECULE
1RD
   75    76     1     0     0
SMALL
bcc


@<TRIPOS>ATOM
      1 O23         0.9040   -0.5560    0.9220 o         1 1RD     -0.422000
      2 C22         1.7780   -1.4000    0.8140 c         1 1RD      0.639100
      3 O24         2.1900   -2.3240    1.6720 os        1 1RD     -0.408900
      4 C25         1.6710   -2.2380    3.0780 c3        1 1RD      0.276700
      5 C26         2.3670   -1.2040    3.8200 cc        1 1RD     -0.381700
      6 S30         3.6700   -1.4290    4.8590 ss        1 1RD      0.070700
      7 C29         3.6700    0.2070    5.2660 cc        1 1RD      0.396300
      8 N28         2.7290    0.9530    4.6650 nd        1 1RD     -0.613000
      9 C27         1.9740    0.1490    3.8530 cd        1 1RD      0.391200
     10 N21         2.5670   -1.5190   -0.4910 n4        1 1RD     -0.658800
     11 C20         1.7240   -1.1550   -1.6630 c3        1 1RD      0.105800
     12 C19         2.5140   -0.9840   -2.9600 c3        1 1RD     -0.103400
     13 C18         1.5600   -0.5690   -4.0720 c3        1 1RD     -0.105400
     14 C17         2.3430   -0.3720   -5.3690 c3        1 1RD      0.103800
     15 N16         1.4700    0.0330   -6.5230 n4        1 1RD     -0.674800
     16 C14         2.2550    0.2900   -7.7920 c         1 1RD      0.512100
     17 O15         3.4230    0.6150   -7.6690 o         1 1RD     -0.373100
     18 C13         1.5040    0.0980   -9.1330 c3        1 1RD      0.057700
     19 C31         1.7400   -1.3660   -9.6100 c3        1 1RD     -0.080700
     20 C33         1.3280   -2.3530   -8.5400 c3        1 1RD     -0.119600
     21 C32         0.9520   -1.6270  -10.8780 c3        1 1RD     -0.119600
     22 N12         1.9970    1.0690  -10.1000 n         1 1RD     -0.522900
     23 C10         1.1860    2.0780  -10.5560 c         1 1RD      0.652100
     24 O11         0.0870    2.3920  -10.0840 o         1 1RD     -0.485100
     25 N08         1.6370    2.9700  -11.7310 n4        1 1RD     -0.577200
     26 C09         3.0770    2.8810  -12.0650 c3        1 1RD      0.063100
     27 C07         0.7570    2.6840  -12.9280 c3        1 1RD      0.187100
     28 C06         0.7080    3.7910  -13.9290 cc        1 1RD     -0.151600
     29 N05        -0.3350    4.7280  -13.9780 na        1 1RD     -0.100100
     30 C34         1.5740    3.9550  -15.0070 cd        1 1RD     -0.198100
     31 S35         1.1100    5.1800  -16.0190 ss        1 1RD      0.480200
     32 C04        -0.2350    5.5320  -15.0760 cc        1 1RD      0.006300
     33 C02        -1.2160    6.6040  -15.4390 c3        1 1RD     -0.039400
     34 C03        -1.5830    7.4730  -14.2530 c3        1 1RD     -0.120100
     35 C01        -0.6470    7.4380  -16.5730 c3        1 1RD     -0.120100
     36 H1          0.5660   -2.0590    3.0050 h1        1 1RD      0.114200
     37 H2          1.9090   -3.2880    3.4110 h1        1 1RD      0.114200
     38 H3          4.3680    0.6630    5.9830 h5        1 1RD      0.091100
     39 H4          1.1260    0.5810    3.3030 h4        1 1RD      0.055100
     40 H5          2.9210   -2.4810   -0.5760 hn        1 1RD      0.472300
     41 H6          1.1880   -0.1900   -1.4080 hx        1 1RD      0.125700
     42 H7          0.9470   -1.9650   -1.7840 hx        1 1RD      0.125700
     43 H8          3.0220   -1.9470   -3.2370 hc        1 1RD      0.082700
     44 H9          3.3080   -0.2010   -2.8320 hc        1 1RD      0.082700
     45 H10         0.7740   -1.3610   -4.2030 hc        1 1RD      0.084200
     46 H11         1.0420    0.3850   -3.7800 hc        1 1RD      0.084200
     47 H12         3.1270    0.4310   -5.2330 hx        1 1RD      0.125700
     48 H13         2.8640   -1.3310   -5.6600 hx        1 1RD      0.125700
     49 H14         0.7770   -0.7090   -6.6990 hn        1 1RD      0.471800
     50 H15         0.3930    0.2630   -8.9800 h1        1 1RD      0.129700
     51 H16         2.8400   -1.5050   -9.8220 hc        1 1RD      0.097700
     52 H17         2.0370   -2.3410   -7.6770 hc        1 1RD      0.067867
     53 H18         0.2820   -2.1740   -8.1930 hc        1 1RD      0.067867
     54 H19         1.3600   -3.3920   -8.9690 hc        1 1RD      0.067867
     55 H20         1.3050   -0.9830  -11.7180 hc        1 1RD      0.067867
     56 H21         1.0930   -2.6950  -11.1900 hc        1 1RD      0.067867
     57 H22        -0.1400   -1.4570  -10.7180 hc        1 1RD      0.067867
     58 H23        -1.0930    4.7750  -13.3230 hn        1 1RD      0.360700
     59 H24         3.6980    3.1050  -11.1540 hx        1 1RD      0.122367
     60 H25         3.3140    3.6480  -12.8570 hx        1 1RD      0.122367
     61 H26         3.3300    1.8640  -12.4710 hx        1 1RD      0.122367
     62 H27        -0.2830    2.4540  -12.5370 hx        1 1RD      0.142700
     63 H28         1.1620    1.7600  -13.4410 hx        1 1RD      0.142700
     64 H29         2.4530    3.3220  -15.1920 h4        1 1RD      0.235000
     65 H30        -2.1560    6.0840  -15.8080 hc        1 1RD      0.130700
     66 H31        -0.6800    7.9620  -13.8130 hc        1 1RD      0.078033
     67 H32        -2.1100    6.8850  -13.4640 hc        1 1RD      0.078033
     68 H33        -2.2780    8.2830  -14.5990 hc        1 1RD      0.078033
     69 H34         0.1830    8.0970  -16.2180 hc        1 1RD      0.078033
     70 H35        -0.2830    6.7920  -17.4130 hc        1 1RD      0.078033
     71 H36        -1.4540    8.1020  -16.9840 hc        1 1RD      0.078033
     72 H212        3.3730   -0.8850   -0.4180 hn        1 1RD      0.472300
     73 H162        0.9640    0.8940   -6.2720 hn        1 1RD      0.471800
     74 H122        2.8740    0.8600  -10.5330 hn        1 1RD      0.370500
     75 H081        1.4390    3.9350  -11.4120 hn        1 1RD      0.480800
@<TRIPOS>BOND
     1    1    2 2   
     2    2    3 1   
     3    2   10 1   
     4    3    4 1   
     5    4    5 1   
     6    4   36 1   
     7    4   37 1   
     8    5    6 1   
     9    5    9 2   
    10    6    7 1   
    11    7    8 2   
    12    7   38 1   
    13    8    9 1   
    14    9   39 1   
    15   10   11 1   
    16   10   40 1   
    17   10   72 1   
    18   11   12 1   
    19   11   41 1   
    20   11   42 1   
    21   12   13 1   
    22   12   43 1   
    23   12   44 1   
    24   13   14 1   
    25   13   45 1   
    26   13   46 1   
    27   14   15 1   
    28   14   47 1   
    29   14   48 1   
    30   15   16 1   
    31   15   49 1   
    32   15   73 1   
    33   16   17 2   
    34   16   18 1   
    35   18   19 1   
    36   18   22 1   
    37   18   50 1   
    38   19   20 1   
    39   19   21 1   
    40   19   51 1   
    41   20   52 1   
    42   20   53 1   
    43   20   54 1   
    44   21   55 1   
    45   21   56 1   
    46   21   57 1   
    47   22   23 1   
    48   22   74 1   
    49   23   24 2   
    50   23   25 1   
    51   25   26 1   
    52   25   27 1   
    53   25   75 1   
    54   26   59 1   
    55   26   60 1   
    56   26   61 1   
    57   27   28 1   
    58   27   62 1   
    59   27   63 1   
    60   28   29 1   
    61   28   30 2   
    62   29   32 2   
    63   29   58 1   
    64   30   31 1   
    65   30   64 1   
    66   31   32 1   
    67   32   33 1   
    68   33   34 1   
    69   33   35 1   
    70   33   65 1   
    71   34   66 1   
    72   34   67 1   
    73   34   68 1   
    74   35   69 1   
    75   35   70 1   
    76   35   71 1   
@<TRIPOS>SUBSTRUCTURE
     1 1RD         1 TEMP              0 ****  ****    0 ROOT
