@<TRIPOS>MOLECULE
1RD
   71    66     1     0     0
SMALL
bcc


@<TRIPOS>ATOM
      1 O23         6.9300    1.4490   -2.7060 o         1 1RD     -0.396000
      2 C22         6.7520    2.5740   -2.2560 c1        1 1RD      0.378000
      3 O24         7.6640    3.6210   -2.5750 o         1 1RD     -0.284000
      4 C25         8.4800    3.3500   -3.7160 c3        1 1RD      0.075000
      5 C26         8.8820    4.6260   -4.3500 c2        1 1RD     -0.441000
      6 S30        10.3510    5.1680   -4.4780 ss        1 1RD      0.497000
      7 C29        10.2730    6.5790   -5.0670 c1        1 1RD     -0.344000
      8 N28         8.8490    6.8990   -5.2920 n2        1 1RD     -0.105000
      9 C27         7.9810    5.6620   -4.8370 c1        1 1RD     -0.106000
     10 N21         5.6300    2.8320   -1.3540 n3        1 1RD     -0.318000
     11 C20         4.7820    1.7700   -0.9610 c3        1 1RD     -0.042000
     12 C19         3.3490    2.2540   -0.9210 c3        1 1RD     -0.197000
     13 C18         2.8520    2.2550    0.5400 c3        1 1RD     -0.174000
     14 C17         1.6710    1.2800    0.6880 c3        1 1RD     -0.028000
     15 N16         0.4750    2.0220    1.0530 n         1 1RD     -0.370000
     16 C14        -0.5140    1.4220    1.9310 c2        1 1RD      0.277000
     17 O15        -0.1700    0.9590    3.0220 o         1 1RD     -0.389000
     18 C13        -2.0040    1.4320    1.5310 c3        1 1RD      0.018000
     19 C31        -2.7810    2.2100    2.5300 c3        1 1RD     -0.104000
     20 C33        -2.5120    3.7120    2.3350 c3        1 1RD     -0.209000
     21 C32        -4.3150    1.9230    2.3390 c3        1 1RD     -0.209000
     22 N12        -2.4950    0.0890    1.4910 n3        1 1RD     -0.346000
     23 C10        -1.7500   -0.9090    0.8780 c1        1 1RD      0.399000
     24 O11        -0.6310   -0.6980    0.5530 o         1 1RD     -0.432000
     25 N08        -2.3540   -2.1880    0.5880 n2        1 1RD     -0.290000
     26 C09        -1.5500   -3.4040    0.6600 c3        1 1RD     -0.087000
     27 C07        -3.7040   -2.2470    0.0850 c3        1 1RD      0.032000
     28 C06        -4.2170   -3.6660    0.1920 c2        1 1RD     -0.132000
     29 N05        -5.1450   -4.2230    1.3380 n2        1 1RD     -0.122000
     30 C34        -4.0380   -4.7140   -0.8000 c1        1 1RD     -0.461000
     31 S35        -4.8240   -5.9400   -0.3330 ss        1 1RD      0.507000
     32 C04        -5.5020   -5.5740    1.0180 c1        1 1RD     -0.252000
     33 C02        -6.4870   -6.4930    1.8400 c2        1 1RD     -0.046000
     34 C03        -5.8860   -7.8890    1.9680 c3        1 1RD     -0.220000
     35 C01        -7.8120   -6.5830    1.1210 c3        1 1RD     -0.220000
     36 H1          9.2710    2.8630   -3.4400 h1        1 1RD      0.118000
     37 H2          7.9760    2.8150   -4.3550 h1        1 1RD      0.118000
     38 H3         11.0340    7.1660   -5.2590 DU        1 1RD      0.192667
     39 H4          7.0150    5.6010   -4.8750 DU        1 1RD      0.192667
     40 H5          5.4750    3.6640   -1.0560 hn        1 1RD      0.224000
     41 H6          4.8610    1.0420   -1.5990 h1        1 1RD      0.114500
     42 H7          5.0460    1.4530   -0.0660 h1        1 1RD      0.114500
     43 H8          3.3000    3.1640   -1.2830 hc        1 1RD      0.099500
     44 H9          2.7970    1.6680   -1.4490 hc        1 1RD      0.099500
     45 H10         2.5680    3.1470    0.7830 hc        1 1RD      0.089000
     46 H11         3.5870    1.9710    1.1350 hc        1 1RD      0.089000
     47 H12         1.5220    0.8190   -0.1550 h1        1 1RD      0.087000
     48 H13         1.8670    0.6440    1.3670 h1        1 1RD      0.087000
     49 H14         0.3580    2.8760    0.7500 hn        1 1RD      0.252000
     50 H15        -2.1030    1.8510    0.6310 h1        1 1RD      0.134000
     51 H16        -2.5120    1.9470    3.4230 hc        1 1RD      0.112000
     52 H17        -3.1840    4.0860    1.7340 hc        1 1RD      0.078333
     53 H18        -2.5600    4.1710    3.2100 hc        1 1RD      0.078333
     54 H19        -1.5850    3.8430    1.9340 hc        1 1RD      0.078333
     55 H20        -4.5730    1.1110    2.8740 hc        1 1RD      0.078333
     56 H21        -4.5040    1.7620    1.3900 hc        1 1RD      0.078333
     57 H22        -4.8360    2.7000    2.6520 hc        1 1RD      0.078333
     58 H23        -3.2710   -0.1180    1.8980 hn        1 1RD      0.232000
     59 H24        -1.7760   -3.8950    1.4690 h1        1 1RD      0.089333
     60 H25        -0.5900   -3.1640    0.6780 h1        1 1RD      0.089333
     61 H26        -1.7350   -3.9690   -0.1320 h1        1 1RD      0.089333
     62 H27        -3.7180   -1.9570   -0.8730 h1        1 1RD      0.107500
     63 H28        -4.2770   -1.6530    0.6130 h1        1 1RD      0.107500
     64 H29        -3.4950   -4.6450   -1.6440 DU        1 1RD      0.192667
     65 H30        -6.6200   -6.1180    2.7140 ha        1 1RD      0.116000
     66 H31        -5.8900   -8.3370    1.0700 hc        1 1RD      0.086833
     67 H32        -6.4280   -8.4280    2.6110 hc        1 1RD      0.086833
     68 H33        -4.9460   -7.8190    2.3030 hc        1 1RD      0.086833
     69 H34        -7.6910   -7.0710    0.2720 hc        1 1RD      0.086833
     70 H35        -8.4650   -7.0650    1.6900 hc        1 1RD      0.086833
     71 H36        -8.1430   -5.6840    0.9340 hc        1 1RD      0.086833
@<TRIPOS>BOND
     1    1    2 1   
     2    2   10 1   
     3    3    4 1   
     4    4    5 1   
     5    4   36 1   
     6    4   37 1   
     7    5    6 1   
     8    5    9 1   
     9    6    7 1   
    10    7    8 1   
    11    8    9 1   
    12   10   11 1   
    13   10   40 1   
    14   11   12 1   
    15   11   41 1   
    16   11   42 1   
    17   12   13 1   
    18   12   43 1   
    19   12   44 1   
    20   13   14 1   
    21   13   45 1   
    22   13   46 1   
    23   14   15 1   
    24   14   47 1   
    25   14   48 1   
    26   15   16 1   
    27   15   49 1   
    28   16   17 1   
    29   16   18 1   
    30   18   19 1   
    31   18   22 1   
    32   18   50 1   
    33   19   20 1   
    34   19   21 1   
    35   19   51 1   
    36   20   52 1   
    37   20   53 1   
    38   20   54 1   
    39   21   55 1   
    40   21   56 1   
    41   21   57 1   
    42   22   23 1   
    43   22   58 1   
    44   23   24 1   
    45   25   26 1   
    46   25   27 1   
    47   26   59 1   
    48   26   60 1   
    49   26   61 1   
    50   27   28 1   
    51   27   62 1   
    52   27   63 1   
    53   28   29 1   
    54   28   30 1   
    55   29   32 1   
    56   30   31 1   
    57   31   32 1   
    58   33   34 1   
    59   33   35 1   
    60   33   65 1   
    61   34   66 1   
    62   34   67 1   
    63   34   68 1   
    64   35   69 1   
    65   35   70 1   
    66   35   71 1   
@<TRIPOS>SUBSTRUCTURE
     1 1RD         1 TEMP              0 ****  ****    0 ROOT
