@<TRIPOS>MOLECULE
1RE
   62    57     1     0     0
SMALL
bcc


@<TRIPOS>ATOM
      1 CAC        -5.3220   -2.7130   -6.5720 c3        1 1RE     -0.209500
      2 CAY        -5.2070   -3.2550   -5.0580 c3        1 1RE     -0.105000
      3 CAB        -4.8060   -4.7210   -5.0720 c3        1 1RE     -0.209500
      4 CAF        -4.1400   -2.4350   -4.2940 c3        1 1RE     -0.161000
      5 CAJ        -4.7460   -1.9090   -2.9770 c3        1 1RE     -0.018000
      6 OAW        -4.5150   -0.5300   -2.8720 os        1 1RE     -0.231000
      7 CBA        -2.5660    0.8240    0.0500 c1        1 1RE      0.094000
      8 CAH        -3.5140    0.7230    1.0730 c1        1 1RE     -0.125000
      9 CAG        -4.8070    0.2090    0.7940 c1        1 1RE     -0.068000
     10 CAZ        -5.1320   -0.1920   -0.4920 c1        1 1RE     -0.049000
     11 CBE        -4.1800   -0.0910   -1.5220 c2        1 1RE      0.112000
     12 CAI        -2.8920    0.4200   -1.2430 c2        1 1RE     -0.188000
     13 CAE        -6.5050   -0.7110   -0.7870 c1        1 1RE      0.071500
     14 NAD        -7.5270   -1.0960   -1.0070 n1        1 1RE     -0.184000
     15 NAT        -1.2630    1.3750    0.3280 n2        1 1RE     -0.239000
     16 NAR         0.6780    1.2630    1.7410 n1        1 1RE     -0.184000
     17 CBB        -0.3160    0.6260    1.1060 c1        1 1RE      0.219000
     18 NAQ        -0.3840   -0.7060    1.1400 n1        1 1RE     -0.262000
     19 CBC         0.5490   -1.4110    1.8160 c1        1 1RE      0.212000
     20 NAS         1.5440   -0.7700    2.4520 n1        1 1RE     -0.281000
     21 CBD         1.6100    0.5600    2.4160 c1        1 1RE      0.071500
     22 OAU         0.5620   -2.7760    1.7330 os        1 1RE     -0.167000
     23 CAA         0.2470   -3.4340    2.9720 c3        1 1RE     -0.066000
     24 OAX         2.5780    1.2410    3.2060 o         1 1RE     -0.175000
     25 CAM         3.7740    1.6040    2.4780 c3        1 1RE     -0.012000
     26 CAP         4.6060    2.6090    3.3200 c3        1 1RE     -0.078000
     27 NBF         5.9030    2.8380    2.6740 n3        1 1RE     -0.252000
     28 CAO         5.9920    4.1590    2.2340 c3        1 1RE     -0.106000
     29 CAL         7.3540    4.4890    1.6970 c3        1 1RE     -0.024000
     30 OAV         8.3860    4.1430    2.5960 os        1 1RE     -0.270000
     31 CAK         8.2970    2.8240    3.0390 c3        1 1RE     -0.024000
     32 CAN         6.9450    2.4960    3.5780 c3        1 1RE     -0.106000
     33 H1         -4.5970   -3.0710   -7.1000 hc        1 1RE      0.074667
     34 H2         -5.2760   -1.7480   -6.5730 hc        1 1RE      0.074667
     35 H3         -6.1760   -3.0010   -6.9550 hc        1 1RE      0.074667
     36 H4         -6.0440   -3.1630   -4.6250 hc        1 1RE      0.090000
     37 H5         -4.3630   -4.9580   -4.1930 hc        1 1RE      0.074667
     38 H6         -4.1950   -4.8770   -5.7880 hc        1 1RE      0.074667
     39 H7         -5.5810   -5.2620   -5.1930 hc        1 1RE      0.074667
     40 H8         -3.8590   -1.7000   -4.8300 hc        1 1RE      0.098000
     41 H9         -3.3590   -3.0150   -4.0910 hc        1 1RE      0.098000
     42 H10        -4.3280   -2.3650   -2.2260 h1        1 1RE      0.080500
     43 H11        -5.7480   -2.0890   -2.9680 h1        1 1RE      0.080500
     44 H12        -3.2760    1.0180    2.0240 ha        1 1RE      0.168000
     45 H13        -5.4840    0.1380    1.5240 ha        1 1RE      0.152000
     46 H14        -2.2280    0.4920   -1.9600 ha        1 1RE      0.154000
     47 H15        -1.0350    2.1970   -0.0010 hn        1 1RE      0.252000
     48 H16         1.1120   -3.6560    3.4730 h1        1 1RE      0.098333
     49 H17        -0.3400   -2.8060    3.5560 h1        1 1RE      0.098333
     50 H18        -0.2610   -4.2880    2.7780 h1        1 1RE      0.098333
     51 H19         3.5290    2.0130    1.6430 h1        1 1RE      0.104000
     52 H20         4.3090    0.8020    2.3050 h1        1 1RE      0.104000
     53 H21         4.1080    3.4810    3.3920 h1        1 1RE      0.091500
     54 H22         4.7530    2.2270    4.2510 h1        1 1RE      0.091500
     55 H24         5.2980    4.3120    1.4930 h1        1 1RE      0.082000
     56 H25         5.7950    4.7570    2.9850 h1        1 1RE      0.082000
     57 H26         7.4940    3.9920    0.8400 h1        1 1RE      0.094750
     58 H27         7.4000    5.4760    1.5130 h1        1 1RE      0.094750
     59 H28         8.4960    2.2140    2.2790 h1        1 1RE      0.094750
     60 H29         8.9390    2.6860    3.7210 h1        1 1RE      0.094750
     61 H30         6.8100    2.9910    4.4150 h1        1 1RE      0.082000
     62 H31         6.9010    1.5510    3.7660 h1        1 1RE      0.082000
@<TRIPOS>BOND
     1    1    2 1   
     2    1   33 1   
     3    1   34 1   
     4    1   35 1   
     5    2    3 1   
     6    2    4 1   
     7    2   36 1   
     8    3   37 1   
     9    3   38 1   
    10    3   39 1   
    11    4    5 1   
    12    4   40 1   
    13    4   41 1   
    14    5    6 1   
    15    5   42 1   
    16    5   43 1   
    17    6   11 1   
    18    7    8 1   
    19    7   12 1   
    20    8   44 1   
    21    9   10 1   
    22    9   45 1   
    23   10   11 1   
    24   11   12 1   
    25   12   46 1   
    26   13   14 1   
    27   15   17 1   
    28   15   47 1   
    29   16   21 1   
    30   17   18 1   
    31   19   20 1   
    32   19   22 1   
    33   22   23 1   
    34   23   48 1   
    35   23   49 1   
    36   23   50 1   
    37   24   25 1   
    38   25   26 1   
    39   25   51 1   
    40   25   52 1   
    41   26   27 1   
    42   26   53 1   
    43   26   54 1   
    44   27   28 1   
    45   27   32 1   
    46   28   29 1   
    47   28   55 1   
    48   28   56 1   
    49   29   30 1   
    50   29   57 1   
    51   29   58 1   
    52   30   31 1   
    53   31   32 1   
    54   31   59 1   
    55   31   60 1   
    56   32   61 1   
    57   32   62 1   
@<TRIPOS>SUBSTRUCTURE
     1 1RE         1 TEMP              0 ****  ****    0 ROOT
