@<TRIPOS>MOLECULE
1RE
   62    64     1     0     0
SMALL
bcc


@<TRIPOS>ATOM
      1 CAC         8.3900   -3.5720   -1.7100 c3        1 1RE     -0.092100
      2 CAY         7.0300   -3.2950   -1.1010 c3        1 1RE     -0.065700
      3 CAB         6.6820   -4.3680   -0.0910 c3        1 1RE     -0.092100
      4 CAF         7.0220   -1.9110   -0.4690 c3        1 1RE     -0.084400
      5 CAJ         5.6030   -1.4390   -0.2000 c3        1 1RE      0.128400
      6 OAW         5.7390   -0.1040    0.3120 os        1 1RE     -0.318900
      7 CBA         2.1580    0.7600    0.8460 ca        1 1RE      0.202600
      8 CAH         2.3250    2.0710    1.3360 ca        1 1RE     -0.154000
      9 CAG         3.6000    2.6130    1.4500 ca        1 1RE     -0.048000
     10 CAZ         4.7380    1.8780    1.1040 ca        1 1RE     -0.063000
     11 CBE         4.5740    0.5560    0.6250 ca        1 1RE      0.188100
     12 CAI         3.2980    0.0010    0.4930 ca        1 1RE     -0.257000
     13 CAE         6.0290    2.4500    1.2340 cg        1 1RE      0.253800
     14 NAD         7.0880    2.9180    1.3400 n1        1 1RE     -0.369800
     15 NAR        -1.3070   -0.1600   -0.0330 nb        1 1RE     -0.800000
     16 CBB        -0.2300    0.7070    0.1600 ca        1 1RE      0.929900
     17 NAQ        -0.2200    2.0550   -0.1790 nb        1 1RE     -0.786000
     18 CBC        -1.4030    2.4990   -0.7160 ca        1 1RE      0.917300
     19 NAS        -2.5420    1.7630   -0.9450 nb        1 1RE     -0.868000
     20 CBD        -2.4130    0.4420   -0.5750 ca        1 1RE      0.924300
     21 OAU        -1.3580    3.8380   -1.0330 os        1 1RE     -0.408100
     22 CAA        -2.5330    4.4160   -1.6090 c3        1 1RE      0.123700
     23 OAX        -3.4530   -0.4410   -0.7440 os        1 1RE     -0.407100
     24 CAM        -4.6810    0.0860   -1.2880 c3        1 1RE      0.138400
     25 CAP        -5.6400   -1.1150   -1.3040 c3        1 1RE      0.167800
     26 NBF        -6.3820   -1.2610   -0.0650 n3        1 1RE     -0.734600
     27 CAO        -7.5870   -0.4440   -0.0250 c3        1 1RE      0.137800
     28 CAL        -8.3760   -0.6290    1.2770 c3        1 1RE      0.126400
     29 OAV        -8.6470   -2.0020    1.5330 os        1 1RE     -0.415600
     30 CAK        -7.4580   -2.7840    1.5760 c3        1 1RE      0.126400
     31 CAN        -6.6430   -2.6500    0.2840 c3        1 1RE      0.137800
     32 H1          8.4070   -4.5900   -2.1700 hc        1 1RE      0.036700
     33 H2          8.6240   -2.8210   -2.5020 hc        1 1RE      0.036700
     34 H3          9.1850   -3.5230   -0.9280 hc        1 1RE      0.036700
     35 H4          6.2620   -3.3180   -1.9260 hc        1 1RE      0.045700
     36 H5          5.6610   -4.1980    0.3290 hc        1 1RE      0.036700
     37 H6          6.7010   -5.3740   -0.5750 hc        1 1RE      0.036700
     38 H7          7.4150   -4.3670    0.7510 hc        1 1RE      0.036700
     39 H8          7.6010   -1.9210    0.4900 hc        1 1RE      0.063200
     40 H9          7.5240   -1.1770   -1.1540 hc        1 1RE      0.063200
     41 H10         4.9960   -1.4170   -1.1420 h1        1 1RE      0.041700
     42 H11         5.0970   -2.0820    0.5670 h1        1 1RE      0.041700
     43 H12         1.4580    2.6820    1.6310 ha        1 1RE      0.168000
     44 H13         3.7170    3.6420    1.8270 ha        1 1RE      0.151000
     45 H14         3.1810   -1.0250    0.1140 ha        1 1RE      0.145000
     46 H15         0.8990   -0.8590    0.8270 hn        1 1RE      0.457800
     47 H16        -2.7770    3.9270   -2.5820 h1        1 1RE      0.056700
     48 H17        -3.3930    4.3480   -0.9020 h1        1 1RE      0.056700
     49 H18        -2.2230    5.4820   -1.7620 h1        1 1RE      0.056700
     50 H19        -5.0500    0.9300   -0.6520 h1        1 1RE      0.061200
     51 H20        -4.4930    0.4390   -2.3340 h1        1 1RE      0.061200
     52 H21        -6.3240   -0.9760   -2.1930 h1        1 1RE      0.053700
     53 H22        -5.0250   -2.0430   -1.4840 h1        1 1RE      0.053700
     54 H24        -7.2750    0.6340   -0.1060 h1        1 1RE      0.040700
     55 H25        -8.2740   -0.6730   -0.8920 h1        1 1RE      0.040700
     56 H26        -7.8180   -0.1880    2.1450 h1        1 1RE      0.055700
     57 H27        -9.3880   -0.1560    1.1860 h1        1 1RE      0.055700
     58 H28        -6.8430   -2.4830    2.4640 h1        1 1RE      0.055700
     59 H29        -7.8210   -3.8380    1.6950 h1        1 1RE      0.055700
     60 H30        -7.1940   -3.1890   -0.5420 h1        1 1RE      0.040700
     61 H31        -5.6510   -3.1600    0.4340 h1        1 1RE      0.040700
     62 NAT         0.8940    0.1400    0.7720 nh        1 1RE     -0.720300
@<TRIPOS>BOND
     1    1    2 1   
     2    1   32 1   
     3    1   33 1   
     4    1   34 1   
     5    2    3 1   
     6    2    4 1   
     7    2   35 1   
     8    3   36 1   
     9    3   37 1   
    10    3   38 1   
    11    4    5 1   
    12    4   39 1   
    13    4   40 1   
    14    5    6 1   
    15    5   41 1   
    16    5   42 1   
    17    6   11 1   
    18    7    8 ar  
    19    7   12 ar  
    20    7   62 1   
    21    8    9 ar  
    22    8   43 1   
    23    9   10 ar  
    24    9   44 1   
    25   10   11 ar  
    26   10   13 1   
    27   11   12 ar  
    28   12   45 1   
    29   13   14 3   
    30   15   16 ar  
    31   15   20 ar  
    32   16   17 ar  
    33   16   62 1   
    34   17   18 ar  
    35   18   19 ar  
    36   18   21 1   
    37   19   20 ar  
    38   20   23 1   
    39   21   22 1   
    40   22   47 1   
    41   22   48 1   
    42   22   49 1   
    43   23   24 1   
    44   24   25 1   
    45   24   50 1   
    46   24   51 1   
    47   25   26 1   
    48   25   52 1   
    49   25   53 1   
    50   26   27 1   
    51   26   31 1   
    52   27   28 1   
    53   27   54 1   
    54   27   55 1   
    55   28   29 1   
    56   28   56 1   
    57   28   57 1   
    58   29   30 1   
    59   30   31 1   
    60   30   58 1   
    61   30   59 1   
    62   31   60 1   
    63   31   61 1   
    64   46   62 1   
@<TRIPOS>SUBSTRUCTURE
     1 1RE         1 TEMP              0 ****  ****    0 ROOT
