@<TRIPOS>MOLECULE
1RE
   62    63     1     0     0
SMALL
bcc


@<TRIPOS>ATOM
      1 CAC        -0.7710    0.4620   -0.3400 c3        1 1RE     -0.272500
      2 CAY         0.0300   -0.1180    0.7120 c1        1 1RE     -0.085000
      3 CAB        -0.3850   -0.0700    2.0950 c3        1 1RE     -0.272500
      4 CAF         2.3750   -2.4690   -0.1910 c3        1 1RE     -0.242000
      5 CAJ         3.7430   -1.8590   -0.3780 c3        1 1RE     -0.016000
      6 OAW         4.6060   -2.9410   -0.7720 os        1 1RE     -0.203000
      7 CBA         7.8220   -1.1160   -1.1670 ca        1 1RE      0.121000
      8 CAH         8.6330   -2.1940   -1.5760 ca        1 1RE     -0.161000
      9 CAG         8.0830   -3.4630   -1.7150 ca        1 1RE     -0.050000
     10 CAZ         6.7320   -3.7040   -1.4450 ca        1 1RE     -0.060000
     11 CBE         5.9180   -2.6250   -1.0240 ca        1 1RE      0.149000
     12 CAI         6.4560   -1.3420   -0.8880 ca        1 1RE     -0.258000
     13 CAE         6.1950   -5.0080   -1.5910 c1        1 1RE     -0.076000
     14 NAD         5.7540   -6.0780   -1.7110 n1        1 1RE     -0.043000
     15 NAR         9.5730    0.2380   -3.0220 n2        1 1RE     -0.317000
     16 CBB         9.1130    0.8790   -1.8820 c2        1 1RE      0.231000
     17 NAQ         9.3780    2.2100   -1.5680 n2        1 1RE     -0.332000
     18 CBC        10.1770    2.8550   -2.4770 c2        1 1RE      0.213000
     19 NAS        10.7110    2.3410   -3.6400 n2        1 1RE     -0.218000
     20 CBD        10.3530    1.0240   -3.8360 c2        1 1RE      0.216000
     21 OAU        10.5280    4.1720   -2.2850 os        1 1RE     -0.163000
     22 CAA        10.0480    4.8160   -1.1010 c3        1 1RE     -0.066000
     23 OAX        10.8810    0.5180   -4.9990 os        1 1RE     -0.170000
     24 CAM        10.5370   -0.8420   -5.3410 c3        1 1RE     -0.013000
     25 CAP        11.2780   -1.0690   -6.6690 c3        1 1RE     -0.078000
     26 NBF        10.8320   -2.2810   -7.3390 n3        1 1RE     -0.251000
     27 CAO        11.2540   -3.4940   -6.6490 c3        1 1RE     -0.105500
     28 CAL        10.8600   -4.7680   -7.4050 c3        1 1RE     -0.024000
     29 OAV        11.3040   -4.7360   -8.7560 os        1 1RE     -0.271000
     30 CAK        10.8190   -3.5940   -9.4510 c3        1 1RE     -0.024000
     31 CAN        11.2140   -2.2910   -8.7470 c3        1 1RE     -0.105500
     32 H1         -1.0180   -0.3530   -1.0740 hc        1 1RE      0.106333
     33 H2         -1.7240    0.9610   -0.0250 hc        1 1RE      0.106333
     34 H3         -0.1370    1.2120   -0.8870 hc        1 1RE      0.106333
     35 H4          1.6560   -1.6620    0.1140 hc        1 1RE      0.103000
     36 H5          0.4310    0.4310    2.6850 hc        1 1RE      0.106333
     37 H6         -1.3530    0.4520    2.3080 hc        1 1RE      0.106333
     38 H7         -0.4560   -1.1270    2.4690 hc        1 1RE      0.106333
     39 H8          2.4040   -3.2570    0.5980 hc        1 1RE      0.103000
     40 H9          2.0250   -2.9370   -1.1410 hc        1 1RE      0.103000
     41 H10         4.1250   -1.4140    0.5790 h1        1 1RE      0.078000
     42 H11         3.7360   -1.0800   -1.1840 h1        1 1RE      0.078000
     43 H12         9.7030   -2.0480   -1.7870 ha        1 1RE      0.160000
     44 H13         8.7250   -4.2990   -2.0380 ha        1 1RE      0.148000
     45 H14         5.8140   -0.5090   -0.5640 ha        1 1RE      0.146000
     46 H15         7.8680    0.7260   -0.2680 hn        1 1RE      0.251000
     47 H16         8.9320    4.8520   -1.0970 h1        1 1RE      0.096000
     48 H17        10.4820    5.8440   -1.1960 h1        1 1RE      0.096000
     49 H18        10.4320    4.3020   -0.1880 h1        1 1RE      0.096000
     50 H19         9.4270   -0.9310   -5.4590 h1        1 1RE      0.103500
     51 H20        10.9020   -1.5340   -4.5400 h1        1 1RE      0.103500
     52 H21        11.0650   -0.1900   -7.3410 h1        1 1RE      0.092500
     53 H22        12.3870   -1.0760   -6.4600 h1        1 1RE      0.092500
     54 H24        10.7510   -3.5060   -5.6430 h1        1 1RE      0.081750
     55 H25        12.3710   -3.5090   -6.4820 h1        1 1RE      0.081750
     56 H26        11.3790   -5.6560   -6.9600 h1        1 1RE      0.094750
     57 H27         9.7480   -4.9170   -7.3790 h1        1 1RE      0.094750
     58 H28         9.7040   -3.6640   -9.5570 h1        1 1RE      0.094750
     59 H29        11.3070   -3.6500  -10.4590 h1        1 1RE      0.094750
     60 H30        10.6840   -1.4360   -9.2530 h1        1 1RE      0.081750
     61 H31        12.3260   -2.1390   -8.8760 h1        1 1RE      0.081750
     62 NAT         8.3540    0.1710   -0.9430 nu        1 1RE     -0.245000
@<TRIPOS>BOND
     1    1    2 1   
     2    1   32 1   
     3    1   33 1   
     4    1   34 1   
     5    2    3 1   
     6    3   36 1   
     7    3   37 1   
     8    3   38 1   
     9    4    5 1   
    10    4   35 1   
    11    4   39 1   
    12    4   40 1   
    13    5    6 1   
    14    5   41 1   
    15    5   42 1   
    16    6   11 1   
    17    7    8 1   
    18    7   12 1   
    19    7   62 1   
    20    8    9 1   
    21    8   43 1   
    22    9   10 1   
    23    9   44 1   
    24   10   11 1   
    25   10   13 1   
    26   11   12 1   
    27   12   45 1   
    28   13   14 1   
    29   15   16 1   
    30   15   20 1   
    31   16   17 1   
    32   16   62 1   
    33   17   18 1   
    34   18   19 1   
    35   18   21 1   
    36   19   20 1   
    37   20   23 1   
    38   21   22 1   
    39   22   47 1   
    40   22   48 1   
    41   22   49 1   
    42   23   24 1   
    43   24   25 1   
    44   24   50 1   
    45   24   51 1   
    46   25   26 1   
    47   25   52 1   
    48   25   53 1   
    49   26   27 1   
    50   26   31 1   
    51   27   28 1   
    52   27   54 1   
    53   27   55 1   
    54   28   29 1   
    55   28   56 1   
    56   28   57 1   
    57   29   30 1   
    58   30   31 1   
    59   30   58 1   
    60   30   59 1   
    61   31   60 1   
    62   31   61 1   
    63   46   62 1   
@<TRIPOS>SUBSTRUCTURE
     1 1RE         1 TEMP              0 ****  ****    0 ROOT
