@<TRIPOS>MOLECULE
1RE
   63    65     1     0     0
SMALL
bcc


@<TRIPOS>ATOM
      1 CAC         2.8170    2.7400   -0.5340 c3        1 1RE     -0.094100
      2 CAY         3.8690    1.7780   -0.0170 c3        1 1RE     -0.063700
      3 CAB         3.8040    1.6960    1.4940 c3        1 1RE     -0.094100
      4 CAF         3.6700    0.4130   -0.6590 c3        1 1RE     -0.086400
      5 CAJ         4.8930   -0.4650   -0.4590 c3        1 1RE      0.125400
      6 OAW         4.6060   -1.6750   -1.1900 os        1 1RE     -0.296900
      7 CBA         7.6610   -3.6520   -0.5430 ca        1 1RE      0.002600
      8 CAH         7.3580   -4.8170   -1.2590 ca        1 1RE     -0.137000
      9 CAG         6.1330   -4.8970   -1.9250 ca        1 1RE     -0.048000
     10 CAZ         5.2240   -3.8400   -1.8890 ca        1 1RE      0.022000
     11 CBE         5.5510   -2.6590   -1.1660 ca        1 1RE      0.198100
     12 CAI         6.7770   -2.5620   -0.4920 ca        1 1RE     -0.198000
     13 CAE         3.9840   -3.9380   -2.5720 cg        1 1RE      0.208800
     14 NAD         2.9660   -4.0130   -3.1300 n1        1 1RE     -0.279800
     15 NAR        10.0060   -1.5280   -0.5870 nb        1 1RE     -0.750000
     16 CBB         9.9850   -2.8910   -0.6500 ca        1 1RE      0.794900
     17 NAQ        10.7870   -3.7260   -1.3760 nb        1 1RE     -0.747000
     18 CBC        11.7300   -3.0340   -2.1330 ca        1 1RE      0.945300
     19 NAS        11.8820   -1.6700   -2.1820 nb        1 1RE     -0.808000
     20 CBD        11.0020   -0.9690   -1.3890 ca        1 1RE      0.951300
     21 OAU        12.5230   -3.8730   -2.8540 os        1 1RE     -0.381100
     22 CAA        13.5460   -3.2880   -3.6820 c3        1 1RE      0.117700
     23 OAX        11.0150    0.3850   -1.3190 os        1 1RE     -0.379100
     24 CAM        12.0470    1.0930   -2.0600 c3        1 1RE      0.134400
     25 CAP        11.8770    2.5600   -1.6390 c3        1 1RE      0.166800
     26 NBF        12.5170    2.8500   -0.3700 n3        1 1RE     -0.742600
     27 CAO        13.9200    3.2190   -0.5130 c3        1 1RE      0.134300
     28 CAL        14.5760    3.5580    0.8310 c3        1 1RE      0.126400
     29 OAV        13.8310    4.5390    1.5400 os        1 1RE     -0.403600
     30 CAK        12.4850    4.1360    1.7570 c3        1 1RE      0.126400
     31 CAN        11.7730    3.8090    0.4380 c3        1 1RE      0.134300
     32 H1          1.7930    2.3690   -0.2880 hc        1 1RE      0.041033
     33 H2          2.9520    3.7450   -0.0650 hc        1 1RE      0.041033
     34 H3          2.8980    2.8510   -1.6420 hc        1 1RE      0.041033
     35 H4          4.8830    2.1710   -0.3120 hc        1 1RE      0.043700
     36 H5          3.9340    2.7120    1.9390 hc        1 1RE      0.041033
     37 H6          4.6100    1.0330    1.8900 hc        1 1RE      0.041033
     38 H7          2.8170    1.2910    1.8240 hc        1 1RE      0.041033
     39 H8          2.7700   -0.0920   -0.2210 hc        1 1RE      0.070200
     40 H9          3.4830    0.5330   -1.7590 hc        1 1RE      0.070200
     41 H10         5.8140    0.0110   -0.8850 h1        1 1RE      0.047700
     42 H11         5.0480   -0.7170    0.6220 h1        1 1RE      0.047700
     43 H12         8.0600   -5.6650   -1.3170 ha        1 1RE      0.171000
     44 H13         5.8840   -5.8140   -2.4890 ha        1 1RE      0.182000
     45 H14         7.0400   -1.6400    0.0520 ha        1 1RE      0.175000
     46 H15         8.7960   -3.0230    1.0520 hn        1 1RE      0.483300
     47 H16        14.2740   -2.7220   -3.0550 h1        1 1RE      0.077367
     48 H17        13.0870   -2.6370   -4.4630 h1        1 1RE      0.077367
     49 H18        14.0180   -4.1990   -4.1350 h1        1 1RE      0.077367
     50 H19        11.8360    0.9710   -3.1540 h1        1 1RE      0.074200
     51 H20        13.0530    0.6800   -1.7980 h1        1 1RE      0.074200
     52 H21        10.7720    2.7760   -1.5680 h1        1 1RE      0.064200
     53 H22        12.2970    3.1800   -2.4860 h1        1 1RE      0.064200
     54 H24        14.4620    2.3430   -0.9670 h1        1 1RE      0.043200
     55 H25        14.0470    4.1040   -1.2030 h1        1 1RE      0.043200
     56 H26        15.5780    4.0340    0.6620 h1        1 1RE      0.059950
     57 H27        14.6870    2.6370    1.4620 h1        1 1RE      0.059950
     58 H28        12.0020    5.0240    2.2440 h1        1 1RE      0.059950
     59 H29        12.4610    3.2540    2.4500 h1        1 1RE      0.059950
     60 H30        11.5990    4.7740   -0.1210 h1        1 1RE      0.043200
     61 H31        10.7710    3.3560    0.6770 h1        1 1RE      0.043200
     62 HAT2        9.2560   -4.5190    0.4240 hn        1 1RE      0.483300
     63 NAT         8.9340   -3.5670    0.1870 n4        1 1RE     -0.620100
@<TRIPOS>BOND
     1    1    2 1   
     2    1   32 1   
     3    1   33 1   
     4    1   34 1   
     5    2    3 1   
     6    2    4 1   
     7    2   35 1   
     8    3   36 1   
     9    3   37 1   
    10    3   38 1   
    11    4    5 1   
    12    4   39 1   
    13    4   40 1   
    14    5    6 1   
    15    5   41 1   
    16    5   42 1   
    17    6   11 1   
    18    7    8 ar  
    19    7   12 ar  
    20    7   63 1   
    21    8    9 ar  
    22    8   43 1   
    23    9   10 ar  
    24    9   44 1   
    25   10   11 ar  
    26   10   13 1   
    27   11   12 ar  
    28   12   45 1   
    29   13   14 3   
    30   15   16 ar  
    31   15   20 ar  
    32   16   17 ar  
    33   16   63 1   
    34   17   18 ar  
    35   18   19 ar  
    36   18   21 1   
    37   19   20 ar  
    38   20   23 1   
    39   21   22 1   
    40   22   47 1   
    41   22   48 1   
    42   22   49 1   
    43   23   24 1   
    44   24   25 1   
    45   24   50 1   
    46   24   51 1   
    47   25   26 1   
    48   25   52 1   
    49   25   53 1   
    50   26   27 1   
    51   26   31 1   
    52   27   28 1   
    53   27   54 1   
    54   27   55 1   
    55   28   29 1   
    56   28   56 1   
    57   28   57 1   
    58   29   30 1   
    59   30   31 1   
    60   30   58 1   
    61   30   59 1   
    62   31   60 1   
    63   31   61 1   
    64   46   63 1   
    65   62   63 1   
@<TRIPOS>SUBSTRUCTURE
     1 1RE         1 TEMP              0 ****  ****    0 ROOT
