@<TRIPOS>MOLECULE
1RG
   58    54     1     0     0
SMALL
bcc


@<TRIPOS>ATOM
      1 C          -1.9660    1.3550    0.0950 c2        1 1RG      0.307000
      2 N           0.4810    1.0270    0.1990 n2        1 1RG     -0.246000
      3 O          -2.8800    2.1280    0.4490 o         1 1RG     -0.371000
      4 CA         -0.5480    1.7090    0.5120 c2        1 1RG     -0.089000
      5 CB          4.2950    1.9550    5.0430 c2        1 1RG     -1.015000
      6 CD          2.9970    2.2520    1.7380 c1        1 1RG      0.094000
      7 CG          4.0640    2.4480    2.4230 c2        1 1RG     -0.907000
      8 CAB        11.7620    1.7700    2.2540 c2        1 1RG     -0.409000
      9 CAD         6.9820    0.1880    0.9330 c3        1 1RG     -0.151000
     10 CAE        11.7780    2.7800    1.3530 c2        1 1RG      0.147000
     11 CAF        12.9230    2.9780    0.4140 c3        1 1RG     -0.193000
     12 OAG        10.8240    3.7210    1.1490 oh        1 1RG     -0.269000
     13 CAH         7.2190    0.7690    4.4280 c2        1 1RG     -0.058000
     14 CAI         6.4110    1.4090    3.5670 c2        1 1RG     -0.559000
     15 NAJ         7.2830    1.5480    1.2450 n2        1 1RG     -0.193000
     16 SAK         4.7050    1.4650    3.6730 s4        1 1RG      1.542000
     17 CAL         7.0230    2.0740    2.3890 c2        1 1RG     -0.030000
     18 CAM         7.3730    3.5620    2.6460 c2        1 1RG      0.394000
     19 OAT         6.4440    4.4000    2.5330 o         1 1RG     -0.550500
     20 OAU         8.5620    3.8270    2.9800 o         1 1RG     -0.550500
     21 NAX        -2.1710    0.2130   -0.6460 ns        1 1RG     -0.294000
     22 CAY        -3.3900   -0.2840   -1.1140 c2        1 1RG     -0.078000
     23 CAZ        -4.6250    0.2330   -0.9220 c2        1 1RG     -0.153000
     24 CBA        -5.8400   -0.3320   -1.4550 c2        1 1RG     -0.127000
     25 CBB        -6.0890   -1.5760   -1.9150 c2        1 1RG     -0.059000
     26 CBC        -5.1640   -2.6340   -1.9240 c1        1 1RG     -0.038000
     27 CBD        -4.4020   -3.5600   -1.9320 c1        1 1RG     -0.310000
     28 CBE        -7.4900   -1.8870   -2.4710 c2        1 1RG      0.365000
     29 OBF        -8.4730   -1.3420   -1.8960 o         1 1RG     -0.560500
     30 OBG        -7.5810   -2.6450   -3.4740 o         1 1RG     -0.560500
     31 HN          1.3660    1.3670    0.5380 hn        1 1RG      0.201000
     32 HA          3.5530    0.6770   -0.0910 ha        1 1RG      0.000500
     33 HB          4.9370    2.0410    5.9240 h4        1 1RG      0.155000
     34 HBA        -0.5540    2.6410    1.1210 h4        1 1RG      0.123000
     35 HD          3.8150    0.2170   -0.5140 ha        1 1RG      0.000500
     36 HDA         4.7560    3.3240    2.2440 h4        1 1RG      0.308000
     37 HG          3.2910    2.3340    5.2620 h4        1 1RG      0.155000
     38 HAB         7.8590   -0.2350    0.3730 h1        1 1RG      0.068667
     39 HAD         6.7770   -0.4740    1.8190 h1        1 1RG      0.068667
     40 HAE        12.6220    1.0830    2.2930 ha        1 1RG      0.130000
     41 HAF        12.6610    2.5430   -0.5820 hc        1 1RG      0.089667
     42 HAFA       13.1280    4.0680    0.2800 hc        1 1RG      0.089667
     43 HAFB       13.8390    2.4740    0.8030 hc        1 1RG      0.089667
     44 HOAG       10.0500    3.5800    1.7380 ho        1 1RG      0.296000
     45 HAH         8.3120    0.7310    4.2350 ha        1 1RG      0.149000
     46 HNAJ        6.0830    0.1600    0.2580 h1        1 1RG      0.068667
     47 HNAX       -1.3720   -0.3340   -0.8800 hn        1 1RG      0.242000
     48 HAZ        -4.7600    1.1630   -0.3400 ha        1 1RG      0.145000
     49 HBB        -6.6980    0.3700   -1.4620 ha        1 1RG      0.145000
     50 HBC        -3.7470   -4.3880   -1.9480 ha        1 1RG      0.199000
     51 HBD        -3.2540   -1.2140   -1.7060 h4        1 1RG      0.149000
     52 CAA        10.6890    1.4870    3.1960 c2        1 1RG      0.209000
     53 OAC        10.7420    0.5150    3.9680 o         1 1RG     -0.367000
     54 HAA         9.8090    2.1780    3.2050 h4        1 1RG      0.158000
     55 CAS         6.7990    0.0900    5.6680 c3        1 1RG     -0.207000
     56 HAS         7.3670   -0.8660    5.7930 hc        1 1RG      0.084667
     57 HASA        5.7040   -0.1400    5.6790 hc        1 1RG      0.084667
     58 HASB        7.0270    0.7470    6.5470 hc        1 1RG      0.084667
@<TRIPOS>BOND
     1    1    3 1   
     2    1    4 1   
     3    1   21 1   
     4    2    4 1   
     5    2   31 1   
     6    4   34 1   
     7    5   16 1   
     8    5   33 1   
     9    5   37 1   
    10    6    7 1   
    11    7   16 1   
    12    7   36 1   
    13    8   10 1   
    14    8   40 1   
    15    8   52 1   
    16    9   15 1   
    17    9   38 1   
    18    9   39 1   
    19    9   46 1   
    20   10   11 1   
    21   10   12 1   
    22   11   41 1   
    23   11   42 1   
    24   11   43 1   
    25   12   44 1   
    26   13   14 1   
    27   13   45 1   
    28   13   55 1   
    29   14   16 1   
    30   14   17 1   
    31   15   17 1   
    32   17   18 1   
    33   18   19 1   
    34   18   20 1   
    35   21   22 1   
    36   21   47 1   
    37   22   23 1   
    38   22   51 1   
    39   23   24 1   
    40   23   48 1   
    41   24   25 1   
    42   24   49 1   
    43   25   26 1   
    44   25   28 1   
    45   26   27 1   
    46   27   50 1   
    47   28   29 1   
    48   28   30 1   
    49   32   35 1   
    50   52   53 1   
    51   52   54 1   
    52   55   56 1   
    53   55   57 1   
    54   55   58 1   
@<TRIPOS>SUBSTRUCTURE
     1 1RG         1 TEMP              0 ****  ****    0 ROOT
