@<TRIPOS>MOLECULE
1RG
   58    56     1     0     0
SMALL
bcc


@<TRIPOS>ATOM
      1 C           0.1180   -1.8050   -3.0100 c1        1 1RG      0.311000
      2 N           2.0830   -0.2880   -3.3930 n3        1 1RG     -0.288000
      3 O          -0.4710   -1.4540   -1.9750 o         1 1RG     -0.400000
      4 CA          1.5880   -1.7700   -3.0660 c2        1 1RG     -0.055000
      5 CB          2.0880   -1.9540   -1.8440 c3        1 1RG     -0.149000
      6 CD          2.5970    0.2990   -2.0770 c3        1 1RG     -0.070000
      7 CG          2.2110   -0.5100   -1.1620 c3        1 1RG     -0.285000
      8 CAA         2.2010    2.1670    4.5330 c1        1 1RG      0.198000
      9 CAB         0.9790    2.6630    3.6680 c2        1 1RG     -0.218000
     10 OAC         3.3600    2.4570    4.1940 o         1 1RG     -0.301000
     11 CAD         0.2600    1.5850    3.2360 c3        1 1RG     -0.027000
     12 CAE         0.0680    3.5760    4.5330 c3        1 1RG      0.042000
     13 CAF         0.9250    4.3460    5.5430 c3        1 1RG     -0.217000
     14 OAG        -0.6050    4.4780    3.7110 oh        1 1RG     -0.336000
     15 CAH        -0.0170    1.6840    1.6650 c3        1 1RG     -0.059000
     16 CAI         0.7300    0.6230    1.2190 c2        1 1RG     -0.428000
     17 NAJ         1.0950    0.2430    3.4140 n3        1 1RG     -0.260000
     18 SAK         0.5360    0.0280   -0.4880 ss        1 1RG      0.216000
     19 CAL         1.0860   -0.2850    2.2480 c2        1 1RG      0.025000
     20 CAM         1.9740   -1.4590    1.9420 c2        1 1RG      0.382000
     21 CAS         0.3660    3.0800    1.0140 c3        1 1RG     -0.206000
     22 OAT         1.5510   -2.6420    2.1310 o         1 1RG     -0.546000
     23 OAU         3.1470   -1.2690    1.5440 o         1 1RG     -0.546000
     24 NAX        -0.6460   -2.3510   -4.1360 n3        1 1RG     -0.302000
     25 CAY        -2.0740   -2.4790   -4.0410 c2        1 1RG      0.035000
     26 CAZ        -2.6360   -3.6220   -3.4740 c2        1 1RG     -0.149000
     27 CBA        -4.0220   -3.7940   -3.4740 c1        1 1RG     -0.090000
     28 CBB        -4.8400   -2.8230   -4.0390 c1        1 1RG     -0.141000
     29 CBC        -4.2750   -1.6760   -4.6080 c1        1 1RG     -0.141000
     30 CBD        -2.8950   -1.5080   -4.6070 c1        1 1RG     -0.170000
     31 CBE        -4.6370   -5.1170   -2.9450 c2        1 1RG      0.356000
     32 OBF        -5.1190   -5.1690   -1.7690 o         1 1RG     -0.573500
     33 OBG        -4.7010   -6.1330   -3.7020 o         1 1RG     -0.573500
     34 HN          2.7570   -0.3220   -3.9890 hn        1 1RG      0.145000
     35 HA          1.7690   -2.4740   -3.7490 h4        1 1RG      0.091000
     36 HB          1.4940   -2.5130   -1.3250 hc        1 1RG      0.104000
     37 HBA         2.9680   -2.3690   -1.9050 hc        1 1RG      0.104000
     38 HD          2.2200    1.1650   -1.9320 h1        1 1RG      0.098500
     39 HDA         3.5620    0.3530   -2.0910 h1        1 1RG      0.098500
     40 HG          2.8710   -0.5370   -0.4370 h1        1 1RG      0.185000
     41 HAA         2.0470    1.6340    5.3330 ha        1 1RG      0.096000
     42 HAB         1.3130    3.1710    2.8890 ha        1 1RG      0.126000
     43 HAD        -0.5890    1.5230    3.7260 h1        1 1RG      0.086000
     44 HAE        -0.5930    3.0160    5.0190 h1        1 1RG      0.090000
     45 HAF         0.3490    4.9010    6.1020 hc        1 1RG      0.084333
     46 HAFA        1.5680    4.9200    5.0620 hc        1 1RG      0.084333
     47 HAFB        1.4080    3.7170    6.1010 hc        1 1RG      0.084333
     48 HOAG       -1.3840    4.6930    4.0820 ho        1 1RG      0.204000
     49 HAH        -0.9610    1.6030    1.4410 hc        1 1RG      0.094000
     50 HNAJ        1.2960   -0.1760    4.2010 hn        1 1RG      0.194000
     51 HAS        -0.2560    3.7810    1.3420 hc        1 1RG      0.069667
     52 HASA        0.3000    3.0150    0.0520 hc        1 1RG      0.069667
     53 HASB        1.2720    3.3130    1.2610 hc        1 1RG      0.069667
     54 HNAX       -0.2060   -2.6230   -4.9080 hn        1 1RG      0.245000
     55 HAZ        -2.0640   -4.2980   -3.0790 ha        1 1RG      0.151000
     56 HBB        -5.8090   -2.9400   -4.0410 ha        1 1RG      0.123500
     57 HBC        -4.8510   -0.9920   -5.0070 ha        1 1RG      0.123500
     58 HBD        -2.5090   -0.6800   -4.9310 ha        1 1RG      0.148000
@<TRIPOS>BOND
     1    1    3 1   
     2    1   24 1   
     3    2    4 1   
     4    2    6 1   
     5    2   34 1   
     6    4    5 1   
     7    4   35 1   
     8    5    7 1   
     9    5   36 1   
    10    5   37 1   
    11    6    7 1   
    12    6   38 1   
    13    6   39 1   
    14    7   18 1   
    15    7   40 1   
    16    8   10 1   
    17    8   41 1   
    18    9   11 1   
    19    9   12 1   
    20    9   42 1   
    21   11   15 1   
    22   11   17 1   
    23   11   43 1   
    24   12   13 1   
    25   12   14 1   
    26   12   44 1   
    27   13   45 1   
    28   13   46 1   
    29   13   47 1   
    30   14   48 1   
    31   15   16 1   
    32   15   21 1   
    33   15   49 1   
    34   16   18 1   
    35   16   19 1   
    36   17   19 1   
    37   17   50 1   
    38   19   20 1   
    39   20   22 1   
    40   20   23 1   
    41   21   51 1   
    42   21   52 1   
    43   21   53 1   
    44   24   25 1   
    45   24   54 1   
    46   25   26 1   
    47   25   30 1   
    48   26   27 1   
    49   26   55 1   
    50   27   31 1   
    51   28   29 1   
    52   28   56 1   
    53   29   57 1   
    54   30   58 1   
    55   31   32 1   
    56   31   33 1   
@<TRIPOS>SUBSTRUCTURE
     1 1RG         1 TEMP              0 ****  ****    0 ROOT
