@<TRIPOS>MOLECULE
1RG
   58    60     1     0     0
SMALL
bcc


@<TRIPOS>ATOM
      1 C          -3.4280   -0.8920    1.0560 c         1 1RG      0.665100
      2 N          -1.8110   -2.4160   -0.1130 n3        1 1RG     -0.811200
      3 O          -4.2110   -0.9970    2.0190 o         1 1RG     -0.608100
      4 CA         -2.0880   -1.6620    1.1160 c3        1 1RG      0.083500
      5 CB         -0.9060   -0.7040    1.3890 c3        1 1RG     -0.076400
      6 CD         -0.4850   -2.0360   -0.5980 c3        1 1RG      0.152800
      7 CG          0.2140   -1.1770    0.4710 c3        1 1RG     -0.050600
      8 CAB         5.9220    1.5160    0.2640 c3        1 1RG     -0.234700
      9 CAD         4.8130    0.7770    1.0210 c3        1 1RG      0.172500
     10 CAE         7.2960    1.4000    0.9440 c3        1 1RG      0.149100
     11 CAF         7.3940    2.3230    2.1480 c3        1 1RG     -0.129100
     12 OAG         7.6410    0.0740    1.2990 oh        1 1RG     -0.599800
     13 CAH         3.3600    1.2770    0.7070 c3        1 1RG     -0.010500
     14 CAI         2.6650    0.0230    0.2120 c2        1 1RG     -0.191600
     15 NAJ         4.7770   -0.6830    0.8470 nh        1 1RG     -0.712000
     16 SAK         1.0740    0.1700   -0.2880 ss        1 1RG     -0.204700
     17 CAL         3.5370   -1.0320    0.2530 ce        1 1RG      0.072800
     18 CAM         3.3950   -2.4660   -0.2700 c         1 1RG      0.929800
     19 OAT         2.4260   -3.1650    0.1230 o         1 1RG     -0.813300
     20 OAU         4.3010   -2.8420   -1.0630 o         1 1RG     -0.813300
     21 NAX        -3.6520   -0.1000   -0.0490 n         1 1RG     -0.447100
     22 CAY        -4.8390    0.5910   -0.3740 ca        1 1RG      0.030600
     23 CAZ        -5.7830    1.0060    0.5890 ca        1 1RG     -0.115000
     24 CBA        -6.9140    1.7300    0.2030 ca        1 1RG     -0.108600
     25 CBB        -7.1170    2.0390   -1.1460 ca        1 1RG     -0.134000
     26 CBC        -6.1930    1.6340   -2.1030 ca        1 1RG     -0.148000
     27 CBD        -5.0610    0.9150   -1.7340 ca        1 1RG     -0.203000
     28 CBE        -7.9330    2.2030    1.2300 c         1 1RG      0.907200
     29 OBF        -9.0380    2.6480    0.8000 o         1 1RG     -0.836800
     30 OBG        -7.6340    2.1430    2.4550 o         1 1RG     -0.836800
     31 HN         -1.8470   -3.3980    0.0820 hn        1 1RG      0.353800
     32 HA         -2.2020   -2.3610    1.9970 h1        1 1RG      0.060700
     33 HB         -1.1850    0.3560    1.1660 hc        1 1RG      0.058200
     34 HBA        -0.6040   -0.7620    2.4620 hc        1 1RG      0.058200
     35 HD          0.1560   -2.9290   -0.8400 h1        1 1RG      0.070200
     36 HDA        -0.6320   -1.4360   -1.5390 h1        1 1RG      0.070200
     37 HG          0.9540   -1.8200    1.0230 h1        1 1RG      0.132700
     38 HAB         5.6610    2.6150    0.2740 hc        1 1RG      0.081700
     39 HAD         5.0040    0.9530    2.1220 h1        1 1RG      0.039700
     40 HAE         8.0890    1.6830    0.1880 h1        1 1RG      0.081700
     41 HAF         8.3920    2.2000    2.6320 hc        1 1RG      0.039033
     42 HAFA        7.2760    3.3850    1.8280 hc        1 1RG      0.039033
     43 HAFB        6.6060    2.0850    2.9010 hc        1 1RG      0.039033
     44 HOAG        7.0390   -0.2130    1.9980 ho        1 1RG      0.412000
     45 HAH         2.8980    1.5950    1.6820 hc        1 1RG      0.052700
     46 HNAJ        5.5680   -1.0820    0.3810 hn        1 1RG      0.408800
     47 HNAX       -2.9990   -0.1880   -0.7980 hn        1 1RG      0.318500
     48 HAZ        -5.6520    0.7690    1.6600 ha        1 1RG      0.182000
     49 HBB        -8.0230    2.6020   -1.4230 ha        1 1RG      0.145000
     50 HBC        -6.3530    1.8790   -3.1630 ha        1 1RG      0.098000
     51 HBD        -4.3430    0.6060   -2.5070 ha        1 1RG      0.106000
     52 CAA         6.0320    1.1130   -1.1880 c         1 1RG      0.582900
     53 OAC         6.8270    1.6730   -1.9490 o         1 1RG     -0.567100
     54 HAA         5.3510    0.3080   -1.5440 h4        1 1RG      0.048200
     55 CAS         3.2410    2.4170   -0.2700 c3        1 1RG     -0.087100
     56 HAS         3.7880    2.2000   -1.2200 hc        1 1RG      0.033033
     57 HASA        2.1610    2.5740   -0.5190 hc        1 1RG      0.033033
     58 HASB        3.6430    3.3640    0.1670 hc        1 1RG      0.033033
@<TRIPOS>BOND
     1    1    3 2   
     2    1    4 1   
     3    1   21 1   
     4    2    4 1   
     5    2    6 1   
     6    2   31 1   
     7    4    5 1   
     8    4   32 1   
     9    5    7 1   
    10    5   33 1   
    11    5   34 1   
    12    6    7 1   
    13    6   35 1   
    14    6   36 1   
    15    7   16 1   
    16    7   37 1   
    17    8    9 1   
    18    8   10 1   
    19    8   38 1   
    20    8   52 1   
    21    9   13 1   
    22    9   15 1   
    23    9   39 1   
    24   10   11 1   
    25   10   12 1   
    26   10   40 1   
    27   11   41 1   
    28   11   42 1   
    29   11   43 1   
    30   12   44 1   
    31   13   14 1   
    32   13   45 1   
    33   13   55 1   
    34   14   16 1   
    35   14   17 2   
    36   15   17 1   
    37   15   46 1   
    38   17   18 1   
    39   18   19 1   
    40   18   20 1   
    41   21   22 1   
    42   21   47 1   
    43   22   23 ar  
    44   22   27 ar  
    45   23   24 ar  
    46   23   48 1   
    47   24   25 ar  
    48   24   28 1   
    49   25   26 ar  
    50   25   49 1   
    51   26   27 ar  
    52   26   50 1   
    53   27   51 1   
    54   28   29 1   
    55   28   30 1   
    56   52   53 2   
    57   52   54 1   
    58   55   56 1   
    59   55   57 1   
    60   55   58 1   
@<TRIPOS>SUBSTRUCTURE
     1 1RG         1 TEMP              0 ****  ****    0 ROOT
