@<TRIPOS>MOLECULE
1RG
   58    52     1     0     0
SMALL
bcc


@<TRIPOS>ATOM
      1 C           0.6600    0.4900    1.0470 c2        1 1RG      0.326000
      2 N           2.9340    0.4150    0.1180 n2        1 1RG     -0.229000
      3 O          -0.0790    1.1690    1.7820 o         1 1RG     -0.341000
      4 CA          2.1530    0.7530    1.0680 c2        1 1RG     -0.086000
      5 CB          0.4320    3.5030    4.3020 c3        1 1RG     -0.280000
      6 CD          3.9130    2.8260    3.4010 c1        1 1RG     -0.268000
      7 CG          5.1000    2.6940    3.2170 c1        1 1RG     -0.448000
      8 CAB        12.7860    0.5860    5.7330 c1        1 1RG     -0.618000
      9 CAD         8.5360    3.8780   -0.9710 c3        1 1RG     -0.112000
     10 CAE        11.8750    1.0080    4.8570 c2        1 1RG      0.395000
     11 CAF        11.0670    0.0850    4.0190 c3        1 1RG     -0.266000
     12 OAG        11.6680    2.3340    4.7130 oh        1 1RG     -0.254000
     13 CAH         5.9430    2.8980    0.5470 c2        1 1RG     -0.092000
     14 CAI         7.0410    2.6870    1.4710 c2        1 1RG     -0.346000
     15 NAJ         8.8560    2.7050   -0.2030 n3        1 1RG     -0.257000
     16 SAK         6.6860    2.4950    3.1340 ss        1 1RG      0.668000
     17 CAL         8.3570    2.6270    1.1130 c2        1 1RG     -0.040000
     18 CAM         9.3710    2.3780    2.2160 c2        1 1RG      0.329000
     19 OAT         8.9380    2.2130    3.4060 o         1 1RG     -0.550500
     20 OAU        10.6120    2.3490    1.9710 o         1 1RG     -0.550500
     21 NAX         0.1910   -0.5290    0.2330 n         1 1RG     -0.231000
     22 CAY        -1.1150   -0.8350    0.0870 c1        1 1RG     -0.130000
     23 CAZ        -6.2800   -4.2260   -2.7670 c2        1 1RG     -0.234000
     24 CBA        -7.0640   -3.4870   -1.9740 c2        1 1RG     -0.074000
     25 CBB        -6.5530   -2.5120   -1.0260 c2        1 1RG     -0.390000
     26 CBC        -5.3450   -2.1320   -0.7230 c1        1 1RG      0.035000
     27 CBD        -2.2710   -1.1290   -0.0490 c1        1 1RG     -0.184000
     28 CBE        -8.5860   -3.6130   -2.0060 c2        1 1RG      0.354000
     29 OBF        -9.2510   -2.8760   -1.2200 o         1 1RG     -0.565500
     30 OBG        -9.1020   -4.4400   -2.8080 o         1 1RG     -0.565500
     31 HN          2.8760    2.9610    3.5810 ha        1 1RG      0.211000
     32 HA          2.4410    1.3000    1.9970 h4        1 1RG      0.145000
     33 HB         -0.5700    3.8010    4.6790 hc        1 1RG      0.070250
     34 HBA         0.9590    4.3990    3.9050 hc        1 1RG      0.070250
     35 HD          3.8970    0.6720    0.2250 hn        1 1RG      0.178000
     36 HDA         0.3120    2.7500    3.4900 hc        1 1RG      0.070250
     37 HG          1.0250    3.0640    5.1340 hc        1 1RG      0.070250
     38 HAB         7.4220    3.9920   -1.0490 h1        1 1RG      0.064000
     39 HAD         8.9560    4.8270   -0.5380 h1        1 1RG      0.064000
     40 HAE         8.9580    3.7440   -2.0020 h1        1 1RG      0.064000
     41 HAF         9.9760    0.2740    4.2080 hc        1 1RG      0.125667
     42 HAFA       11.2500    0.3200    2.9360 hc        1 1RG      0.125667
     43 HAFB       11.3160   -0.9790    4.2310 hc        1 1RG      0.125667
     44 HOAG       10.9810    2.4910    4.0190 ho        1 1RG      0.301000
     45 HAH         5.1710    5.2530   -1.7460 ha        1 1RG      0.000000
     46 HNAJ        9.8540    2.5520   -0.1850 hn        1 1RG      0.194000
     47 HNAX        0.8200   -0.9850   -0.3930 hn        1 1RG      0.256000
     48 HAZ        -6.7280   -4.9470   -3.4650 ha        1 1RG      0.103500
     49 HBB        -7.4130   -2.0240   -0.4770 ha        1 1RG      0.245000
     50 HBC        -3.2980   -1.4060   -0.1880 ha        1 1RG      0.282000
     51 HBD        -5.1860   -4.1620   -2.7720 ha        1 1RG      0.103500
     52 CAA        13.6520    0.2480    6.5690 c1        1 1RG      0.339000
     53 OAC        14.4800   -0.1350    7.3610 o         1 1RG     -0.297000
     54 HAA         6.3530    1.3290   -0.8450 ha        1 1RG      0.113000
     55 CAS         5.7030    2.1590   -0.5390 c2        1 1RG     -0.246000
     56 HAS         4.8480    2.3580   -1.1980 ha        1 1RG      0.113000
     57 HASA        5.2610    3.7260    0.8200 ha        1 1RG      0.118000
     58 HASB        5.2650    4.6960   -1.3720 ha        1 1RG      0.000000
@<TRIPOS>BOND
     1    1    3 1   
     2    1    4 1   
     3    1   21 1   
     4    2    4 1   
     5    2   35 1   
     6    4   32 1   
     7    5   33 1   
     8    5   34 1   
     9    5   36 1   
    10    5   37 1   
    11    6    7 1   
    12    6   31 1   
    13    7   16 1   
    14    8   10 1   
    15    8   52 1   
    16    9   15 1   
    17    9   38 1   
    18    9   39 1   
    19    9   40 1   
    20   10   11 1   
    21   10   12 1   
    22   11   41 1   
    23   11   42 1   
    24   11   43 1   
    25   12   44 1   
    26   13   14 1   
    27   13   55 1   
    28   13   57 1   
    29   14   16 1   
    30   14   17 1   
    31   15   17 1   
    32   15   46 1   
    33   17   18 1   
    34   18   19 1   
    35   18   20 1   
    36   21   22 1   
    37   21   47 1   
    38   22   27 1   
    39   23   24 1   
    40   23   48 1   
    41   23   51 1   
    42   24   25 1   
    43   24   28 1   
    44   25   26 1   
    45   25   49 1   
    46   27   50 1   
    47   28   29 1   
    48   28   30 1   
    49   45   58 1   
    50   52   53 1   
    51   54   55 1   
    52   55   56 1   
@<TRIPOS>SUBSTRUCTURE
     1 1RG         1 TEMP              0 ****  ****    0 ROOT
