@<TRIPOS>MOLECULE
1RH
   77    81     1     0     0
SMALL
bcc


@<TRIPOS>ATOM
      1 C28         0.3240    0.1180   -0.6240 c3        1 1RH      0.114700
      2 O27         1.7080    0.4510   -0.5000 os        1 1RH     -0.360900
      3 C26         2.3340    0.0360    0.6610 ca        1 1RH      0.155100
      4 C25         1.6110   -0.4620    1.7770 ca        1 1RH     -0.202000
      5 C24         2.2960   -0.8850    2.8860 ca        1 1RH     -0.049000
      6 C23         3.7120   -0.7910    2.9500 ca        1 1RH     -0.085000
      7 C37         4.4090   -1.2620    4.0970 ca        1 1RH     -0.104000
      8 C38         5.7790   -1.1840    4.1660 ca        1 1RH     -0.126000
      9 C39         6.5030   -0.6150    3.0930 ca        1 1RH     -0.084000
     10 C40         5.8510   -0.1560    1.9730 ca        1 1RH     -0.162000
     11 C22         4.4370   -0.2530    1.8520 ca        1 1RH      0.006000
     12 C21         3.7260    0.1300    0.6730 ca        1 1RH     -0.187300
     13 C20         4.4410    0.4530   -0.6000 c3        1 1RH      0.154300
     14 N11         4.4060    1.8620   -1.0140 n         1 1RH     -0.291000
     15 C9          3.6860    2.2310   -2.1050 c         1 1RH      0.727500
     16 O10         3.1670    1.4080   -2.9140 o         1 1RH     -0.764500
     17 C7          3.5680    3.7320   -2.4730 c3        1 1RH      0.026500
     18 C15         2.8520    4.5960   -1.3900 c3        1 1RH      0.091000
     19 N6          2.8330    3.8960   -3.7910 n4        1 1RH     -0.648800
     20 C5          3.2850    2.8940   -4.8100 c         1 1RH      0.540100
     21 O8          4.4800    2.8660   -5.0730 o         1 1RH     -0.399100
     22 C3          2.2550    1.9980   -5.5250 c3        1 1RH      0.097500
     23 C4          0.8660    2.0210   -4.9080 c3        1 1RH     -0.163100
     24 N2          2.8140    0.5970   -5.5900 n4        1 1RH     -0.757000
     25 C1          2.2370   -0.1940   -6.7060 c3        1 1RH      0.075100
     26 C12         5.1810    2.8220   -0.2940 ca        1 1RH     -0.015400
     27 C16         6.5570    2.6040   -0.0970 ca        1 1RH     -0.112000
     28 C18         7.3290    3.5360    0.5940 ca        1 1RH     -0.087000
     29 C17         6.7520    4.7030    1.0880 ca        1 1RH     -0.099000
     30 C19         5.3950    4.9520    0.8920 ca        1 1RH     -0.106000
     31 C13         4.5910    4.0210    0.2120 ca        1 1RH     -0.008400
     32 N14         3.2180    4.2870   -0.0350 n         1 1RH     -0.398000
     33 C29         2.2070    4.1150    0.9250 c         1 1RH      0.694700
     34 O30         1.0270    4.0270    0.5510 o         1 1RH     -0.540100
     35 C31         2.5530    4.1470    2.3780 ca        1 1RH     -0.081600
     36 C32         3.1470    3.0620    3.0250 ca        1 1RH     -0.066500
     37 C33         3.3440    3.0950    4.4070 ca        1 1RH     -0.096500
     38 C34         2.9360    4.2250    5.1350 ca        1 1RH     -0.039400
     39 N41         3.1030    4.2570    6.5900 n4        1 1RH     -0.708000
     40 C35         2.3480    5.3250    4.4870 ca        1 1RH     -0.096500
     41 C36         2.1570    5.2770    3.1080 ca        1 1RH     -0.066500
     42 H1          0.1600   -0.9760   -0.4770 h1        1 1RH      0.055033
     43 H2          0.0830    0.4150   -1.6760 h1        1 1RH      0.055033
     44 H3         -0.2840    0.7160    0.0990 h1        1 1RH      0.055033
     45 H4          0.5140   -0.5340    1.7420 ha        1 1RH      0.162000
     46 H5          1.7530   -1.3200    3.7430 ha        1 1RH      0.160000
     47 H6          3.8290   -1.7140    4.9180 ha        1 1RH      0.153000
     48 H7          6.3250   -1.5730    5.0400 ha        1 1RH      0.164000
     49 H8          7.6020   -0.5560    3.1630 ha        1 1RH      0.156000
     50 H9          6.4400    0.2900    1.1590 ha        1 1RH      0.124000
     51 H10         5.5250    0.1500   -0.5430 h1        1 1RH      0.090200
     52 H11         3.9540   -0.1490   -1.4260 h1        1 1RH      0.090200
     53 H12         4.6200    4.1280   -2.6390 hx        1 1RH      0.151700
     54 H13         1.7290    4.4940   -1.4880 h1        1 1RH      0.094200
     55 H14         3.1390    5.6710   -1.5980 h1        1 1RH      0.094200
     56 H15         1.8240    3.7930   -3.6160 hn        1 1RH      0.482300
     57 H16         2.2010    2.3910   -6.5950 hx        1 1RH      0.158700
     58 H17         0.1810    1.3130   -5.4460 hc        1 1RH      0.104367
     59 H18         0.4130    3.0380   -5.0240 hc        1 1RH      0.104367
     60 H19         0.8890    1.7230   -3.8270 hc        1 1RH      0.104367
     61 H20         2.6230    0.1310   -4.6850 hn        1 1RH      0.484300
     62 H22         2.4770    0.2960   -7.6900 hx        1 1RH      0.126367
     63 H23         1.1230   -0.2780   -6.5860 hx        1 1RH      0.126367
     64 H24         2.6930   -1.2250   -6.6830 hx        1 1RH      0.126367
     65 H25         7.0460    1.6970   -0.4950 ha        1 1RH      0.166000
     66 H26         8.4080    3.3480    0.7380 ha        1 1RH      0.180000
     67 H27         7.3720    5.4430    1.6230 ha        1 1RH      0.176000
     68 H28         4.9560    5.8910    1.2690 ha        1 1RH      0.161000
     69 H29         3.4540    2.1620    2.4580 ha        1 1RH      0.186500
     70 H30         3.8100    2.2240    4.9010 ha        1 1RH      0.176000
     71 H31         2.2080    4.0230    7.0430 hn        1 1RH      0.475133
     72 H32         3.8140    3.5760    6.8840 hn        1 1RH      0.475133
     73 H33         2.0220    6.2220    5.0430 ha        1 1RH      0.176000
     74 H34         1.6710    6.1280    2.5990 ha        1 1RH      0.186500
     75 H62         3.0210    4.8480   -4.1410 hn        1 1RH      0.482300
     76 H221        3.8390    0.6470   -5.7080 hn        1 1RH      0.484300
     77 H413        3.3920    5.1970    6.8910 hn        1 1RH      0.475133
@<TRIPOS>BOND
     1    1    2 1   
     2    1   42 1   
     3    1   43 1   
     4    1   44 1   
     5    2    3 1   
     6    3    4 ar  
     7    3   12 ar  
     8    4    5 ar  
     9    4   45 1   
    10    5    6 ar  
    11    5   46 1   
    12    6    7 ar  
    13    6   11 ar  
    14    7    8 ar  
    15    7   47 1   
    16    8    9 ar  
    17    8   48 1   
    18    9   10 ar  
    19    9   49 1   
    20   10   11 ar  
    21   10   50 1   
    22   11   12 ar  
    23   12   13 1   
    24   13   14 1   
    25   13   51 1   
    26   13   52 1   
    27   14   15 1   
    28   14   26 1   
    29   15   16 2   
    30   15   17 1   
    31   17   18 1   
    32   17   19 1   
    33   17   53 1   
    34   18   32 1   
    35   18   54 1   
    36   18   55 1   
    37   19   20 1   
    38   19   56 1   
    39   19   75 1   
    40   20   21 2   
    41   20   22 1   
    42   22   23 1   
    43   22   24 1   
    44   22   57 1   
    45   23   58 1   
    46   23   59 1   
    47   23   60 1   
    48   24   25 1   
    49   24   61 1   
    50   24   76 1   
    51   25   62 1   
    52   25   63 1   
    53   25   64 1   
    54   26   27 ar  
    55   26   31 ar  
    56   27   28 ar  
    57   27   65 1   
    58   28   29 ar  
    59   28   66 1   
    60   29   30 ar  
    61   29   67 1   
    62   30   31 ar  
    63   30   68 1   
    64   31   32 1   
    65   32   33 1   
    66   33   34 2   
    67   33   35 1   
    68   35   36 ar  
    69   35   41 ar  
    70   36   37 ar  
    71   36   69 1   
    72   37   38 ar  
    73   37   70 1   
    74   38   39 1   
    75   38   40 ar  
    76   39   71 1   
    77   39   72 1   
    78   39   77 1   
    79   40   41 ar  
    80   40   73 1   
    81   41   74 1   
@<TRIPOS>SUBSTRUCTURE
     1 1RH         1 TEMP              0 ****  ****    0 ROOT
