@<TRIPOS>MOLECULE
1RH
   76    80     1     0     0
SMALL
bcc


@<TRIPOS>ATOM
      1 C28         0.9690    0.2390   -0.5590 c3        1 1RH      0.115700
      2 O27         2.3710    0.4980   -0.6000 os        1 1RH     -0.377900
      3 C26         3.0880    0.0340    0.5010 ca        1 1RH      0.141100
      4 C25         2.4360   -0.3420    1.7030 ca        1 1RH     -0.202000
      5 C24         3.1790   -0.8330    2.7450 ca        1 1RH     -0.043000
      6 C23         4.5840   -0.9980    2.6240 ca        1 1RH     -0.068000
      7 C37         5.3280   -1.5690    3.6930 ca        1 1RH     -0.096000
      8 C38         6.6780   -1.7840    3.5700 ca        1 1RH     -0.119000
      9 C39         7.3330   -1.4420    2.3650 ca        1 1RH     -0.084000
     10 C40         6.6370   -0.8750    1.3240 ca        1 1RH     -0.160000
     11 C22         5.2420   -0.6140    1.4220 ca        1 1RH      0.015000
     12 C21         4.4720   -0.0320    0.3660 ca        1 1RH     -0.154300
     13 C20         5.1070    0.4370   -0.9040 c3        1 1RH      0.144300
     14 N11         5.0800    1.9040   -1.1120 n         1 1RH     -0.276000
     15 C9          4.4750    2.3620   -2.2370 c         1 1RH      0.714500
     16 O10         3.9460    1.5450   -3.0550 o         1 1RH     -0.784500
     17 C7          4.4150    3.8350   -2.7120 c3        1 1RH      0.053500
     18 C15         4.4800    4.9170   -1.6020 c3        1 1RH      0.078000
     19 N6          3.1520    4.0700   -3.5230 ny        1 1RH     -0.669800
     20 C5          2.8420    2.9900   -4.5000 c         1 1RH      0.545100
     21 O8          3.6240    2.7970   -5.4230 o         1 1RH     -0.409100
     22 C3          1.5030    2.2310   -4.3970 c3        1 1RH      0.086500
     23 C4          0.6230    2.6460   -3.2310 c3        1 1RH     -0.163100
     24 N2          1.7920    0.7500   -4.3910 ny        1 1RH     -0.755000
     25 C1          0.6660   -0.0550   -4.9130 c3        1 1RH      0.078100
     26 C12         5.6780    2.6980   -0.0850 ca        1 1RH     -0.009400
     27 C16         6.9030    2.2950    0.4830 ca        1 1RH     -0.108000
     28 C18         7.4360    2.9690    1.5800 ca        1 1RH     -0.092000
     29 C17         6.7710    4.0590    2.1340 ca        1 1RH     -0.099000
     30 C19         5.5960    4.5270    1.5510 ca        1 1RH     -0.098000
     31 C13         5.0510    3.8750    0.4320 ca        1 1RH      0.007600
     32 N14         4.0040    4.4730   -0.3210 n         1 1RH     -0.399000
     33 C29         2.6290    4.4580   -0.0490 c         1 1RH      0.754700
     34 O30         1.8750    4.6110   -1.0530 o         1 1RH     -0.726100
     35 C31         2.0830    4.3610    1.3040 ca        1 1RH     -0.260600
     36 C32         2.6740    3.6440    2.3540 ca        1 1RH     -0.013000
     37 C33         2.0980    3.6160    3.6100 ca        1 1RH     -0.238000
     38 C34         0.8870    4.3220    3.8740 ca        1 1RH      0.265600
     39 N41         0.3110    4.2970    5.1080 nv        1 1RH     -0.847200
     40 C35         0.2840    5.0340    2.7940 ca        1 1RH     -0.238000
     41 C36         0.8690    5.0400    1.5460 ca        1 1RH     -0.013000
     42 H1          0.7570   -0.8240   -0.2880 h1        1 1RH      0.044700
     43 H2          0.6290    0.4450   -1.6070 h1        1 1RH      0.044700
     44 H3          0.4680    0.9400    0.1520 h1        1 1RH      0.044700
     45 H4          1.3470   -0.2350    1.8080 ha        1 1RH      0.151000
     46 H5          2.6910   -1.1220    3.6910 ha        1 1RH      0.157000
     47 H6          4.7950   -1.8470    4.6170 ha        1 1RH      0.151000
     48 H7          7.2580   -2.2310    4.3930 ha        1 1RH      0.159000
     49 H8          8.4120   -1.6480    2.2670 ha        1 1RH      0.152000
     50 H9          7.1800   -0.6530    0.3940 ha        1 1RH      0.125000
     51 H10         4.5560   -0.0570   -1.7600 h1        1 1RH      0.086700
     52 H11         6.1860    0.1260   -0.9770 h1        1 1RH      0.086700
     53 H12         5.2910    3.9650   -3.4220 hx        1 1RH      0.144700
     54 H13         3.9050    5.8400   -1.9070 h1        1 1RH      0.107700
     55 H14         5.5690    5.2150   -1.5130 h1        1 1RH      0.107700
     56 H15         3.2890    4.9490   -4.0420 hn        1 1RH      0.494800
     57 H16         0.9600    2.4620   -5.3720 hx        1 1RH      0.146700
     58 H17         1.1260    2.4980   -2.2380 hc        1 1RH      0.103700
     59 H18        -0.3320    2.0580   -3.2290 hc        1 1RH      0.103700
     60 H19         0.3360    3.7250   -3.3330 hc        1 1RH      0.103700
     61 H20         2.6400    0.5760   -4.9560 hn        1 1RH      0.486800
     62 H22         0.9540   -1.1430   -4.8680 hx        1 1RH      0.118033
     63 H23        -0.2500    0.1150   -4.2860 hx        1 1RH      0.118033
     64 H24         0.4520    0.2280   -5.9800 hx        1 1RH      0.118033
     65 H25         7.4550    1.4320    0.0770 ha        1 1RH      0.159000
     66 H26         8.3930    2.6280    2.0100 ha        1 1RH      0.170000
     67 H27         7.1830    4.5710    3.0200 ha        1 1RH      0.172000
     68 H28         5.0950    5.4200    1.9640 ha        1 1RH      0.172000
     69 H29         3.6020    3.0740    2.1880 ha        1 1RH      0.146000
     70 H30         2.5830    3.0430    4.4150 ha        1 1RH      0.153000
     71 H31         0.7750    3.8610    5.8660 hn        1 1RH      0.448300
     72 H32        -0.4940    4.8440    5.2930 hn        1 1RH      0.448300
     73 H33        -0.6550    5.5870    2.9580 ha        1 1RH      0.153000
     74 H34         0.3890    5.5920    0.7190 ha        1 1RH      0.146000
     75 H62         2.3690    4.2050   -2.8430 hn        1 1RH      0.494800
     76 H221        2.0190    0.4720   -3.4170 hn        1 1RH      0.486800
@<TRIPOS>BOND
     1    1    2 1   
     2    1   42 1   
     3    1   43 1   
     4    1   44 1   
     5    2    3 1   
     6    3    4 ar  
     7    3   12 ar  
     8    4    5 ar  
     9    4   45 1   
    10    5    6 ar  
    11    5   46 1   
    12    6    7 ar  
    13    6   11 ar  
    14    7    8 ar  
    15    7   47 1   
    16    8    9 ar  
    17    8   48 1   
    18    9   10 ar  
    19    9   49 1   
    20   10   11 ar  
    21   10   50 1   
    22   11   12 ar  
    23   12   13 1   
    24   13   14 1   
    25   13   51 1   
    26   13   52 1   
    27   14   15 1   
    28   14   26 1   
    29   15   16 2   
    30   15   17 1   
    31   17   18 1   
    32   17   19 1   
    33   17   53 1   
    34   18   32 1   
    35   18   54 1   
    36   18   55 1   
    37   19   20 1   
    38   19   56 1   
    39   19   75 1   
    40   20   21 2   
    41   20   22 1   
    42   22   23 1   
    43   22   24 1   
    44   22   57 1   
    45   23   58 1   
    46   23   59 1   
    47   23   60 1   
    48   24   25 1   
    49   24   61 1   
    50   24   76 1   
    51   25   62 1   
    52   25   63 1   
    53   25   64 1   
    54   26   27 ar  
    55   26   31 ar  
    56   27   28 ar  
    57   27   65 1   
    58   28   29 ar  
    59   28   66 1   
    60   29   30 ar  
    61   29   67 1   
    62   30   31 ar  
    63   30   68 1   
    64   31   32 1   
    65   32   33 1   
    66   33   34 2   
    67   33   35 1   
    68   35   36 ar  
    69   35   41 ar  
    70   36   37 ar  
    71   36   69 1   
    72   37   38 ar  
    73   37   70 1   
    74   38   39 1   
    75   38   40 ar  
    76   39   71 1   
    77   39   72 1   
    78   40   41 ar  
    79   40   73 1   
    80   41   74 1   
@<TRIPOS>SUBSTRUCTURE
     1 1RH         1 TEMP              0 ****  ****    0 ROOT
