@<TRIPOS>MOLECULE
1RH
   74    66     1     0     0
SMALL
bcc


@<TRIPOS>ATOM
      1 C28        -3.4800    1.0970   -2.8160 c3        1 1RH     -0.085000
      2 O27        -2.1130    1.1580   -2.4600 os        1 1RH     -0.215000
      3 C26        -1.6440    0.0090   -1.8000 c2        1 1RH      0.092000
      4 C25        -1.8490   -0.8350   -2.8970 c2        1 1RH     -0.198000
      5 C24        -1.8130   -2.2250   -2.7280 c1        1 1RH     -0.074000
      6 C23        -1.5710   -2.7710   -1.4580 c1        1 1RH     -0.069000
      7 C37        -1.7030   -4.1610   -1.2650 c2        1 1RH     -0.112000
      8 C38        -1.6280   -4.6940    0.0150 c1        1 1RH     -0.133000
      9 C39        -1.4230   -3.8550    1.1090 c1        1 1RH     -0.125000
     10 C40        -1.2920   -2.4810    0.9190 c1        1 1RH     -0.125000
     11 C22        -1.3680   -1.9390   -0.3750 c1        1 1RH      0.012000
     12 C21        -1.4040   -0.5310   -0.5450 c1        1 1RH     -0.117000
     13 C20        -2.3960    0.0040    0.4880 c2        1 1RH      0.001000
     14 N11        -1.7080    1.0260    1.3720 n3        1 1RH     -0.278000
     15 C9         -1.3460    0.7840    2.7530 c1        1 1RH      0.300000
     16 O10        -2.1430    0.7190    3.6650 o         1 1RH     -0.296000
     17 C7          0.1850    0.8370    2.9410 c2        1 1RH     -0.006000
     18 C15         0.6400    2.1340    2.3400 c3        1 1RH     -0.048000
     19 N6          0.7860   -0.3220    2.3300 n3        1 1RH     -0.357000
     20 C5          1.4600   -1.3070    3.1580 c1        1 1RH      0.267000
     21 O8          1.5150   -1.1520    4.3550 o         1 1RH     -0.367000
     22 C3          2.2460   -2.4200    2.5090 c2        1 1RH     -0.014000
     23 C4          1.6670   -3.7550    2.9270 c3        1 1RH     -0.199000
     24 N2          3.6010   -2.3390    2.9200 n3        1 1RH     -0.322000
     25 C1          4.3220   -3.4920    2.4300 c3        1 1RH     -0.117000
     26 C12        -1.6110    2.4500    1.0540 c1        1 1RH      0.043000
     27 C16        -2.5230    3.4830    1.3350 c1        1 1RH     -0.125000
     28 C18        -2.2600    4.7800    0.9040 c1        1 1RH     -0.125000
     29 C17        -1.0910    5.0560    0.1930 c1        1 1RH     -0.125000
     30 C19        -0.1860    4.0330   -0.0880 c1        1 1RH     -0.125000
     31 C13        -0.4490    2.7240    0.3450 c1        1 1RH      0.026000
     32 N14         0.6800    2.0490    0.9300 n         1 1RH     -0.282000
     33 C29         1.8030    1.5060    0.1680 c2        1 1RH      0.367000
     34 O30         2.7950    1.0860    0.7560 o         1 1RH     -0.381000
     35 C31         1.8110    1.6160   -1.3800 c2        1 1RH     -0.169000
     36 C32         1.7320    2.8680   -1.9860 c2        1 1RH     -0.042000
     37 C33         1.6620    2.9690   -3.3720 c1        1 1RH     -0.209000
     38 C34         1.6710    1.8180   -4.1580 c1        1 1RH      0.091000
     39 N41         1.5450    1.9220   -5.5760 n3        1 1RH     -0.339000
     40 C35         1.7500    0.5620   -3.5540 c1        1 1RH     -0.214000
     41 C36         1.8210    0.4610   -2.1640 c1        1 1RH     -0.055000
     42 H1         -3.6480    0.2780   -3.3220 h1        1 1RH      0.087667
     43 H2         -4.0280    1.0980   -2.0050 h1        1 1RH      0.087667
     44 H3         -3.7090    1.8730   -3.3660 h1        1 1RH      0.087667
     45 H4         -1.9370   -0.4550   -3.7950 ha        1 1RH      0.140000
     46 H5         -1.9560   -2.8140   -3.4910 ha        1 1RH      0.136000
     47 H6         -1.8460   -4.7460   -2.0270 ha        1 1RH      0.131000
     48 H7         -1.7190   -5.6540    0.1480 ha        1 1RH      0.133000
     49 H8         -1.3700   -4.2340    2.0160 ha        1 1RH      0.142500
     50 H9         -1.1510   -1.9020    1.6750 ha        1 1RH      0.142500
     51 H10        -3.1550    0.4270    0.0260 h4        1 1RH      0.099500
     52 H11        -2.7240   -0.7400    1.0430 h4        1 1RH      0.099500
     53 H12         0.5090    0.7510    3.8690 h4        1 1RH      0.166000
     54 H13         0.0160    2.8470    2.6020 h1        1 1RH      0.120500
     55 H14         1.5280    2.3480    2.6750 h1        1 1RH      0.120500
     56 H15         0.8410   -0.3800    1.4210 hn        1 1RH      0.235000
     57 H16         2.1940   -2.3330    1.5320 h4        1 1RH      0.111000
     58 H17         1.4550   -4.2850    2.1260 hc        1 1RH      0.089000
     59 H18         0.8450   -3.6060    3.4480 hc        1 1RH      0.089000
     60 H19         2.3220   -4.2410    3.4780 hc        1 1RH      0.089000
     61 H20         3.9740   -1.5800    2.5840 hn        1 1RH      0.195000
     62 H22         5.2780   -3.4150    2.6780 h1        1 1RH      0.069333
     63 H23         3.9430   -4.3080    2.8290 h1        1 1RH      0.069333
     64 H24         4.2410   -3.5370    1.4520 h1        1 1RH      0.069333
     65 H25        -3.3420    3.2900    1.8350 ha        1 1RH      0.142500
     66 H26        -2.8930    5.4980    1.1000 ha        1 1RH      0.142500
     67 H27        -0.9060    5.9730   -0.1110 ha        1 1RH      0.142500
     68 H28         0.6270    4.2260   -0.5840 ha        1 1RH      0.142500
     69 H29         1.7260    3.6860   -1.4300 ha        1 1RH      0.148000
     70 H30         1.6060    3.8520   -3.7960 ha        1 1RH      0.138000
     71 H31         1.1670    2.6670   -5.9470 hn        1 1RH      0.195500
     72 H32         1.7930    1.2180   -6.1110 hn        1 1RH      0.195500
     73 H33         1.7570   -0.2590   -4.1130 ha        1 1RH      0.135000
     74 H34         1.8760   -0.4170   -1.7390 ha        1 1RH      0.161000
@<TRIPOS>BOND
     1    1    2 1   
     2    1   42 1   
     3    1   43 1   
     4    1   44 1   
     5    2    3 1   
     6    3    4 1   
     7    3   12 1   
     8    4    5 1   
     9    4   45 1   
    10    5   46 1   
    11    6    7 1   
    12    6   11 1   
    13    7    8 1   
    14    7   47 1   
    15    8   48 1   
    16    9   10 1   
    17    9   49 1   
    18   10   50 1   
    19   13   14 1   
    20   13   51 1   
    21   13   52 1   
    22   14   15 1   
    23   14   26 1   
    24   15   16 1   
    25   17   18 1   
    26   17   19 1   
    27   17   53 1   
    28   18   32 1   
    29   18   54 1   
    30   18   55 1   
    31   19   20 1   
    32   19   56 1   
    33   20   21 1   
    34   22   23 1   
    35   22   24 1   
    36   22   57 1   
    37   23   58 1   
    38   23   59 1   
    39   23   60 1   
    40   24   25 1   
    41   24   61 1   
    42   25   62 1   
    43   25   63 1   
    44   25   64 1   
    45   26   31 1   
    46   27   28 1   
    47   27   65 1   
    48   28   66 1   
    49   29   30 1   
    50   29   67 1   
    51   30   68 1   
    52   31   32 1   
    53   32   33 1   
    54   33   34 1   
    55   33   35 1   
    56   35   36 1   
    57   35   41 1   
    58   36   37 1   
    59   36   69 1   
    60   37   70 1   
    61   38   39 1   
    62   38   40 1   
    63   39   71 1   
    64   39   72 1   
    65   40   73 1   
    66   41   74 1   
@<TRIPOS>SUBSTRUCTURE
     1 1RH         1 TEMP              0 ****  ****    0 ROOT
