@<TRIPOS>MOLECULE
1RH
   74    78     1     0     0
SMALL
bcc


@<TRIPOS>ATOM
      1 C28         0.0230   -3.6210    2.2120 c3        1 1RH      0.110700
      2 O27         0.0560   -2.9840    0.9400 os        1 1RH     -0.310900
      3 C26         1.2970   -2.8000    0.3660 ca        1 1RH      0.148100
      4 C25         2.5030   -3.1980    1.0020 ca        1 1RH     -0.189000
      5 C24         3.6970   -3.0190    0.3550 ca        1 1RH     -0.078000
      6 C23         3.7460   -2.4230   -0.9320 ca        1 1RH     -0.076000
      7 C37         4.9910   -2.2510   -1.5970 ca        1 1RH     -0.109000
      8 C38         5.0500   -1.6640   -2.8360 ca        1 1RH     -0.141000
      9 C39         3.8610   -1.2140   -3.4550 ca        1 1RH     -0.115000
     10 C40         2.6460   -1.3720   -2.8350 ca        1 1RH     -0.132000
     11 C22         2.5420   -1.9960   -1.5580 ca        1 1RH      0.013000
     12 C21         1.2970   -2.2120   -0.8990 ca        1 1RH     -0.149300
     13 C20        -0.0230   -1.9270   -1.5610 c3        1 1RH      0.154300
     14 N11        -0.7580   -0.7810   -1.0620 n         1 1RH     -0.376000
     15 C9         -1.9480   -0.9590   -0.3630 c         1 1RH      0.693500
     16 O10        -2.4540   -2.0880   -0.2210 o         1 1RH     -0.635500
     17 C7         -2.6320    0.3080    0.2050 c3        1 1RH      0.021700
     18 C15        -1.8090    0.7790    1.4340 c3        1 1RH      0.094000
     19 N6         -4.0030    0.0570    0.5710 n         1 1RH     -0.543900
     20 C5         -5.0530    0.7100   -0.0460 c         1 1RH      0.665100
     21 O8         -4.8710    1.6760   -0.8120 o         1 1RH     -0.607100
     22 C3         -6.4790    0.2000    0.2710 c3        1 1RH      0.117500
     23 C4         -6.9510   -0.5440   -0.9790 c3        1 1RH     -0.134100
     24 N2         -7.2960    1.3160    0.7200 n3        1 1RH     -0.819200
     25 C1         -8.6780    0.9940    0.9440 c3        1 1RH      0.154100
     26 C12        -0.2430    0.5240   -1.2700 ca        1 1RH      0.042600
     27 C16         0.0730    0.9520   -2.5750 ca        1 1RH     -0.137000
     28 C18         0.5680    2.2300   -2.8110 ca        1 1RH     -0.120000
     29 C17         0.7400    3.1210   -1.7550 ca        1 1RH     -0.123000
     30 C19         0.4120    2.7370   -0.4590 ca        1 1RH     -0.119000
     31 C13        -0.0720    1.4420   -0.1850 ca        1 1RH      0.032600
     32 N14        -0.4190    1.0690    1.1360 n         1 1RH     -0.393000
     33 C29         0.4530    1.2140    2.2200 c         1 1RH      0.690700
     34 O30         0.0070    1.0390    3.3730 o         1 1RH     -0.601100
     35 C31         1.8770    1.5630    1.9950 ca        1 1RH     -0.189600
     36 C32         2.6630    0.9330    1.0260 ca        1 1RH     -0.045500
     37 C33         4.0060    1.2570    0.8880 ca        1 1RH     -0.207500
     38 C34         4.6000    2.2380    1.7200 ca        1 1RH      0.168600
     39 N41         5.9190    2.6390    1.5200 nh        1 1RH     -0.827200
     40 C35         3.7980    2.8550    2.7120 ca        1 1RH     -0.207500
     41 C36         2.4600    2.5140    2.8430 ca        1 1RH     -0.045500
     42 H1          0.4600   -4.6470    2.1540 h1        1 1RH      0.048367
     43 H2          0.5570   -3.0050    2.9760 h1        1 1RH      0.048367
     44 H3         -1.0730   -3.6700    2.4400 h1        1 1RH      0.048367
     45 H4          2.4760   -3.6510    2.0030 ha        1 1RH      0.144000
     46 H5          4.6400   -3.3350    0.8280 ha        1 1RH      0.135000
     47 H6          5.9060   -2.6030   -1.0960 ha        1 1RH      0.130000
     48 H7          6.0100   -1.5350   -3.3560 ha        1 1RH      0.133000
     49 H8          3.9230   -0.7320   -4.4420 ha        1 1RH      0.132000
     50 H9          1.7380   -0.9910   -3.3270 ha        1 1RH      0.134000
     51 H10         0.1180   -1.7970   -2.6710 h1        1 1RH      0.074200
     52 H11        -0.6780   -2.8390   -1.4040 h1        1 1RH      0.074200
     53 H12        -2.6270    1.1230   -0.5850 h1        1 1RH      0.117700
     54 H13        -2.2940    1.7070    1.8550 h1        1 1RH      0.071700
     55 H14        -1.8320   -0.0170    2.2340 h1        1 1RH      0.071700
     56 H15        -4.1770   -0.8020    1.0420 hn        1 1RH      0.326500
     57 H16        -6.4560   -0.5360    1.1290 h1        1 1RH      0.068700
     58 H17        -6.9930    0.1450   -1.8570 hc        1 1RH      0.050700
     59 H18        -6.2430   -1.3760   -1.2100 hc        1 1RH      0.050700
     60 H19        -7.9660   -0.9780   -0.8100 hc        1 1RH      0.050700
     61 H20        -7.1990    2.0930    0.0900 hn        1 1RH      0.380800
     62 H22        -8.7520    0.1350    1.6620 h1        1 1RH      0.032033
     63 H23        -9.1710    1.8920    1.4040 h1        1 1RH      0.032033
     64 H24        -9.2430    0.7190    0.0110 h1        1 1RH      0.032033
     65 H25        -0.0820    0.2720   -3.4280 ha        1 1RH      0.139000
     66 H26         0.8130    2.5380   -3.8380 ha        1 1RH      0.137000
     67 H27         1.1280    4.1330   -1.9420 ha        1 1RH      0.140000
     68 H28         0.5480    3.4530    0.3680 ha        1 1RH      0.148000
     69 H29         2.2210    0.1660    0.3670 ha        1 1RH      0.150500
     70 H30         4.6050    0.7500    0.1170 ha        1 1RH      0.138000
     71 H31         6.4940    1.9810    1.0440 hn        1 1RH      0.397300
     72 H32         6.3550    3.0690    2.3040 hn        1 1RH      0.397300
     73 H33         4.2320    3.6110    3.3820 ha        1 1RH      0.138000
     74 H34         1.8460    2.9840    3.6290 ha        1 1RH      0.150500
@<TRIPOS>BOND
     1    1    2 1   
     2    1   42 1   
     3    1   43 1   
     4    1   44 1   
     5    2    3 1   
     6    3    4 ar  
     7    3   12 ar  
     8    4    5 ar  
     9    4   45 1   
    10    5    6 ar  
    11    5   46 1   
    12    6    7 ar  
    13    6   11 ar  
    14    7    8 ar  
    15    7   47 1   
    16    8    9 ar  
    17    8   48 1   
    18    9   10 ar  
    19    9   49 1   
    20   10   11 ar  
    21   10   50 1   
    22   11   12 ar  
    23   12   13 1   
    24   13   14 1   
    25   13   51 1   
    26   13   52 1   
    27   14   15 1   
    28   14   26 1   
    29   15   16 2   
    30   15   17 1   
    31   17   18 1   
    32   17   19 1   
    33   17   53 1   
    34   18   32 1   
    35   18   54 1   
    36   18   55 1   
    37   19   20 1   
    38   19   56 1   
    39   20   21 2   
    40   20   22 1   
    41   22   23 1   
    42   22   24 1   
    43   22   57 1   
    44   23   58 1   
    45   23   59 1   
    46   23   60 1   
    47   24   25 1   
    48   24   61 1   
    49   25   62 1   
    50   25   63 1   
    51   25   64 1   
    52   26   27 ar  
    53   26   31 ar  
    54   27   28 ar  
    55   27   65 1   
    56   28   29 ar  
    57   28   66 1   
    58   29   30 ar  
    59   29   67 1   
    60   30   31 ar  
    61   30   68 1   
    62   31   32 1   
    63   32   33 1   
    64   33   34 2   
    65   33   35 1   
    66   35   36 ar  
    67   35   41 ar  
    68   36   37 ar  
    69   36   69 1   
    70   37   38 ar  
    71   37   70 1   
    72   38   39 1   
    73   38   40 ar  
    74   39   71 1   
    75   39   72 1   
    76   40   41 ar  
    77   40   73 1   
    78   41   74 1   
@<TRIPOS>SUBSTRUCTURE
     1 1RH         1 TEMP              0 ****  ****    0 ROOT
