@<TRIPOS>MOLECULE
1RH
   76    80     1     0     0
SMALL
bcc


@<TRIPOS>ATOM
      1 C28         1.0060    0.9780    0.4440 c3        1 1RH      0.109700
      2 O27         2.3410    0.7460   -0.0060 os        1 1RH     -0.373900
      3 C26         3.1870    0.1220    0.9010 ca        1 1RH      0.151100
      4 C25         2.7360   -0.3270    2.1690 ca        1 1RH     -0.206000
      5 C24         3.6080   -0.9840    2.9980 ca        1 1RH     -0.040000
      6 C23         4.9460   -1.2400    2.5960 ca        1 1RH     -0.071000
      7 C37         5.8190   -1.9630    3.4550 ca        1 1RH     -0.092000
      8 C38         7.1030   -2.2530    3.0640 ca        1 1RH     -0.123000
      9 C39         7.5580   -1.8350    1.7920 ca        1 1RH     -0.081000
     10 C40         6.7340   -1.1260    0.9500 ca        1 1RH     -0.168000
     11 C22         5.4030   -0.7900    1.3270 ca        1 1RH      0.018000
     12 C21         4.5060   -0.0570    0.4890 ca        1 1RH     -0.168300
     13 C20         4.9180    0.4260   -0.8620 c3        1 1RH      0.148300
     14 N11         4.8960    1.8970   -1.0530 n         1 1RH     -0.265000
     15 C9          4.3920    2.3400   -2.2320 c         1 1RH      0.701500
     16 O10         3.9620    1.5080   -3.0970 o         1 1RH     -0.795500
     17 C7          4.2980    3.8080   -2.7140 c3        1 1RH      0.055500
     18 C15         4.3880    4.9060   -1.6290 c3        1 1RH      0.079000
     19 N6          3.0000    3.9900   -3.4840 n4        1 1RH     -0.662800
     20 C5          2.8180    2.9660   -4.5450 c         1 1RH      0.547100
     21 O8          3.6090    2.9640   -5.4820 o         1 1RH     -0.423100
     22 C3          1.6120    2.0080   -4.4890 c3        1 1RH      0.095500
     23 C4          0.9110    1.9640   -3.1410 c3        1 1RH     -0.165100
     24 N2          2.0850    0.6370   -4.9150 n4        1 1RH     -0.756000
     25 C1          0.9970   -0.1900   -5.4830 c3        1 1RH      0.077100
     26 C12         5.4320    2.6860    0.0100 ca        1 1RH     -0.008400
     27 C16         6.5820    2.2320    0.6880 ca        1 1RH     -0.106000
     28 C18         7.0640    2.9030    1.8090 ca        1 1RH     -0.093000
     29 C17         6.4160    4.0400    2.2860 ca        1 1RH     -0.098000
     30 C19         5.3110    4.5460    1.6070 ca        1 1RH     -0.102000
     31 C13         4.8200    3.8960    0.4620 ca        1 1RH      0.010600
     32 N14         3.8410    4.5120   -0.3610 n         1 1RH     -0.404000
     33 C29         2.4680    4.6480   -0.1170 c         1 1RH      0.751700
     34 O30         1.7570    4.8610   -1.1390 o         1 1RH     -0.718100
     35 C31         1.8890    4.6150    1.2270 ca        1 1RH     -0.263600
     36 C32         2.3480    3.7940    2.2670 ca        1 1RH     -0.017000
     37 C33         1.7500    3.8210    3.5120 ca        1 1RH     -0.238000
     38 C34         0.6520    4.6940    3.7740 ca        1 1RH      0.264600
     39 N41         0.0560    4.7280    4.9980 nh        1 1RH     -0.848200
     40 C35         0.1800    5.5110    2.7030 ca        1 1RH     -0.238000
     41 C36         0.7830    5.4590    1.4640 ca        1 1RH     -0.017000
     42 H1          1.0060    1.6610    1.3300 h1        1 1RH      0.052700
     43 H2          0.4930    0.0140    0.6780 h1        1 1RH      0.052700
     44 H3          0.5170    1.4770   -0.4320 h1        1 1RH      0.052700
     45 H4          1.6970   -0.1570    2.4880 ha        1 1RH      0.152000
     46 H5          3.2760   -1.3370    3.9890 ha        1 1RH      0.157000
     47 H6          5.4410   -2.2920    4.4360 ha        1 1RH      0.152000
     48 H7          7.7820   -2.8170    3.7230 ha        1 1RH      0.159000
     49 H8          8.5830   -2.0930    1.4810 ha        1 1RH      0.151000
     50 H9          7.1220   -0.8430   -0.0390 ha        1 1RH      0.125000
     51 H10         5.9550    0.0890   -1.1400 h1        1 1RH      0.081200
     52 H11         4.1970   -0.0330   -1.6050 h1        1 1RH      0.081200
     53 H12         5.1440    3.9470   -3.4580 hx        1 1RH      0.145700
     54 H13         5.4900    5.1400   -1.5060 h1        1 1RH      0.109700
     55 H14         3.8800    5.8530   -1.9780 h1        1 1RH      0.109700
     56 H15         3.0330    4.9240   -3.9200 hn        1 1RH      0.495800
     57 H16         0.8860    2.3780   -5.2840 hx        1 1RH      0.144700
     58 H17         0.0780    1.2140   -3.1520 hc        1 1RH      0.104367
     59 H18         1.6210    1.6860   -2.3160 hc        1 1RH      0.104367
     60 H19         0.4420    2.9570   -2.9140 hc        1 1RH      0.104367
     61 H20         2.8390    0.7440   -5.6120 hn        1 1RH      0.484800
     62 H22         0.5890    0.2970   -6.4110 hx        1 1RH      0.119367
     63 H23         1.4180   -1.2010   -5.7480 hx        1 1RH      0.119367
     64 H24         0.1740   -0.3160   -4.7290 hx        1 1RH      0.119367
     65 H25         7.1060    1.3200    0.3530 ha        1 1RH      0.163000
     66 H26         7.9630    2.5220    2.3210 ha        1 1RH      0.170000
     67 H27         6.7870    4.5540    3.1890 ha        1 1RH      0.171000
     68 H28         4.8210    5.4670    1.9670 ha        1 1RH      0.171000
     69 H29         3.1880    3.1000    2.0970 ha        1 1RH      0.147000
     70 H30         2.1300    3.1670    4.3100 ha        1 1RH      0.154000
     71 H31        -0.6700    5.3770    5.1810 hn        1 1RH      0.448800
     72 H32         0.4310    4.2060    5.7510 hn        1 1RH      0.448800
     73 H33        -0.6700    6.1910    2.8650 ha        1 1RH      0.154000
     74 H34         0.4050    6.0900    0.6420 ha        1 1RH      0.147000
     75 H62         2.2170    3.9840   -2.7930 hn        1 1RH      0.495800
     76 H221        2.4970    0.1730   -4.0840 hn        1 1RH      0.484800
@<TRIPOS>BOND
     1    1    2 1   
     2    1   42 1   
     3    1   43 1   
     4    1   44 1   
     5    2    3 1   
     6    3    4 ar  
     7    3   12 ar  
     8    4    5 ar  
     9    4   45 1   
    10    5    6 ar  
    11    5   46 1   
    12    6    7 ar  
    13    6   11 ar  
    14    7    8 ar  
    15    7   47 1   
    16    8    9 ar  
    17    8   48 1   
    18    9   10 ar  
    19    9   49 1   
    20   10   11 ar  
    21   10   50 1   
    22   11   12 ar  
    23   12   13 1   
    24   13   14 1   
    25   13   51 1   
    26   13   52 1   
    27   14   15 1   
    28   14   26 1   
    29   15   16 2   
    30   15   17 1   
    31   17   18 1   
    32   17   19 1   
    33   17   53 1   
    34   18   32 1   
    35   18   54 1   
    36   18   55 1   
    37   19   20 1   
    38   19   56 1   
    39   19   75 1   
    40   20   21 2   
    41   20   22 1   
    42   22   23 1   
    43   22   24 1   
    44   22   57 1   
    45   23   58 1   
    46   23   59 1   
    47   23   60 1   
    48   24   25 1   
    49   24   61 1   
    50   24   76 1   
    51   25   62 1   
    52   25   63 1   
    53   25   64 1   
    54   26   27 ar  
    55   26   31 ar  
    56   27   28 ar  
    57   27   65 1   
    58   28   29 ar  
    59   28   66 1   
    60   29   30 ar  
    61   29   67 1   
    62   30   31 ar  
    63   30   68 1   
    64   31   32 1   
    65   32   33 1   
    66   33   34 2   
    67   33   35 1   
    68   35   36 ar  
    69   35   41 ar  
    70   36   37 ar  
    71   36   69 1   
    72   37   38 ar  
    73   37   70 1   
    74   38   39 1   
    75   38   40 ar  
    76   39   71 1   
    77   39   72 1   
    78   40   41 ar  
    79   40   73 1   
    80   41   74 1   
@<TRIPOS>SUBSTRUCTURE
     1 1RH         1 TEMP              0 ****  ****    0 ROOT
