@<TRIPOS>MOLECULE
1RK
   72    66     1     0     0
SMALL
bcc


@<TRIPOS>ATOM
      1 C29        -2.9470   -2.5080   -3.6740 c3        1 1RK     -0.070000
      2 O28        -1.5690   -2.2060   -3.4810 os        1 1RK     -0.223000
      3 C27        -1.0530   -2.6360   -2.2230 c2        1 1RK      0.051000
      4 C30        -1.2210   -4.0030   -2.4600 c2        1 1RK     -0.208000
      5 C31        -0.8610   -4.9310   -1.4790 c1        1 1RK     -0.079000
      6 C32        -0.3270   -4.4870   -0.2460 c1        1 1RK     -0.038500
      7 C34         0.0050   -5.4240    0.7590 c1        1 1RK     -0.137000
      8 C35         0.4990   -4.9840    1.9870 c1        1 1RK     -0.106000
      9 C38         1.1530   -5.9500    2.9710 c2        1 1RK      0.360000
     10 O40         2.2560   -6.4940    2.6840 o         1 1RK     -0.563500
     11 O39         0.6000   -6.1920    4.0810 o         1 1RK     -0.563500
     12 C36         0.6660   -3.6180    2.2240 c1        1 1RK     -0.073000
     13 C37         0.3390   -2.6920    1.2320 c1        1 1RK     -0.137000
     14 C33        -0.1610   -3.1370   -0.0120 c1        1 1RK     -0.038500
     15 C15        -0.5260   -2.1960   -1.0070 c1        1 1RK     -0.118000
     16 C14        -1.1120   -0.7720   -0.9390 c2        1 1RK      0.022000
     17 N13        -0.0540    0.2060   -1.2130 n3        1 1RK     -0.270000
     18 C16        -0.2840    1.5850   -1.4900 c1        1 1RK      0.303000
     19 O17        -0.7600    2.0100   -2.5300 o         1 1RK     -0.361000
     20 C12         1.3620   -0.1240   -1.3460 c1        1 1RK      0.058000
     21 C21         1.7150   -1.4540   -1.6640 c1        1 1RK     -0.130750
     22 C19         2.7760   -1.7060   -2.5420 c1        1 1RK     -0.130750
     23 C20         3.4870   -0.6390   -3.1060 c1        1 1RK     -0.130750
     24 C18         3.1400    0.6770   -2.7920 c1        1 1RK     -0.130750
     25 C11         2.0690    0.9340   -1.9050 c1        1 1RK      0.017000
     26 O10         2.4130    1.9230   -0.8970 os        1 1RK     -0.230000
     27 C9          1.4690    1.9240    0.1570 c3        1 1RK      0.084000
     28 C22         2.4410    0.9320    0.6410 c3        1 1RK     -0.198500
     29 C23         3.4450    1.5330    1.6170 c3        1 1RK     -0.028500
     30 O24         4.0870    2.7420    1.0880 os        1 1RK     -0.280000
     31 C25         3.1230    3.7330    0.6050 c3        1 1RK     -0.028500
     32 C26         2.1200    3.1400   -0.3740 c3        1 1RK     -0.198500
     33 C7          0.1180    2.4470   -0.3190 c2        1 1RK     -0.010000
     34 N6         -0.9070    2.3870    0.6920 n3        1 1RK     -0.362000
     35 C5         -1.8400    3.4880    0.8450 c1        1 1RK      0.298000
     36 O8         -1.7540    4.4620    0.1170 o         1 1RK     -0.409000
     37 C3         -3.0280    3.3500    1.7950 c2        1 1RK     -0.020000
     38 C4         -4.1740    4.2040    1.2970 c3        1 1RK     -0.226000
     39 N1         -2.6480    3.7780    3.0920 n3        1 1RK     -0.338000
     40 C2         -3.5930    3.2790    4.0600 c3        1 1RK     -0.106000
     41 H1         -3.2930   -2.9790   -2.8840 h1        1 1RK      0.074667
     42 H2         -3.0500   -3.0790   -4.4680 h1        1 1RK      0.074667
     43 H3         -3.4500   -1.6730   -3.8040 h1        1 1RK      0.074667
     44 H4         -1.5470   -4.3140   -3.3340 ha        1 1RK      0.125000
     45 H5         -0.9810   -5.8920   -1.6450 ha        1 1RK      0.130000
     46 H6         -0.1130   -6.3840    0.5930 ha        1 1RK      0.139500
     47 H8          1.0150   -3.3090    3.0890 ha        1 1RK      0.148000
     48 H9          0.4000   -1.7320    1.4200 ha        1 1RK      0.139500
     49 H10        -1.4810   -0.6120   -0.0440 h4        1 1RK      0.118000
     50 H11        -1.8250   -0.6790   -1.6090 h4        1 1RK      0.118000
     51 H12         1.2580   -2.1960   -1.2270 ha        1 1RK      0.141250
     52 H13         3.0380   -2.6300   -2.7420 ha        1 1RK      0.141250
     53 H14         4.2450   -0.8170   -3.7070 ha        1 1RK      0.141250
     54 H15         3.6530    1.4250   -3.1720 ha        1 1RK      0.141250
     55 H16         1.9550    0.2040    1.0920 hc        1 1RK      0.105000
     56 H17         2.9260    0.5620   -0.1270 hc        1 1RK      0.105000
     57 H18         2.9790    1.7610    2.4520 h1        1 1RK      0.098000
     58 H19         4.1410    0.8620    1.8130 h1        1 1RK      0.098000
     59 H20         3.6130    4.4620    0.1560 h1        1 1RK      0.098000
     60 H21         2.6360    4.1030    1.3740 h1        1 1RK      0.098000
     61 H22         1.4280    3.8130   -0.5680 hc        1 1RK      0.105000
     62 H23         2.5870    2.9130   -1.2090 hc        1 1RK      0.105000
     63 H24         0.1600    3.4140   -0.4890 h4        1 1RK      0.163000
     64 H25        -0.9470    1.6700    1.2620 hn        1 1RK      0.253000
     65 H26        -3.3120    2.4100    1.8310 h4        1 1RK      0.162000
     66 H27        -3.8190    4.9640    0.7860 hc        1 1RK      0.083000
     67 H28        -4.6920    4.5370    2.0640 hc        1 1RK      0.083000
     68 H29        -4.7580    3.6640    0.7180 hc        1 1RK      0.083000
     69 H30        -1.8110    3.4560    3.2870 hn        1 1RK      0.234000
     70 H32        -4.3530    3.8970    4.1250 h1        1 1RK      0.057000
     71 H33        -3.9130    2.3940    3.7790 h1        1 1RK      0.057000
     72 H34        -3.1540    3.2050    4.9390 h1        1 1RK      0.057000
@<TRIPOS>BOND
     1    1    2 1   
     2    1   41 1   
     3    1   42 1   
     4    1   43 1   
     5    2    3 1   
     6    3    4 1   
     7    3   15 1   
     8    4    5 1   
     9    4   44 1   
    10    5   45 1   
    11    6    7 1   
    12    6   14 1   
    13    7   46 1   
    14    8    9 1   
    15    8   12 1   
    16    9   10 1   
    17    9   11 1   
    18   12   47 1   
    19   13   14 1   
    20   13   48 1   
    21   16   17 1   
    22   16   49 1   
    23   16   50 1   
    24   17   18 1   
    25   17   20 1   
    26   18   19 1   
    27   20   25 1   
    28   21   22 1   
    29   21   51 1   
    30   22   52 1   
    31   23   24 1   
    32   23   53 1   
    33   24   54 1   
    34   25   26 1   
    35   26   27 1   
    36   27   28 1   
    37   27   32 1   
    38   27   33 1   
    39   28   29 1   
    40   28   55 1   
    41   28   56 1   
    42   29   30 1   
    43   29   57 1   
    44   29   58 1   
    45   30   31 1   
    46   31   32 1   
    47   31   59 1   
    48   31   60 1   
    49   32   61 1   
    50   32   62 1   
    51   33   34 1   
    52   33   63 1   
    53   34   35 1   
    54   34   64 1   
    55   35   36 1   
    56   37   38 1   
    57   37   39 1   
    58   37   65 1   
    59   38   66 1   
    60   38   67 1   
    61   38   68 1   
    62   39   40 1   
    63   39   69 1   
    64   40   70 1   
    65   40   71 1   
    66   40   72 1   
@<TRIPOS>SUBSTRUCTURE
     1 1RK         1 TEMP              0 ****  ****    0 ROOT
