@<TRIPOS>MOLECULE
1RK
   72    76     1     0     0
SMALL
bcc


@<TRIPOS>ATOM
      1 C29         0.4860   -0.5340    0.0730 c3        1 1RK      0.133700
      2 O28         1.4380    0.4380    0.4940 os        1 1RK     -0.344900
      3 C27         2.0620    0.1410    1.7020 ca        1 1RK      0.105100
      4 C30         1.2700   -0.0150    2.8700 ca        1 1RK     -0.195000
      5 C31         1.8860   -0.1650    4.0850 ca        1 1RK     -0.079000
      6 C32         3.3010   -0.1340    4.1920 ca        1 1RK     -0.064000
      7 C34         3.9290   -0.2390    5.4620 ca        1 1RK     -0.104000
      8 C35         5.2970   -0.1690    5.5880 ca        1 1RK     -0.126600
      9 C38         5.9780   -0.2760    6.9460 c         1 1RK      0.909200
     10 O40         5.2470   -0.4330    7.9630 o         1 1RK     -0.827300
     11 O39         7.2390   -0.2020    6.9760 o         1 1RK     -0.827300
     12 C36         6.0840    0.0130    4.4240 ca        1 1RK     -0.069000
     13 C37         5.5030    0.1060    3.1830 ca        1 1RK     -0.185000
     14 C33         4.0930    0.0230    3.0190 ca        1 1RK     -0.005000
     15 C15         3.4500    0.1140    1.7460 ca        1 1RK     -0.128300
     16 C14         4.2280    0.2560    0.4670 c3        1 1RK      0.150300
     17 N13         4.7000   -0.9770   -0.1530 n         1 1RK     -0.361000
     18 C16         3.8800   -1.6810   -1.0270 c         1 1RK      0.692500
     19 O17         2.7850   -1.2350   -1.4140 o         1 1RK     -0.623500
     20 C12         5.8910   -1.5750    0.3250 ca        1 1RK      0.034600
     21 C21         7.0970   -0.8430    0.3810 ca        1 1RK     -0.141000
     22 C19         8.2660   -1.4370    0.8490 ca        1 1RK     -0.121000
     23 C20         8.2790   -2.7700    1.2540 ca        1 1RK     -0.127000
     24 C18         7.1140   -3.5290    1.1790 ca        1 1RK     -0.119000
     25 C11         5.9310   -2.9390    0.7210 ca        1 1RK      0.069100
     26 O10         4.7680   -3.6900    0.7750 os        1 1RK     -0.324900
     27 C9          4.2460   -4.1280   -0.4960 c3        1 1RK      0.143800
     28 C22         2.7570   -4.4010   -0.2310 c3        1 1RK     -0.118900
     29 C23         2.5840   -5.5670    0.7260 c3        1 1RK      0.129900
     30 O24         3.2290   -6.7400    0.2360 os        1 1RK     -0.422600
     31 C25         4.6270   -6.5530    0.0580 c3        1 1RK      0.129900
     32 C26         4.9410   -5.4260   -0.9130 c3        1 1RK     -0.118900
     33 C7          4.3530   -3.0420   -1.6060 c3        1 1RK      0.010700
     34 N6          5.6260   -2.9470   -2.2640 n         1 1RK     -0.557900
     35 C5          5.8070   -3.2970   -3.5840 c         1 1RK      0.667100
     36 O8          4.8810   -3.7380   -4.2940 o         1 1RK     -0.613100
     37 C3          7.2190   -3.0780   -4.1800 c3        1 1RK      0.113500
     38 C4          7.1060   -1.8750   -5.1170 c3        1 1RK     -0.130100
     39 N1          7.6820   -4.3260   -4.7670 n3        1 1RK     -0.820200
     40 C2          8.9450   -4.2350   -5.4460 c3        1 1RK      0.154100
     41 H1          0.9150   -1.5640    0.1260 h1        1 1RK      0.032700
     42 H2         -0.4390   -0.4630    0.6950 h1        1 1RK      0.032700
     43 H3          0.2790   -0.2590   -0.9910 h1        1 1RK      0.032700
     44 H4          0.1760   -0.0050    2.7770 ha        1 1RK      0.125000
     45 H5          1.2930   -0.2960    5.0030 ha        1 1RK      0.129000
     46 H6          3.3140   -0.3740    6.3680 ha        1 1RK      0.154000
     47 H8          7.1780    0.0770    4.5590 ha        1 1RK      0.156000
     48 H9          6.1380    0.2460    2.2970 ha        1 1RK      0.109000
     49 H10         5.1260    0.9120    0.6490 h1        1 1RK      0.073200
     50 H11         3.5670    0.7640   -0.2990 h1        1 1RK      0.073200
     51 H12         7.1150    0.2150    0.0760 ha        1 1RK      0.142000
     52 H13         9.1870   -0.8370    0.9110 ha        1 1RK      0.137000
     53 H14         9.2030   -3.2210    1.6440 ha        1 1RK      0.139000
     54 H15         7.0960   -4.5800    1.5040 ha        1 1RK      0.148000
     55 H16         2.2620   -4.6380   -1.2070 hc        1 1RK      0.066950
     56 H17         2.2820   -3.4830    0.2020 hc        1 1RK      0.066950
     57 H18         1.5050   -5.8620    0.8090 h1        1 1RK      0.055450
     58 H19         2.9940   -5.3040    1.7380 h1        1 1RK      0.055450
     59 H20         4.9860   -7.5370   -0.3450 h1        1 1RK      0.055450
     60 H21         5.1060   -6.3430    1.0520 h1        1 1RK      0.055450
     61 H22         6.0510   -5.2760   -0.9300 hc        1 1RK      0.066950
     62 H23         4.5990   -5.6980   -1.9440 hc        1 1RK      0.066950
     63 H24         3.5840   -3.3140   -2.4010 h1        1 1RK      0.125700
     64 H25         6.4180   -2.7020   -1.7160 hn        1 1RK      0.325500
     65 H26         7.9620   -2.8190   -3.3670 h1        1 1RK      0.066700
     66 H27         6.7450   -0.9880   -4.5430 hc        1 1RK      0.049700
     67 H28         8.1010   -1.6330   -5.5600 hc        1 1RK      0.049700
     68 H29         6.3810   -2.0850   -5.9400 hc        1 1RK      0.049700
     69 H30         6.9730   -4.7090   -5.3680 hn        1 1RK      0.378800
     70 H32         8.9250   -3.5940   -6.3710 h1        1 1RK      0.030033
     71 H33         9.2540   -5.2730   -5.7420 h1        1 1RK      0.030033
     72 H34         9.7170   -3.8150   -4.7490 h1        1 1RK      0.030033
@<TRIPOS>BOND
     1    1    2 1   
     2    1   41 1   
     3    1   42 1   
     4    1   43 1   
     5    2    3 1   
     6    3    4 ar  
     7    3   15 ar  
     8    4    5 ar  
     9    4   44 1   
    10    5    6 ar  
    11    5   45 1   
    12    6    7 ar  
    13    6   14 ar  
    14    7    8 ar  
    15    7   46 1   
    16    8    9 1   
    17    8   12 ar  
    18    9   10 1   
    19    9   11 1   
    20   12   13 ar  
    21   12   47 1   
    22   13   14 ar  
    23   13   48 1   
    24   14   15 ar  
    25   15   16 1   
    26   16   17 1   
    27   16   49 1   
    28   16   50 1   
    29   17   18 1   
    30   17   20 1   
    31   18   19 2   
    32   18   33 1   
    33   20   21 ar  
    34   20   25 ar  
    35   21   22 ar  
    36   21   51 1   
    37   22   23 ar  
    38   22   52 1   
    39   23   24 ar  
    40   23   53 1   
    41   24   25 ar  
    42   24   54 1   
    43   25   26 1   
    44   26   27 1   
    45   27   28 1   
    46   27   32 1   
    47   27   33 1   
    48   28   29 1   
    49   28   55 1   
    50   28   56 1   
    51   29   30 1   
    52   29   57 1   
    53   29   58 1   
    54   30   31 1   
    55   31   32 1   
    56   31   59 1   
    57   31   60 1   
    58   32   61 1   
    59   32   62 1   
    60   33   34 1   
    61   33   63 1   
    62   34   35 1   
    63   34   64 1   
    64   35   36 2   
    65   35   37 1   
    66   37   38 1   
    67   37   39 1   
    68   37   65 1   
    69   38   66 1   
    70   38   67 1   
    71   38   68 1   
    72   39   40 1   
    73   39   69 1   
    74   40   70 1   
    75   40   71 1   
    76   40   72 1   
@<TRIPOS>SUBSTRUCTURE
     1 1RK         1 TEMP              0 ****  ****    0 ROOT
