@<TRIPOS>MOLECULE
1RK
   74    78     1     0     0
SMALL
bcc


@<TRIPOS>ATOM
      1 C29         0.0000    0.0000    0.0000 c3        1 1RK      0.242700
      2 O28         1.4290    0.0000    0.0000 os        1 1RK     -0.306900
      3 C27         2.0460    0.0000    1.2100 ca        1 1RK      0.192100
      4 C30         1.2770   -0.0060    2.3790 ca        1 1RK     -0.231000
      5 C31         1.8670   -0.0050    3.6020 ca        1 1RK      0.012000
      6 C32         3.2710    0.0000    3.7030 ca        1 1RK     -0.096000
      7 C34         3.9040   -0.0000    4.9540 ca        1 1RK     -0.015000
      8 C35         5.2900    0.0060    5.0180 ca        1 1RK     -0.141600
      9 C38         5.9620    0.0060    6.3310 c         1 1RK      0.972200
     10 O40         5.3030    0.0010    7.3510 o         1 1RK     -0.737800
     11 O39         7.3090    0.0100    6.3980 o         1 1RK     -0.737800
     12 C36         6.0580    0.0110    3.8390 ca        1 1RK     -0.006000
     13 C37         5.4620    0.0120    2.6200 ca        1 1RK     -0.211000
     14 C33         4.0580    0.0060    2.5230 ca        1 1RK      0.038000
     15 C15         3.4210    0.0000    1.2720 ca        1 1RK     -0.227300
     16 C14         4.2370    0.0000    0.0060 c3        1 1RK      0.119300
     17 N13         4.6240   -1.3740   -0.3260 n         1 1RK      0.010000
     18 C16         3.7980   -2.1590   -1.0530 c         1 1RK      0.580500
     19 O17         2.7030   -1.7510   -1.3820 o         1 1RK     -0.547500
     20 C12         5.8570   -1.8860    0.1030 ca        1 1RK     -0.161400
     21 C21         7.0230   -1.1630   -0.0810 ca        1 1RK     -0.132000
     22 C19         8.2290   -1.6820    0.3550 ca        1 1RK     -0.087000
     23 C20         8.2720   -2.9170    0.9730 ca        1 1RK     -0.064000
     24 C18         7.1090   -3.6440    1.1570 ca        1 1RK     -0.098000
     25 C11         5.8980   -3.1330    0.7240 ca        1 1RK      0.065100
     26 O10         4.7510   -3.8410    0.8930 os        1 1RK     -0.261900
     27 C9          4.2020   -4.4800   -0.2560 c3        1 1RK      0.161800
     28 C22         2.7480   -4.8750    0.0270 c3        1 1RK     -0.090400
     29 C23         2.7170   -5.8830    1.1780 c3        1 1RK      0.222900
     30 O24         3.5090   -7.0210    0.8330 os        1 1RK     -0.385600
     31 C25         4.8880   -6.7220    0.6000 c3        1 1RK      0.222900
     32 C26         5.0070   -5.7450   -0.5710 c3        1 1RK     -0.090400
     33 C7          4.2420   -3.5420   -1.4540 c3        1 1RK     -0.141500
     34 N6          5.6090   -3.4740   -1.9740 ny        1 1RK      0.072200
     35 C5          5.8260   -3.1480   -3.2630 c         1 1RK      0.217100
     36 O8          4.8870   -2.9110   -3.9930 o         1 1RK     -0.499100
     37 C3          7.2330   -3.0790   -3.7970 c3        1 1RK     -0.106500
     38 C4          8.0250   -2.0300   -3.0130 c3        1 1RK     -0.036100
     39 N1          7.2010   -2.7070   -5.2170 ny        1 1RK      0.049000
     40 C2          8.4010   -3.1840   -5.9150 c3        1 1RK      0.002100
     41 H1         -0.3610    0.0020   -1.0210 h1        1 1RK      0.001033
     42 H2         -0.3610   -0.8850    0.5090 h1        1 1RK      0.001033
     43 H3         -0.3610    0.8840    0.5120 h1        1 1RK      0.001033
     44 H4          0.1960   -0.0110    2.3070 ha        1 1RK      0.126000
     45 H5          1.2580   -0.0100    4.4980 ha        1 1RK      0.114000
     46 H6          3.3210   -0.1360    5.8570 ha        1 1RK      0.137000
     47 H8          7.1390    0.0150    3.9060 ha        1 1RK      0.121000
     48 H9          6.0670    0.0150    1.7220 ha        1 1RK      0.089000
     49 H10         5.1270    0.6010    0.1500 h1        1 1RK      0.049700
     50 H11         3.6480    0.4150   -0.8030 h1        1 1RK      0.049700
     51 H12         6.9810   -0.1620   -0.4910 ha        1 1RK      0.138000
     52 H13         9.1420   -1.1170    0.2130 ha        1 1RK      0.129000
     53 H14         9.2190   -3.3190    1.3120 ha        1 1RK      0.133000
     54 H15         7.1360   -4.5760    1.7090 ha        1 1RK      0.145000
     55 H16         2.3170   -5.3250   -0.8590 hc        1 1RK      0.036950
     56 H17         2.1820   -3.9930    0.3050 hc        1 1RK      0.036950
     57 H18         3.1190   -5.4220    2.0720 h1        1 1RK      0.032450
     58 H19         1.6950   -6.1960    1.3550 h1        1 1RK      0.032450
     59 H20         5.3130   -6.2720    1.4890 h1        1 1RK      0.032450
     60 H21         5.4190   -7.6360    0.3620 h1        1 1RK      0.032450
     61 H22         4.6150   -6.2080   -1.4680 hc        1 1RK      0.036950
     62 H23         6.0480   -5.4830   -0.7170 hc        1 1RK      0.036950
     63 H24         3.5790   -3.9190   -2.2240 hx        1 1RK      0.128700
     64 H25         6.0210   -4.3750   -1.8290 hn        1 1RK      0.287300
     65 H26         7.7090   -4.0460   -3.6880 hx        1 1RK      0.096700
     66 H27         8.4860   -2.4950   -2.1500 hc        1 1RK      0.053033
     67 H28         8.7950   -1.6080   -3.6490 hc        1 1RK      0.053033
     68 H29         7.3570   -1.2430   -2.6850 hc        1 1RK      0.053033
     69 H30         7.1500   -1.7100   -5.2950 hn        1 1RK      0.260800
     70 H32         9.1960   -2.4550   -5.8060 hx        1 1RK      0.080033
     71 H33         8.7160   -4.1280   -5.4880 hx        1 1RK      0.080033
     72 H34         8.1780   -3.3200   -6.9660 hx        1 1RK      0.080033
     73 H62         6.0990   -2.8010   -1.4170 hn        1 1RK      0.287300
     74 H121        6.3900   -3.1100   -5.6440 hn        1 1RK      0.260800
@<TRIPOS>BOND
     1    1    2 1   
     2    1   41 1   
     3    1   42 1   
     4    1   43 1   
     5    2    3 1   
     6    3    4 ar  
     7    3   15 ar  
     8    4    5 ar  
     9    4   44 1   
    10    5    6 ar  
    11    5   45 1   
    12    6    7 ar  
    13    6   14 ar  
    14    7    8 ar  
    15    7   46 1   
    16    8    9 1   
    17    8   12 ar  
    18    9   10 1   
    19    9   11 1   
    20   12   13 ar  
    21   12   47 1   
    22   13   14 ar  
    23   13   48 1   
    24   14   15 ar  
    25   15   16 1   
    26   16   17 1   
    27   16   49 1   
    28   16   50 1   
    29   17   18 1   
    30   17   20 1   
    31   18   19 2   
    32   18   33 1   
    33   20   21 ar  
    34   20   25 ar  
    35   21   22 ar  
    36   21   51 1   
    37   22   23 ar  
    38   22   52 1   
    39   23   24 ar  
    40   23   53 1   
    41   24   25 ar  
    42   24   54 1   
    43   25   26 1   
    44   26   27 1   
    45   27   28 1   
    46   27   32 1   
    47   27   33 1   
    48   28   29 1   
    49   28   55 1   
    50   28   56 1   
    51   29   30 1   
    52   29   57 1   
    53   29   58 1   
    54   30   31 1   
    55   31   32 1   
    56   31   59 1   
    57   31   60 1   
    58   32   61 1   
    59   32   62 1   
    60   33   34 1   
    61   33   63 1   
    62   34   35 1   
    63   34   64 1   
    64   34   73 1   
    65   35   36 2   
    66   35   37 1   
    67   37   38 1   
    68   37   39 1   
    69   37   65 1   
    70   38   66 1   
    71   38   67 1   
    72   38   68 1   
    73   39   40 1   
    74   39   69 1   
    75   39   74 1   
    76   40   70 1   
    77   40   71 1   
    78   40   72 1   
@<TRIPOS>SUBSTRUCTURE
     1 1RK         1 TEMP              0 ****  ****    0 ROOT
