@<TRIPOS>MOLECULE
1RK
   72    76     1     0     0
SMALL
bcc


@<TRIPOS>ATOM
      1 C29         1.0710   -4.2990    1.4520 c3        1 1RK      0.133700
      2 O28         1.6590   -3.2370    2.1970 os        1 1RK     -0.344900
      3 C27         2.4790   -2.3980    1.4490 ca        1 1RK      0.105100
      4 C30         3.6070   -2.9470    0.7850 ca        1 1RK     -0.195000
      5 C31         4.4970   -2.1090    0.1670 ca        1 1RK     -0.079000
      6 C32         4.3200   -0.7000    0.2090 ca        1 1RK     -0.064000
      7 C34         5.2750    0.1630   -0.3930 ca        1 1RK     -0.104000
      8 C35         5.1400    1.5310   -0.3240 ca        1 1RK     -0.126600
      9 C38         6.1610    2.4640   -0.9610 c         1 1RK      0.909200
     10 O40         7.1440    1.9440   -1.5590 o         1 1RK     -0.827300
     11 O39         5.9650    3.7080   -0.8540 o         1 1RK     -0.827300
     12 C36         4.0260    2.0770    0.3610 ca        1 1RK     -0.069000
     13 C37         3.0830    1.2630    0.9410 ca        1 1RK     -0.185000
     14 C33         3.1870   -0.1530    0.8750 ca        1 1RK     -0.005000
     15 C15         2.2270   -1.0330    1.4630 ca        1 1RK     -0.128300
     16 C14         0.9970   -0.5210    2.1600 c3        1 1RK      0.150300
     17 N13        -0.1630   -0.2410    1.3210 n         1 1RK     -0.361000
     18 C16        -1.0660   -1.2520    1.0140 c         1 1RK      0.692500
     19 O17        -1.0030   -2.3800    1.5350 o         1 1RK     -0.623500
     20 C12        -0.2290    0.9920    0.6270 ca        1 1RK      0.034600
     21 C21        -0.1170    2.2180    1.3180 ca        1 1RK     -0.141000
     22 C19        -0.1860    3.4270    0.6320 ca        1 1RK     -0.121000
     23 C20        -0.3870    3.4570   -0.7470 ca        1 1RK     -0.127000
     24 C18        -0.5360    2.2660   -1.4510 ca        1 1RK     -0.119000
     25 C11        -0.4560    1.0440   -0.7740 ca        1 1RK      0.069100
     26 O10        -0.4880   -0.1180   -1.5260 os        1 1RK     -0.324900
     27 C9         -1.6930   -0.9040   -1.4130 c3        1 1RK      0.143800
     28 C22        -1.2720   -2.3210   -1.8340 c3        1 1RK     -0.118900
     29 C23        -0.8770   -2.3540   -3.2990 c3        1 1RK      0.129900
     30 O24        -1.9310   -1.8770   -4.1310 os        1 1RK     -0.422600
     31 C25        -2.2930   -0.5360   -3.8290 c3        1 1RK      0.129900
     32 C26        -2.7440   -0.3690   -2.3870 c3        1 1RK     -0.118900
     33 C7         -2.2440   -0.9710    0.0410 c3        1 1RK      0.010700
     34 N6         -3.0430    0.1490    0.4550 n         1 1RK     -0.557900
     35 C5         -4.3950    0.0450    0.6980 c         1 1RK      0.667100
     36 O8         -5.0220   -1.0240    0.5570 o         1 1RK     -0.613100
     37 C3         -5.1160    1.3180    1.2040 c3        1 1RK      0.113500
     38 C4         -5.4210    1.0770    2.6830 c3        1 1RK     -0.130100
     39 N1         -6.2500    1.5950    0.3370 n3        1 1RK     -0.820200
     40 C2         -7.0690    2.7000    0.7560 c3        1 1RK      0.154100
     41 H1          0.6010   -3.9170    0.5140 h1        1 1RK      0.032700
     42 H2          1.8390   -5.0760    1.2180 h1        1 1RK      0.032700
     43 H3          0.2850   -4.7010    2.1390 h1        1 1RK      0.032700
     44 H4          3.7510   -4.0360    0.7880 ha        1 1RK      0.125000
     45 H5          5.3750   -2.5110   -0.3620 ha        1 1RK      0.129000
     46 H6          6.1450   -0.2630   -0.9190 ha        1 1RK      0.154000
     47 H8          3.9520    3.1760    0.4080 ha        1 1RK      0.156000
     48 H9          2.2290    1.7140    1.4650 ha        1 1RK      0.109000
     49 H10         0.6640   -1.2970    2.9140 h1        1 1RK      0.073200
     50 H11         1.2520    0.4250    2.7170 h1        1 1RK      0.073200
     51 H12         0.0510    2.2240    2.4070 ha        1 1RK      0.142000
     52 H13        -0.0660    4.3690    1.1890 ha        1 1RK      0.137000
     53 H14        -0.4160    4.4180   -1.2800 ha        1 1RK      0.139000
     54 H15        -0.6840    2.2640   -2.5420 ha        1 1RK      0.148000
     55 H16        -0.4090   -2.6560   -1.2010 hc        1 1RK      0.066950
     56 H17        -2.1360   -3.0120   -1.6600 hc        1 1RK      0.066950
     57 H18         0.0470   -1.7380   -3.4670 h1        1 1RK      0.055200
     58 H19        -0.7090   -3.4080   -3.6460 h1        1 1RK      0.055200
     59 H20        -1.4200    0.1420   -4.0350 h1        1 1RK      0.055200
     60 H21        -3.1330   -0.3120   -4.5380 h1        1 1RK      0.055200
     61 H22        -3.7030   -0.9230   -2.2160 hc        1 1RK      0.066950
     62 H23        -2.9200    0.7210   -2.1970 hc        1 1RK      0.066950
     63 H24        -2.9060   -1.8950    0.0950 h1        1 1RK      0.125700
     64 H25        -2.6140    1.0450    0.4810 hn        1 1RK      0.325500
     65 H26        -4.4370    2.2200    1.1300 h1        1 1RK      0.066700
     66 H27        -5.9130    1.9730    3.1300 hc        1 1RK      0.049700
     67 H28        -6.0930    0.1930    2.8070 hc        1 1RK      0.049700
     68 H29        -4.4700    0.8800    3.2330 hc        1 1RK      0.049700
     69 H30        -6.8000    0.7630    0.2110 hn        1 1RK      0.378800
     70 H32        -7.6160    2.5250    1.7230 h1        1 1RK      0.030033
     71 H33        -6.4300    3.6140    0.8770 h1        1 1RK      0.030033
     72 H34        -7.8260    2.8930   -0.0490 h1        1 1RK      0.030033
@<TRIPOS>BOND
     1    1    2 1   
     2    1   41 1   
     3    1   42 1   
     4    1   43 1   
     5    2    3 1   
     6    3    4 ar  
     7    3   15 ar  
     8    4    5 ar  
     9    4   44 1   
    10    5    6 ar  
    11    5   45 1   
    12    6    7 ar  
    13    6   14 ar  
    14    7    8 ar  
    15    7   46 1   
    16    8    9 1   
    17    8   12 ar  
    18    9   10 1   
    19    9   11 1   
    20   12   13 ar  
    21   12   47 1   
    22   13   14 ar  
    23   13   48 1   
    24   14   15 ar  
    25   15   16 1   
    26   16   17 1   
    27   16   49 1   
    28   16   50 1   
    29   17   18 1   
    30   17   20 1   
    31   18   19 2   
    32   18   33 1   
    33   20   21 ar  
    34   20   25 ar  
    35   21   22 ar  
    36   21   51 1   
    37   22   23 ar  
    38   22   52 1   
    39   23   24 ar  
    40   23   53 1   
    41   24   25 ar  
    42   24   54 1   
    43   25   26 1   
    44   26   27 1   
    45   27   28 1   
    46   27   32 1   
    47   27   33 1   
    48   28   29 1   
    49   28   55 1   
    50   28   56 1   
    51   29   30 1   
    52   29   57 1   
    53   29   58 1   
    54   30   31 1   
    55   31   32 1   
    56   31   59 1   
    57   31   60 1   
    58   32   61 1   
    59   32   62 1   
    60   33   34 1   
    61   33   63 1   
    62   34   35 1   
    63   34   64 1   
    64   35   36 2   
    65   35   37 1   
    66   37   38 1   
    67   37   39 1   
    68   37   65 1   
    69   38   66 1   
    70   38   67 1   
    71   38   68 1   
    72   39   40 1   
    73   39   69 1   
    74   40   70 1   
    75   40   71 1   
    76   40   72 1   
@<TRIPOS>SUBSTRUCTURE
     1 1RK         1 TEMP              0 ****  ****    0 ROOT
