@<TRIPOS>MOLECULE
1RN
   40    41     1     0     0
SMALL
bcc


@<TRIPOS>ATOM
      1 N1          0.7510    1.7450    0.3700 n         1 1RN     -0.280000
      2 C2          1.4760    2.8650    0.7690 c         1 1RN      0.584400
      3 S2          0.8200    4.3190    1.1300 s         1 1RN     -0.655400
      4 N3          2.8570    2.7400    0.8630 n         1 1RN     -0.553500
      5 C4          3.5760    1.5480    0.5990 c         1 1RN      0.713700
      6 O4          4.8110    1.6040    0.7200 o         1 1RN     -0.614500
      7 C5          2.7560    0.3980    0.2030 cc        1 1RN     -0.290800
      8 C6          1.3990    0.5400    0.1130 cd        1 1RN      0.057600
      9 C1'        -0.7130    1.8410    0.2870 c3        1 1RN      0.241500
     10 O2'        -0.5140    1.5050   -2.1670 oh        1 1RN     -0.605800
     11 C2'        -1.3170    2.0460   -1.1420 c3        1 1RN      0.094100
     12 O3'        -3.6880    2.3500   -1.0420 oh        1 1RN     -0.669800
     13 C3'        -2.6980    1.3510   -1.0380 c3        1 1RN      0.132100
     14 C4'        -2.6740    0.5910    0.3070 c3        1 1RN      0.063100
     15 O4'        -1.3060    0.6410    0.8030 os        1 1RN     -0.450600
     16 C5'        -3.1260   -0.8860    0.2100 c3        1 1RN      0.241400
     17 O5'        -4.4300   -1.0090    0.6050 os        1 1RN     -0.560200
     18 P          -5.5640   -1.1680   -0.7090 p5        1 1RN      1.333900
     19 OP1        -5.2260    0.1170   -1.4410 o         1 1RN     -0.932833
     20 OP2        -5.0860   -2.4150   -1.3930 o         1 1RN     -0.932833
     21 C3          3.4380   -0.8750   -0.0990 ce        1 1RN      0.464500
     22 N2          4.0560   -1.5300    0.8180 n2        1 1RN     -0.581900
     23 C7          4.7160   -2.7720    0.5500 c3        1 1RN     -0.018200
     24 C1          5.6060   -2.9110   -0.7150 c         1 1RN      0.905600
     25 O2          5.2220   -2.3900   -1.7990 o         1 1RN     -0.847300
     26 O1          6.6630   -3.5930   -0.5880 o         1 1RN     -0.847300
     27 H1          0.7220   -0.2950   -0.1650 h4        1 1RN      0.202000
     28 H2         -1.0310    2.7090    0.9460 h2        1 1RN      0.105700
     29 H3         -0.6420    0.5460   -2.1570 ho        1 1RN      0.409000
     30 H4         -1.4050    3.1380   -1.3750 h1        1 1RN      0.094700
     31 H5         -4.5430    1.8690   -1.1570 ho        1 1RN      0.504000
     32 H6         -2.8680    0.6430   -1.8960 h1        1 1RN      0.099700
     33 H7         -3.3140    1.1270    1.0580 h1        1 1RN      0.069700
     34 H8         -2.9840   -1.2550   -0.8450 h1        1 1RN      0.002700
     35 H9         -2.4600   -1.4820    0.9010 h1        1 1RN      0.002700
     36 H12         3.3990   -1.1710   -1.1720 h4        1 1RN      0.028800
     37 H13         5.3600   -2.9760    1.4510 h1        1 1RN      0.039700
     38 H14         3.9460   -3.5920    0.4800 h1        1 1RN      0.039700
     39 H16         3.3570    3.5580    1.1440 hn        1 1RN      0.341500
     40 OP3        -6.8930   -1.2120   -0.0190 o         1 1RN     -0.932833
@<TRIPOS>BOND
     1    1    2 1   
     2    1    8 1   
     3    1    9 1   
     4    2    3 2   
     5    2    4 1   
     6    4    5 1   
     7    4   39 1   
     8    5    6 2   
     9    5    7 1   
    10    7    8 2   
    11    7   21 1   
    12    8   27 1   
    13    9   11 1   
    14    9   15 1   
    15    9   28 1   
    16   10   11 1   
    17   10   29 1   
    18   11   13 1   
    19   11   30 1   
    20   12   13 1   
    21   12   31 1   
    22   13   14 1   
    23   13   32 1   
    24   14   15 1   
    25   14   16 1   
    26   14   33 1   
    27   16   17 1   
    28   16   34 1   
    29   16   35 1   
    30   17   18 1   
    31   18   19 1   
    32   18   20 1   
    33   18   40 1   
    34   21   22 2   
    35   21   36 1   
    36   22   23 1   
    37   23   24 1   
    38   23   37 1   
    39   23   38 1   
    40   24   25 1   
    41   24   26 1   
@<TRIPOS>SUBSTRUCTURE
     1 1RN         1 TEMP              0 ****  ****    0 ROOT
