@<TRIPOS>MOLECULE
1RN
   40    40     1     0     0
SMALL
bcc


@<TRIPOS>ATOM
      1 N1          0.1790   -0.6020   -0.2870 n         1 1RN     -0.172000
      2 C2          1.5810   -0.1910   -0.3770 c2        1 1RN      0.165000
      3 S2          2.3100   -0.0410   -1.8810 s         1 1RN     -0.351000
      4 N3          2.3890   -0.0550    0.8430 n         1 1RN     -0.329000
      5 C4          1.7920   -0.2590    2.1220 c2        1 1RN      0.351000
      6 O4          2.4350   -0.0320    3.1410 o         1 1RN     -0.349000
      7 C5          0.3920   -0.6720    2.2180 c2        1 1RN     -0.235000
      8 C6         -0.4070   -0.8580    0.9860 c2        1 1RN      0.080000
      9 C1'        -0.5560   -0.9190   -1.4950 c3        1 1RN      0.091000
     10 O2'        -2.5570   -0.4540   -0.0440 oh        1 1RN     -0.334000
     11 C2'        -2.0500   -0.3330   -1.4070 c3        1 1RN     -0.014000
     12 O3'        -3.1940    1.3430   -2.4830 oh        1 1RN     -0.396000
     13 C3'        -1.9650    0.9220   -1.7400 c3        1 1RN      0.020000
     14 C4'        -0.7410    1.0040   -2.6540 c3        1 1RN     -0.048000
     15 O4'        -0.0080   -0.3580   -2.5030 os        1 1RN     -0.309000
     16 C5'         0.0900    2.0510   -2.2570 c3        1 1RN      0.091000
     17 O5'         1.0800    2.2730   -3.2510 os        1 1RN     -0.721000
     18 P           1.3820    3.7790   -3.7060 p5        1 1RN      1.567500
     19 OP1         0.1510    4.3680   -4.3470 o         1 1RN     -0.932500
     20 OP2         2.5240    3.7860   -4.7030 o         1 1RN     -0.932500
     21 C3         -0.2760   -0.7710    3.5730 c2        1 1RN     -0.064000
     22 N2         -0.0720   -1.8550    4.3490 n1        1 1RN     -0.114000
     23 C7          0.7860   -2.9280    3.8890 c2        1 1RN     -0.176000
     24 C1          0.9050   -3.9780    4.9740 c2        1 1RN      0.350000
     25 O2          0.8900   -3.6350    6.1840 o         1 1RN     -0.583000
     26 O1          1.1010   -5.1870    4.6640 o         1 1RN     -0.583000
     27 H1         -1.3430   -1.1330    1.0470 h4        1 1RN      0.194000
     28 H2         -0.5840   -1.8870   -1.6260 h2        1 1RN      0.148000
     29 H3         -3.4250   -0.6630   -0.0660 ho        1 1RN      0.210000
     30 H4         -2.6400   -0.8120   -2.0330 h1        1 1RN      0.130000
     31 H5         -3.6470    1.9260   -1.9970 ho        1 1RN      0.302000
     32 H6         -1.8370    1.4790   -0.9440 h1        1 1RN      0.142000
     33 H7         -1.0240    1.1320   -3.5850 h1        1 1RN      0.110000
     34 H8          0.5260    1.8200   -1.4050 h1        1 1RN      0.040500
     35 H9         -0.4450    2.8680   -2.1400 h1        1 1RN      0.040500
     36 H12        -0.8630   -0.0370    3.8910 h4        1 1RN      0.126000
     37 H13         1.6790   -2.5680    3.6810 ha        1 1RN      0.080500
     38 H14         0.4030   -3.3310    3.0850 ha        1 1RN      0.080500
     39 H16         3.2740    0.2040    0.7830 hn        1 1RN      0.258000
     40 OP3         1.7630    4.6030   -2.4990 o         1 1RN     -0.932500
@<TRIPOS>BOND
     1    1    2 1   
     2    1    8 1   
     3    1    9 1   
     4    2    3 1   
     5    2    4 1   
     6    4    5 1   
     7    4   39 1   
     8    5    6 1   
     9    5    7 1   
    10    7    8 1   
    11    7   21 1   
    12    8   27 1   
    13    9   11 1   
    14    9   15 1   
    15    9   28 1   
    16   10   11 1   
    17   10   29 1   
    18   11   13 1   
    19   11   30 1   
    20   12   13 1   
    21   12   31 1   
    22   13   14 1   
    23   13   32 1   
    24   14   15 1   
    25   14   16 1   
    26   14   33 1   
    27   16   17 1   
    28   16   34 1   
    29   16   35 1   
    30   17   18 1   
    31   18   19 1   
    32   18   20 1   
    33   18   40 1   
    34   21   22 1   
    35   21   36 1   
    36   23   24 1   
    37   23   37 1   
    38   23   38 1   
    39   24   25 1   
    40   24   26 1   
@<TRIPOS>SUBSTRUCTURE
     1 1RN         1 TEMP              0 ****  ****    0 ROOT
