@<TRIPOS>MOLECULE
1RO
   38    41     1     0     0
SMALL
bcc


@<TRIPOS>ATOM
      1 O1         -0.3180    0.0800    0.7180 o         1 1RO     -0.432100
      2 C13         0.9010    0.1170    0.5840 c         1 1RO      0.700700
      3 N2          1.7540    0.4180    1.7330 nc        1 1RO     -0.574100
      4 C15         3.0140    0.4000    1.3780 cd        1 1RO      0.466100
      5 N3          4.0980    0.6670    2.3280 n4        1 1RO     -0.714000
      6 C18         4.2400   -0.4390    3.3590 c3        1 1RO      0.232100
      7 C19         5.3430   -0.1360    4.2730 cc        1 1RO     -0.298400
      8 C23         5.2620    0.7770    5.3250 cd        1 1RO     -0.095000
      9 C22         6.4630    0.8090    6.0810 cd        1 1RO     -0.153000
     10 C21         7.3960   -0.0870    5.5800 cc        1 1RO     -0.130100
     11 S2          6.8280   -0.9100    4.2660 ss        1 1RO      0.145200
     12 S1          3.3890    0.0450   -0.2790 ss        1 1RO     -0.070800
     13 C12         1.7020   -0.0960   -0.6460 cc        1 1RO     -0.221600
     14 C11         1.3010   -0.3040   -1.9200 cf        1 1RO      0.133800
     15 C1         -0.0100   -0.4810   -2.4840 ca        1 1RO     -0.147800
     16 C6         -0.1780   -0.1000   -3.8530 ca        1 1RO     -0.101000
     17 C5         -1.3780   -0.2420   -4.4920 ca        1 1RO     -0.160300
     18 C4         -2.5050   -0.8030   -3.8040 ca        1 1RO      0.436600
     19 N1         -3.7120   -0.9460   -4.4600 nb        1 1RO     -0.657000
     20 C9         -4.7210   -1.4720   -3.7880 ca        1 1RO      0.446200
     21 C8         -4.6450   -1.9040   -2.4240 ca        1 1RO     -0.242300
     22 C7         -3.4530   -1.7690   -1.7600 ca        1 1RO     -0.065000
     23 C3         -2.3340   -1.2050   -2.4430 ca        1 1RO     -0.179300
     24 C2         -1.0830   -1.0340   -1.8050 ca        1 1RO     -0.004000
     25 H1          3.9170    1.5510    2.8280 hn        1 1RO      0.466800
     26 H2          3.2550   -0.4980    3.9130 hx        1 1RO      0.119700
     27 H3          4.4040   -1.4030    2.7980 hx        1 1RO      0.119700
     28 H4          4.3850    1.3860    5.5640 ha        1 1RO      0.165000
     29 H5          6.6170    1.4560    6.9500 ha        1 1RO      0.184000
     30 H6          8.3920   -0.2460    6.0030 h4        1 1RO      0.202000
     31 H7          2.1100   -0.3270   -2.6890 ha        1 1RO      0.147000
     32 H8          0.6820    0.3280   -4.3940 ha        1 1RO      0.141000
     33 H9         -1.4980    0.0680   -5.5440 ha        1 1RO      0.170000
     34 H10        -5.6760   -1.5720   -4.3420 h4        1 1RO      0.040100
     35 H11        -5.5360   -2.3300   -1.9430 ha        1 1RO      0.160000
     36 H12        -3.3390   -2.0810   -0.7100 ha        1 1RO      0.149000
     37 H13        -0.9840   -1.3700   -0.7590 ha        1 1RO      0.156000
     38 H32         4.9770    0.7680    1.8060 hn        1 1RO      0.466800
@<TRIPOS>BOND
     1    1    2 2   
     2    2    3 1   
     3    2   13 1   
     4    3    4 2   
     5    4    5 1   
     6    4   12 1   
     7    5    6 1   
     8    5   25 1   
     9    5   38 1   
    10    6    7 1   
    11    6   26 1   
    12    6   27 1   
    13    7    8 2   
    14    7   11 1   
    15    8    9 1   
    16    8   28 1   
    17    9   10 2   
    18    9   29 1   
    19   10   11 1   
    20   10   30 1   
    21   12   13 1   
    22   13   14 2   
    23   14   15 1   
    24   14   31 1   
    25   15   16 ar  
    26   15   24 ar  
    27   16   17 ar  
    28   16   32 1   
    29   17   18 ar  
    30   17   33 1   
    31   18   19 ar  
    32   18   23 ar  
    33   19   20 ar  
    34   20   21 ar  
    35   20   34 1   
    36   21   22 ar  
    37   21   35 1   
    38   22   23 ar  
    39   22   36 1   
    40   23   24 ar  
    41   24   37 1   
@<TRIPOS>SUBSTRUCTURE
     1 1RO         1 TEMP              0 ****  ****    0 ROOT
