@<TRIPOS>MOLECULE
1RO
   37    40     1     0     0
SMALL
bcc


@<TRIPOS>ATOM
      1 O1          1.0400    1.4360    0.5680 o         1 1RO     -0.511100
      2 C13         0.1960    0.5700    0.3190 c         1 1RO      0.702700
      3 N2         -1.2020    0.8150    0.4350 nc        1 1RO     -0.709100
      4 C15        -1.9160   -0.2480    0.0870 cd        1 1RO      0.709100
      5 N3         -3.2760   -0.3290    0.0220 nh        1 1RO     -0.804200
      6 C18        -4.1180    0.7480    0.5030 c3        1 1RO      0.292100
      7 C19        -5.5590    0.4170    0.4110 cc        1 1RO     -0.167400
      8 C23        -6.2190   -0.5240    1.1820 cd        1 1RO     -0.144000
      9 C22        -7.6100   -0.5810    0.8660 cd        1 1RO     -0.157000
     10 C21        -7.9380    0.3200   -0.1270 cc        1 1RO     -0.170100
     11 S2         -6.6120    1.1800   -0.6450 ss        1 1RO      0.070200
     12 S1         -0.9640   -1.6830   -0.4010 ss        1 1RO     -0.240800
     13 C12         0.5100   -0.8350   -0.1280 cc        1 1RO     -0.133600
     14 C11         1.6950   -1.4420   -0.2800 cf        1 1RO      0.015800
     15 C1          3.0400   -0.9240   -0.1080 ca        1 1RO     -0.090800
     16 C6          4.0180   -1.8190    0.4200 ca        1 1RO     -0.107000
     17 C5          5.3220   -1.4350    0.5830 ca        1 1RO     -0.173300
     18 C4          5.7420   -0.1170    0.2110 ca        1 1RO      0.407600
     19 N1          7.0630    0.2610    0.3730 nb        1 1RO     -0.662000
     20 C9          7.3990    1.4890    0.0200 ca        1 1RO      0.419200
     21 C8          6.4900    2.4530   -0.5190 ca        1 1RO     -0.255300
     22 C7          5.1770    2.0900   -0.6890 ca        1 1RO     -0.066000
     23 C3          4.7640    0.7760   -0.3250 ca        1 1RO     -0.158300
     24 C2          3.4200    0.3500   -0.4750 ca        1 1RO     -0.044000
     25 H1         -3.6860   -1.2290   -0.0840 hn        1 1RO      0.450800
     26 H2         -3.8580    0.9810    1.5800 h1        1 1RO      0.073200
     27 H3         -3.8860    1.6710   -0.1060 h1        1 1RO      0.073200
     28 H4         -5.7520   -1.1460    1.9500 ha        1 1RO      0.155000
     29 H5         -8.3100   -1.2560    1.3620 ha        1 1RO      0.158000
     30 H6         -8.9370    0.4690   -0.5350 h4        1 1RO      0.175000
     31 H7          1.6850   -2.5160   -0.5670 ha        1 1RO      0.133000
     32 H8          3.7040   -2.8340    0.7070 ha        1 1RO      0.134000
     33 H9          6.0660   -2.1320    1.0000 ha        1 1RO      0.152000
     34 H10         8.4620    1.7620    0.1630 h4        1 1RO      0.022100
     35 H11         6.8560    3.4530   -0.7810 ha        1 1RO      0.145000
     36 H12         4.4310    2.7920   -1.0920 ha        1 1RO      0.146000
     37 H13         2.6850    1.0630   -0.8840 ha        1 1RO      0.160000
@<TRIPOS>BOND
     1    1    2 2   
     2    2    3 1   
     3    2   13 1   
     4    3    4 2   
     5    4    5 1   
     6    4   12 1   
     7    5    6 1   
     8    5   25 1   
     9    6    7 1   
    10    6   26 1   
    11    6   27 1   
    12    7    8 2   
    13    7   11 1   
    14    8    9 1   
    15    8   28 1   
    16    9   10 2   
    17    9   29 1   
    18   10   11 1   
    19   10   30 1   
    20   12   13 1   
    21   13   14 2   
    22   14   15 1   
    23   14   31 1   
    24   15   16 ar  
    25   15   24 ar  
    26   16   17 ar  
    27   16   32 1   
    28   17   18 ar  
    29   17   33 1   
    30   18   19 ar  
    31   18   23 ar  
    32   19   20 ar  
    33   20   21 ar  
    34   20   34 1   
    35   21   22 ar  
    36   21   35 1   
    37   22   23 ar  
    38   22   36 1   
    39   23   24 ar  
    40   24   37 1   
@<TRIPOS>SUBSTRUCTURE
     1 1RO         1 TEMP              0 ****  ****    0 ROOT
