@<TRIPOS>MOLECULE
1RO
   37    30     1     0     0
SMALL
bcc


@<TRIPOS>ATOM
      1 O1         -3.0690   -0.8810    1.6000 o         1 1RO     -0.274000
      2 C13        -2.0040   -0.3200    1.6050 c1        1 1RO      0.300000
      3 N2         -0.9840   -0.2840    2.7940 n1        1 1RO     -0.279000
      4 C15         0.2990    0.0310    2.4310 c1        1 1RO      0.039000
      5 N3          1.1760    0.6760    3.3750 n2        1 1RO     -0.289000
      6 C18         1.8440   -0.1030    4.3820 c3        1 1RO      0.049000
      7 C19         3.0220    0.7150    4.9710 c2        1 1RO     -0.430000
      8 C23         3.4920    0.6720    6.3510 c1        1 1RO     -0.144000
      9 C22         4.6830    1.7140    6.5050 c1        1 1RO     -0.157000
     10 C21         4.8970    2.3510    5.2240 c1        1 1RO     -0.440000
     11 S2          3.8700    1.7550    4.2140 ss        1 1RO      0.610000
     12 S1          0.4820    0.2850    0.8910 ss        1 1RO      0.255000
     13 C12        -1.0870    0.0580    0.2640 c2        1 1RO     -0.373000
     14 C11        -1.5530    0.5600   -0.8910 c1        1 1RO     -0.011000
     15 C1         -1.4270   -0.2520   -2.1860 c1        1 1RO     -0.068000
     16 C6         -0.1760   -0.3630   -2.7920 c2        1 1RO     -0.106000
     17 C5         -0.0830   -0.6740   -4.1460 c1        1 1RO     -0.100000
     18 C4         -1.2490   -0.8750   -4.9020 c1        1 1RO      0.012000
     19 N1         -1.1570   -1.2340   -6.2330 n2        1 1RO     -0.131000
     20 C9         -2.2860   -1.4790   -6.9530 c1        1 1RO     -0.046000
     21 C8         -3.5390   -1.3680   -6.3470 c1        1 1RO     -0.129500
     22 C7         -3.6330   -1.0140   -5.0310 c1        1 1RO     -0.129500
     23 C3         -2.4900   -0.7650   -4.3010 c1        1 1RO     -0.091000
     24 C2         -2.5840   -0.4520   -2.9340 c1        1 1RO     -0.076000
     25 H1          1.3560    1.5450    3.2940 hn        1 1RO      0.247000
     26 H2          1.2300   -0.3190    5.0740 h1        1 1RO      0.112500
     27 H3          2.1930   -0.9380    3.9770 h1        1 1RO      0.112500
     28 H4          3.1400    0.1070    7.0530 DU        1 1RO      0.162667
     29 H5          5.1870    1.8950    7.3280 DU        1 1RO      0.162667
     30 H6          5.5590    3.0270    5.0290 DU        1 1RO      0.162667
     31 H7         -2.0200    1.4070   -0.8960 ha        1 1RO      0.161000
     32 H8          0.6320   -0.2470   -2.2640 ha        1 1RO      0.145000
     33 H9          0.8020   -0.7520   -4.5750 ha        1 1RO      0.155000
     34 H10        -2.2180   -1.7380   -7.9100 ha        1 1RO      0.162000
     35 H11        -4.3360   -1.5410   -6.8560 ha        1 1RO      0.144000
     36 H12        -4.5020   -0.9370   -4.6120 ha        1 1RO      0.144000
     37 H13        -3.4670   -0.2600   -2.5330 ha        1 1RO      0.141000
@<TRIPOS>BOND
     1    1    2 1   
     2    2   13 1   
     3    3    4 1   
     4    4   12 1   
     5    5    6 1   
     6    5   25 1   
     7    6    7 1   
     8    6   26 1   
     9    6   27 1   
    10    7    8 1   
    11    7   11 1   
    12    8    9 1   
    13    9   10 1   
    14   10   11 1   
    15   12   13 1   
    16   13   14 1   
    17   14   31 1   
    18   15   16 1   
    19   15   24 1   
    20   16   17 1   
    21   16   32 1   
    22   17   33 1   
    23   18   19 1   
    24   18   23 1   
    25   19   20 1   
    26   20   34 1   
    27   21   22 1   
    28   21   35 1   
    29   22   36 1   
    30   24   37 1   
@<TRIPOS>SUBSTRUCTURE
     1 1RO         1 TEMP              0 ****  ****    0 ROOT
