@<TRIPOS>MOLECULE
1RO
   38    41     1     0     0
SMALL
bcc


@<TRIPOS>ATOM
      1 O1         -0.3120    0.0940    0.7270 o         1 1RO     -0.432100
      2 C13         0.9060    0.1200    0.5860 c         1 1RO      0.700700
      3 N2          1.7680    0.4160    1.7300 nc        1 1RO     -0.574100
      4 C15         3.0260    0.3880    1.3680 cd        1 1RO      0.466100
      5 N3          4.1170    0.6470    2.3110 ny        1 1RO     -0.714000
      6 C18         4.2560   -0.4590    3.3430 c3        1 1RO      0.232100
      7 C19         5.3670   -0.1630    4.2500 cc        1 1RO     -0.298400
      8 C23         5.3000    0.7520    5.3010 cd        1 1RO     -0.095000
      9 C22         6.5060    0.7740    6.0500 cd        1 1RO     -0.153000
     10 C21         7.4280   -0.1300    5.5440 cc        1 1RO     -0.130100
     11 S2          6.8460   -0.9500    4.2350 ss        1 1RO      0.145200
     12 S1          3.3890    0.0270   -0.2900 ss        1 1RO     -0.070800
     13 C12         1.6980   -0.1010   -0.6490 cc        1 1RO     -0.221600
     14 C11         1.2890   -0.3080   -1.9200 cf        1 1RO      0.133800
     15 C1         -0.0270   -0.4740   -2.4770 ca        1 1RO     -0.147800
     16 C6         -0.1990   -0.0930   -3.8450 ca        1 1RO     -0.101000
     17 C5         -1.4040   -0.2270   -4.4760 ca        1 1RO     -0.160300
     18 C4         -2.5320   -0.7780   -3.7820 ca        1 1RO      0.436600
     19 N1         -3.7430   -0.9110   -4.4310 nb        1 1RO     -0.657000
     20 C9         -4.7540   -1.4280   -3.7520 ca        1 1RO      0.446200
     21 C8         -4.6730   -1.8590   -2.3890 ca        1 1RO     -0.242300
     22 C7         -3.4760   -1.7330   -1.7320 ca        1 1RO     -0.065000
     23 C3         -2.3560   -1.1790   -2.4210 ca        1 1RO     -0.179300
     24 C2         -1.1010   -1.0170   -1.7900 ca        1 1RO     -0.004000
     25 H1          4.9940    0.7410    1.7840 hn        1 1RO      0.466800
     26 H2          3.2740   -0.5100    3.9020 hx        1 1RO      0.119700
     27 H3          4.4090   -1.4250    2.7820 hx        1 1RO      0.119700
     28 H4          4.4300    1.3680    5.5450 ha        1 1RO      0.165000
     29 H5          6.6700    1.4210    6.9170 ha        1 1RO      0.184000
     30 H6          8.4250   -0.2960    5.9620 h4        1 1RO      0.202000
     31 H7          2.0930   -0.3390   -2.6930 ha        1 1RO      0.147000
     32 H8          0.6620    0.3260   -4.3910 ha        1 1RO      0.141000
     33 H9         -1.5270    0.0820   -5.5280 ha        1 1RO      0.170000
     34 H10        -5.7110   -1.5210   -4.3010 h4        1 1RO      0.040100
     35 H11        -5.5650   -2.2770   -1.9020 ha        1 1RO      0.160000
     36 H12        -3.3590   -2.0440   -0.6820 ha        1 1RO      0.149000
     37 H13        -0.9990   -1.3530   -0.7450 ha        1 1RO      0.156000
     38 H32         3.9460    1.5330    2.8110 hn        1 1RO      0.466800
@<TRIPOS>BOND
     1    1    2 2   
     2    2    3 1   
     3    2   13 1   
     4    3    4 2   
     5    4    5 1   
     6    4   12 1   
     7    5    6 1   
     8    5   25 1   
     9    5   38 1   
    10    6    7 1   
    11    6   26 1   
    12    6   27 1   
    13    7    8 2   
    14    7   11 1   
    15    8    9 1   
    16    8   28 1   
    17    9   10 2   
    18    9   29 1   
    19   10   11 1   
    20   10   30 1   
    21   12   13 1   
    22   13   14 2   
    23   14   15 1   
    24   14   31 1   
    25   15   16 ar  
    26   15   24 ar  
    27   16   17 ar  
    28   16   32 1   
    29   17   18 ar  
    30   17   33 1   
    31   18   19 ar  
    32   18   23 ar  
    33   19   20 ar  
    34   20   21 ar  
    35   20   34 1   
    36   21   22 ar  
    37   21   35 1   
    38   22   23 ar  
    39   22   36 1   
    40   23   24 ar  
    41   24   37 1   
@<TRIPOS>SUBSTRUCTURE
     1 1RO         1 TEMP              0 ****  ****    0 ROOT
