@<TRIPOS>MOLECULE
1RO
   38    41     1     0     0
SMALL
bcc


@<TRIPOS>ATOM
      1 O1         -0.3120    0.1110    0.7100 o         1 1RO     -0.432100
      2 C13         0.9080    0.1260    0.5780 c         1 1RO      0.700700
      3 N2          1.7630    0.4290    1.7240 nc        1 1RO     -0.574100
      4 C15         3.0230    0.3870    1.3730 cd        1 1RO      0.466100
      5 N3          4.1090    0.6490    2.3210 n4        1 1RO     -0.714000
      6 C18         4.2310   -0.4450    3.3670 c3        1 1RO      0.232100
      7 C19         5.3380   -0.1480    4.2790 cc        1 1RO     -0.298400
      8 C23         5.2700    0.7800    5.3190 cd        1 1RO     -0.095000
      9 C22         6.4700    0.8020    6.0760 cd        1 1RO     -0.153000
     10 C21         7.3900   -0.1140    5.5880 cc        1 1RO     -0.130100
     11 S2          6.8110   -0.9450    4.2840 ss        1 1RO      0.145200
     12 S1          3.3960    0.0040   -0.2780 ss        1 1RO     -0.070800
     13 C12         1.7070   -0.1150   -0.6480 cc        1 1RO     -0.221600
     14 C11         1.3060   -0.3330   -1.9200 cf        1 1RO      0.133800
     15 C1         -0.0070   -0.4970   -2.4850 ca        1 1RO     -0.147800
     16 C6         -0.1660   -0.1310   -3.8590 ca        1 1RO     -0.101000
     17 C5         -1.3670   -0.2630   -4.4980 ca        1 1RO     -0.160300
     18 C4         -2.5040   -0.7970   -3.8060 ca        1 1RO      0.436600
     19 N1         -3.7110   -0.9280   -4.4630 nb        1 1RO     -0.657000
     20 C9         -4.7310   -1.4300   -3.7860 ca        1 1RO      0.446200
     21 C8         -4.6640   -1.8450   -2.4170 ca        1 1RO     -0.242300
     22 C7         -3.4710   -1.7210   -1.7520 ca        1 1RO     -0.065000
     23 C3         -2.3420   -1.1830   -2.4390 ca        1 1RO     -0.179300
     24 C2         -1.0900   -1.0230   -1.8010 ca        1 1RO     -0.004000
     25 H1          4.9910    0.7300    1.8000 hn        1 1RO      0.466800
     26 H2          3.2450   -0.4820    3.9190 hx        1 1RO      0.119700
     27 H3          4.3810   -1.4190    2.8180 hx        1 1RO      0.119700
     28 H4          4.4020    1.4050    5.5490 ha        1 1RO      0.165000
     29 H5          6.6330    1.4570    6.9380 ha        1 1RO      0.184000
     30 H6          8.3820   -0.2830    6.0150 h4        1 1RO      0.202000
     31 H7          2.1160   -0.3790   -2.6860 ha        1 1RO      0.147000
     32 H8          0.7030    0.2760   -4.4030 ha        1 1RO      0.141000
     33 H9         -1.4790    0.0350   -5.5540 ha        1 1RO      0.170000
     34 H10        -5.6850   -1.5220   -4.3410 h4        1 1RO      0.040100
     35 H11        -5.5630   -2.2510   -1.9320 ha        1 1RO      0.160000
     36 H12        -3.3640   -2.0200   -0.6980 ha        1 1RO      0.149000
     37 H13        -0.9990   -1.3480   -0.7510 ha        1 1RO      0.156000
     38 H32         3.9400    1.5430    2.8100 hn        1 1RO      0.466800
@<TRIPOS>BOND
     1    1    2 2   
     2    2    3 1   
     3    2   13 1   
     4    3    4 2   
     5    4    5 1   
     6    4   12 1   
     7    5    6 1   
     8    5   25 1   
     9    5   38 1   
    10    6    7 1   
    11    6   26 1   
    12    6   27 1   
    13    7    8 2   
    14    7   11 1   
    15    8    9 1   
    16    8   28 1   
    17    9   10 2   
    18    9   29 1   
    19   10   11 1   
    20   10   30 1   
    21   12   13 1   
    22   13   14 2   
    23   14   15 1   
    24   14   31 1   
    25   15   16 ar  
    26   15   24 ar  
    27   16   17 ar  
    28   16   32 1   
    29   17   18 ar  
    30   17   33 1   
    31   18   19 ar  
    32   18   23 ar  
    33   19   20 ar  
    34   20   21 ar  
    35   20   34 1   
    36   21   22 ar  
    37   21   35 1   
    38   22   23 ar  
    39   22   36 1   
    40   23   24 ar  
    41   24   37 1   
@<TRIPOS>SUBSTRUCTURE
     1 1RO         1 TEMP              0 ****  ****    0 ROOT
