@<TRIPOS>MOLECULE
1RP
   35    36     1     0     0
SMALL
bcc


@<TRIPOS>ATOM
      1 OAG        -3.6830    1.0470   -1.8420 o         1 1RP     -0.921167
      2 PAX        -3.5010   -0.3710   -1.3550 p5        1 1RP      1.346900
      3 OAH        -4.5950   -1.3710   -1.5070 o         1 1RP     -0.921167
      4 OAC        -2.0680   -0.8220   -1.5880 o         1 1RP     -0.921167
      5 O5'        -3.4350   -0.0040    0.3400 os        1 1RP     -0.566200
      6 C5'        -2.2230   -0.0590    0.9660 c3        1 1RP      0.230400
      7 C4'        -1.4820    1.3020    0.9810 c3        1 1RP      0.062100
      8 O4'        -0.1520    1.0880    1.5170 os        1 1RP     -0.428600
      9 C3'        -1.3220    1.9560   -0.4060 c3        1 1RP      0.071100
     10 O3'        -2.1330    3.0990   -0.5300 oh        1 1RP     -0.662800
     11 C2'         0.1650    2.3240   -0.5290 c3        1 1RP      0.109100
     12 O2'         0.4750    3.6770   -0.2650 oh        1 1RP     -0.617800
     13 C1'         0.8430    1.4440    0.5700 c3        1 1RP      0.250500
     14 NAW         1.5130    0.2420    0.0200 n         1 1RP     -0.297000
     15 CAQ         2.8810    0.0450    0.3320 c         1 1RP      0.567200
     16 OAD         3.5040    0.8800    1.0310 o         1 1RP     -0.700500
     17 CAJ         0.8500   -0.6630   -0.7560 cc        1 1RP      0.028600
     18 CAP         1.5500   -1.7890   -1.2610 cd        1 1RP      0.155100
     19 FAI         0.9020   -2.6780   -2.0570 f         1 1RP     -0.126500
     20 NAL         2.8730   -2.0470   -0.9920 nd        1 1RP     -0.460300
     21 CAR         3.5080   -1.1680   -0.2290 cc        1 1RP      0.209300
     22 CAO         4.9450   -1.4180    0.1210 c         1 1RP      0.607800
     23 OAB         5.3750   -2.5330    0.4770 o         1 1RP     -0.618100
     24 NAA         5.8230   -0.3540   -0.0230 n         1 1RP     -0.642000
     25 H3         -2.3840   -0.3370    2.0500 h1        1 1RP     -0.001800
     26 H4         -1.5490   -0.8310    0.4990 h1        1 1RP     -0.001800
     27 H5         -1.9790    2.0110    1.6940 h1        1 1RP      0.049700
     28 H6         -1.6040    1.1950   -1.2110 h1        1 1RP      0.171700
     29 H7         -2.9370    2.7830   -1.0040 ho        1 1RP      0.496000
     30 H8          0.5610    2.1120   -1.5560 h1        1 1RP      0.074700
     31 H9         -0.3140    4.0860    0.1160 ho        1 1RP      0.425000
     32 H10         1.6210    2.0330    1.1420 h2        1 1RP      0.112700
     33 H11        -0.2650   -0.5350   -1.0140 h4        1 1RP      0.333000
     34 H14         5.4360    0.5630   -0.0060 hn        1 1RP      0.294500
     35 H15         6.7110   -0.4570    0.4080 hn        1 1RP      0.294500
@<TRIPOS>BOND
     1    1    2 1   
     2    2    3 1   
     3    2    4 1   
     4    2    5 1   
     5    5    6 1   
     6    6    7 1   
     7    6   25 1   
     8    6   26 1   
     9    7    8 1   
    10    7    9 1   
    11    7   27 1   
    12    8   13 1   
    13    9   10 1   
    14    9   11 1   
    15    9   28 1   
    16   10   29 1   
    17   11   12 1   
    18   11   13 1   
    19   11   30 1   
    20   12   31 1   
    21   13   14 1   
    22   13   32 1   
    23   14   15 1   
    24   14   17 1   
    25   15   16 2   
    26   15   21 1   
    27   17   18 2   
    28   17   33 1   
    29   18   19 1   
    30   18   20 1   
    31   20   21 2   
    32   21   22 1   
    33   22   23 2   
    34   22   24 1   
    35   24   34 1   
    36   24   35 1   
@<TRIPOS>SUBSTRUCTURE
     1 1RP         1 TEMP              0 ****  ****    0 ROOT
