@<TRIPOS>MOLECULE
1RP
   36    37     1     0     0
SMALL
bcc


@<TRIPOS>ATOM
      1 OAG         0.0000    0.0000    0.0000 o         1 1RP     -0.497833
      2 PAX         1.6100    0.0000    0.0000 p5        1 1RP      0.814900
      3 OAH         2.1460    0.0000    1.5180 o         1 1RP     -0.497833
      4 OAC         2.1030   -1.2080   -0.6970 o         1 1RP     -0.497833
      5 O5'         2.1470    1.3140   -0.7590 os        1 1RP     -0.479200
      6 C5'         1.9280    1.5530   -2.1510 c3        1 1RP      0.300400
      7 C4'         2.5670    2.8860   -2.5450 c3        1 1RP      0.148100
      8 O4'         4.0070    2.7860   -2.5040 os        1 1RP     -0.371600
      9 C3'         2.2370    3.2250   -4.0160 c3        1 1RP      0.132100
     10 O3'         1.1440    4.1430   -4.0860 oh        1 1RP     -0.553800
     11 C2'         3.5300    3.8830   -4.5490 c3        1 1RP      0.114100
     12 O2'         3.2740    5.2270   -4.9640 oh        1 1RP     -0.546800
     13 C1'         4.4880    3.8640   -3.3370 c3        1 1RP      0.172500
     14 NAW         5.8600    3.5960   -3.7760 n         1 1RP      0.157000
     15 CAQ         6.8340    4.5080   -3.5640 c         1 1RP      0.514200
     16 OAD         6.5880    5.5630   -3.0070 o         1 1RP     -0.653500
     17 CAJ         6.1650    2.4330   -4.3900 cc        1 1RP     -0.303400
     18 CAP         7.4490    2.1730   -4.8050 cd        1 1RP      0.240100
     19 FAI         7.7200    0.9980   -5.4160 f         1 1RP     -0.160500
     20 NAL         8.4270    3.0440   -4.6200 nd        1 1RP     -0.596300
     21 CAR         8.1940    4.2000   -4.0190 cc        1 1RP      0.151300
     22 CAO         9.2870    5.1680   -3.8090 c         1 1RP      0.121800
     23 OAB         9.0640    6.2270   -3.2560 o         1 1RP     -0.593100
     24 NAA        10.5340    4.8770   -4.2310 nz        1 1RP      0.255600
     25 H3          2.3750    0.7530   -2.7290 h1        1 1RP     -0.014300
     26 H4          0.8640    1.5900   -2.3480 h1        1 1RP     -0.014300
     27 H5          2.2280    3.6810   -1.8920 h1        1 1RP      0.046700
     28 H6          2.0180    2.3210   -4.5720 h1        1 1RP      0.011700
     29 H7          0.5020    3.8210   -4.6970 ho        1 1RP      0.378000
     30 H8          3.9420    3.3000   -5.3640 h1        1 1RP      0.011700
     31 H9          3.3670    5.2900   -5.9000 ho        1 1RP      0.376000
     32 H10         4.4340    4.8040   -2.8010 h2        1 1RP      0.087700
     33 H11         5.3900    1.6960   -4.5550 h4        1 1RP      0.156000
     34 H14        10.8550    4.0460   -3.7740 hn        1 1RP      0.196467
     35 H15        11.1470    5.6370   -4.0100 hn        1 1RP      0.196467
     36 HAA3       10.5260    4.7310   -5.2210 hn        1 1RP      0.196467
@<TRIPOS>BOND
     1    1    2 1   
     2    2    3 1   
     3    2    4 1   
     4    2    5 1   
     5    5    6 1   
     6    6    7 1   
     7    6   25 1   
     8    6   26 1   
     9    7    8 1   
    10    7    9 1   
    11    7   27 1   
    12    8   13 1   
    13    9   10 1   
    14    9   11 1   
    15    9   28 1   
    16   10   29 1   
    17   11   12 1   
    18   11   13 1   
    19   11   30 1   
    20   12   31 1   
    21   13   14 1   
    22   13   32 1   
    23   14   15 1   
    24   14   17 1   
    25   15   16 2   
    26   15   21 1   
    27   17   18 2   
    28   17   33 1   
    29   18   19 1   
    30   18   20 1   
    31   20   21 2   
    32   21   22 1   
    33   22   23 2   
    34   22   24 1   
    35   24   34 1   
    36   24   35 1   
    37   24   36 1   
@<TRIPOS>SUBSTRUCTURE
     1 1RP         1 TEMP              0 ****  ****    0 ROOT
