@<TRIPOS>MOLECULE
1RP
   35    31     1     0     0
SMALL
bcc


@<TRIPOS>ATOM
      1 OAG        -1.0980    4.2130    2.5030 o         1 1RP     -1.259500
      2 PAX         0.4120    4.2130    2.5030 p3        1 1RP      2.526000
      3 OAH         0.9150    4.2130    3.9260 os        1 1RP     -1.222000
      4 OAC         0.9150    5.4460    1.7910 o         1 1RP     -1.259500
      5 O5'         0.9390    2.9220    1.7580 os        1 1RP     -0.712000
      6 C5'         0.3760    2.5910    0.5100 c3        1 1RP      0.080000
      7 C4'         1.4000    1.8970   -0.3300 c3        1 1RP     -0.065000
      8 O4'         1.4700    0.3430    0.0480 os        1 1RP     -0.288000
      9 C3'         1.0470    1.9270   -1.5980 c3        1 1RP      0.016000
     10 O3'         2.2240    1.9580   -2.4400 oh        1 1RP     -0.409000
     11 C2'         0.2100    0.5720   -1.8640 c3        1 1RP     -0.008000
     12 O2'         0.2540    0.2330   -3.2480 oh        1 1RP     -0.339000
     13 C1'         0.8090   -0.3950   -1.1290 c3        1 1RP      0.097000
     14 NAW        -0.1510   -1.3160   -0.6530 n3        1 1RP     -0.192000
     15 CAQ         0.1010   -2.0540    0.5310 c1        1 1RP      0.296000
     16 OAD         1.0650   -1.7860    1.2200 o         1 1RP     -0.394000
     17 CAJ        -1.3330   -1.5560   -1.4000 c2        1 1RP      0.023000
     18 CAP        -2.2870   -2.6510   -0.9750 c1        1 1RP     -0.044000
     19 FAI        -3.3660   -2.9250   -1.7180 f         1 1RP     -0.072000
     20 NAL        -2.0140   -3.4170    0.1890 n1        1 1RP     -0.025000
     21 CAR        -0.8420   -3.1620    0.9470 c1        1 1RP     -0.180000
     22 CAO        -0.5120   -4.0260    2.1440 c1        1 1RP      0.367000
     23 OAB         0.5100   -3.8290    2.7710 o         1 1RP     -0.367000
     24 NAA        -1.3640   -5.1040    2.4960 n2        1 1RP     -0.399000
     25 H3         -0.3890    1.9990    0.6460 h1        1 1RP      0.037500
     26 H4          0.0820    3.4050    0.0590 h1        1 1RP      0.037500
     27 H5          2.2750    2.3140   -0.2120 h1        1 1RP      0.122000
     28 H6          0.4880    2.7080   -1.7730 h1        1 1RP      0.160000
     29 H7          2.3080    2.7630   -2.8030 ho        1 1RP      0.317000
     30 H8         -0.7160    0.6870   -1.5760 h1        1 1RP      0.104000
     31 H9         -0.4260    0.6170   -3.6690 ho        1 1RP      0.232000
     32 H10         1.4850   -0.8550   -1.6620 h2        1 1RP      0.149000
     33 H11        -1.5070   -1.0480   -2.2150 h4        1 1RP      0.241000
     34 H14        -1.1570   -5.6340    3.2090 hn        1 1RP      0.214500
     35 H15        -2.1210   -5.2620    2.0140 hn        1 1RP      0.214500
@<TRIPOS>BOND
     1    1    2 1   
     2    2    4 1   
     3    2    5 1   
     4    5    6 1   
     5    6    7 1   
     6    6   25 1   
     7    6   26 1   
     8    7    8 1   
     9    7    9 1   
    10    7   27 1   
    11    8   13 1   
    12    9   10 1   
    13    9   11 1   
    14    9   28 1   
    15   10   29 1   
    16   11   12 1   
    17   11   13 1   
    18   11   30 1   
    19   12   31 1   
    20   13   14 1   
    21   13   32 1   
    22   14   15 1   
    23   14   17 1   
    24   15   16 1   
    25   17   18 1   
    26   17   33 1   
    27   18   19 1   
    28   20   21 1   
    29   22   23 1   
    30   24   34 1   
    31   24   35 1   
@<TRIPOS>SUBSTRUCTURE
     1 1RP         1 TEMP              0 ****  ****    0 ROOT
