@<TRIPOS>MOLECULE
1RQ
   67    73     1     0     0
SMALL
bcc


@<TRIPOS>ATOM
      1 C4          0.4060    0.6140   -0.0010 ca        1 1RQ      0.601800
      2 C5          1.8330    0.6410   -0.1130 ca        1 1RQ     -0.336600
      3 C6          2.5670    1.1090    0.9840 ca        1 1RQ      0.468200
      4 N1          1.9960    1.5490    2.1270 nb        1 1RQ     -0.684000
      5 N3         -0.2060    1.0380    1.1590 nb        1 1RQ     -0.711000
      6 CAQ         1.4040    0.7090   10.3310 cx        1 1RQ     -0.098400
      7 CAR         0.0170    0.1690   10.1740 cx        1 1RQ     -0.098400
      8 CBJ         0.9630    0.1540    9.0000 cx        1 1RQ     -0.229700
      9 CAY         0.7660    1.1050    7.8690 c         1 1RQ      0.691100
     10 OAA         1.4760    2.1130    7.7050 o         1 1RQ     -0.577100
     11 NBK        -0.3010    0.8750    6.9750 n         1 1RQ     -0.458800
     12 CAT        -0.4450    1.7360    5.8330 c3        1 1RQ      0.068000
     13 CAS        -0.9160   -0.4240    6.8200 c3        1 1RQ      0.074000
     14 CAO        -0.4900   -1.1470    5.5390 c3        1 1RQ     -0.107400
     15 CAP        -0.6550   -0.2640    4.3170 c3        1 1RQ     -0.094400
     16 CBI         0.0930    1.0530    4.5340 c3        1 1RQ      0.084500
     17 NAX        -0.0540    2.0000    3.3720 n4        1 1RQ     -0.736700
     18 C2          0.6260    1.4940    2.1390 ca        1 1RQ      0.733900
     19 NBL        -0.3880    0.1990   -1.0670 na        1 1RQ     -0.227100
     20 CBH        -0.1540   -0.9520   -1.8670 ca        1 1RQ     -0.034200
     21 CAN         0.9590   -1.7650   -2.0440 ca        1 1RQ     -0.175000
     22 CAZ         0.8250   -2.8220   -2.9630 ca        1 1RQ      0.165100
     23 OAB         1.9400   -3.6070   -3.1170 oh        1 1RQ     -0.488100
     24 CAG        -0.3680   -3.0620   -3.6730 ca        1 1RQ     -0.214000
     25 CAL        -1.4840   -2.2560   -3.4830 ca        1 1RQ     -0.012000
     26 CBG        -1.3950   -1.1990   -2.5740 ca        1 1RQ      0.040400
     27 NAW        -2.3670   -0.2410   -2.1900 nc        1 1RQ     -0.495100
     28 CBD        -1.7820    0.5550   -1.2960 cd        1 1RQ      0.494400
     29 CBA        -2.3980    1.7210   -0.6530 ca        1 1RQ     -0.123900
     30 CAM        -3.5750    1.5770    0.0500 ca        1 1RQ     -0.064000
     31 CBF        -4.1860    2.7080    0.6570 ca        1 1RQ     -0.055000
     32 CAJ        -5.4020    2.5910    1.3860 ca        1 1RQ     -0.118000
     33 CAD        -5.9820    3.7000    1.9530 ca        1 1RQ     -0.119000
     34 CAC        -5.3760    4.9720    1.8180 ca        1 1RQ     -0.109000
     35 CAI        -4.2020    5.1130    1.1190 ca        1 1RQ     -0.128000
     36 CBE        -3.5800    3.9830    0.5200 ca        1 1RQ     -0.035000
     37 CAK        -2.3780    4.1020   -0.2300 ca        1 1RQ     -0.123000
     38 CAH        -1.7970    3.0000   -0.8040 ca        1 1RQ     -0.119000
     39 H1          2.3400    0.3310   -1.0400 ha        1 1RQ      0.201000
     40 H2          3.6750    1.1560    0.9630 h4        1 1RQ      0.072100
     41 H5         -0.2480   -0.7950   10.6450 hc        1 1RQ      0.089700
     42 H6         -0.8360    0.8720   10.1670 hc        1 1RQ      0.089700
     43 H7          1.3890   -0.8120    8.6600 hc        1 1RQ      0.105700
     44 H8          0.1080    2.7010    6.0190 h1        1 1RQ      0.082700
     45 H9         -1.5430    1.9560    5.6950 h1        1 1RQ      0.082700
     46 H10        -0.6770   -1.0700    7.7110 h1        1 1RQ      0.075700
     47 H11        -2.0340   -0.2710    6.7970 h1        1 1RQ      0.075700
     48 H12         0.5750   -1.4860    5.6220 hc        1 1RQ      0.073700
     49 H13        -1.1280   -2.0620    5.4180 hc        1 1RQ      0.073700
     50 H14        -0.2570   -0.7970    3.4140 hc        1 1RQ      0.069200
     51 H15        -1.7470   -0.0630    4.1450 hc        1 1RQ      0.069200
     52 H16         1.2010    0.8490    4.6520 hx        1 1RQ      0.129700
     53 H17         0.3700    2.9020    3.6280 hn        1 1RQ      0.472800
     54 H18         1.9060   -1.6310   -1.5090 ha        1 1RQ      0.155000
     55 H19         1.7470   -4.2880   -3.7800 ho        1 1RQ      0.437000
     56 H20        -0.4150   -3.9000   -4.3860 ha        1 1RQ      0.155000
     57 H21        -2.4190   -2.4420   -4.0350 ha        1 1RQ      0.170000
     58 H22        -4.0650    0.5940    0.1390 ha        1 1RQ      0.154000
     59 H23        -5.8740    1.6000    1.4710 ha        1 1RQ      0.142000
     60 H24        -6.9280    3.6150    2.5080 ha        1 1RQ      0.147000
     61 H25        -5.8650    5.8480    2.2730 ha        1 1RQ      0.147000
     62 H26        -3.7330    6.1020    0.9960 ha        1 1RQ      0.142000
     63 H27        -1.9350    5.1020   -0.3610 ha        1 1RQ      0.145000
     64 H28        -0.8840    3.0970   -1.4100 ha        1 1RQ      0.141000
     65 H3          2.1480    0.1370   10.9160 hc        1 1RQ      0.089700
     66 HAX2       -1.0540    2.1400    3.1710 hn        1 1RQ      0.472800
     67 H4          1.5540    1.8010   10.4230 hc        1 1RQ      0.089700
@<TRIPOS>BOND
     1    1    2 ar  
     2    1    5 ar  
     3    1   19 1   
     4    2    3 ar  
     5    2   39 1   
     6    3    4 ar  
     7    3   40 1   
     8    4   18 ar  
     9    5   18 ar  
    10    6    7 1   
    11    6    8 1   
    12    6   65 1   
    13    6   67 1   
    14    7    8 1   
    15    7   41 1   
    16    7   42 1   
    17    8    9 1   
    18    8   43 1   
    19    9   10 2   
    20    9   11 1   
    21   11   12 1   
    22   11   13 1   
    23   12   16 1   
    24   12   44 1   
    25   12   45 1   
    26   13   14 1   
    27   13   46 1   
    28   13   47 1   
    29   14   15 1   
    30   14   48 1   
    31   14   49 1   
    32   15   16 1   
    33   15   50 1   
    34   15   51 1   
    35   16   17 1   
    36   16   52 1   
    37   17   18 1   
    38   17   53 1   
    39   17   66 1   
    40   19   20 1   
    41   19   28 1   
    42   20   21 ar  
    43   20   26 ar  
    44   21   22 ar  
    45   21   54 1   
    46   22   23 1   
    47   22   24 ar  
    48   23   55 1   
    49   24   25 ar  
    50   24   56 1   
    51   25   26 ar  
    52   25   57 1   
    53   26   27 1   
    54   27   28 2   
    55   28   29 1   
    56   29   30 ar  
    57   29   38 ar  
    58   30   31 ar  
    59   30   58 1   
    60   31   32 ar  
    61   31   36 ar  
    62   32   33 ar  
    63   32   59 1   
    64   33   34 ar  
    65   33   60 1   
    66   34   35 ar  
    67   34   61 1   
    68   35   36 ar  
    69   35   62 1   
    70   36   37 ar  
    71   37   38 ar  
    72   37   63 1   
    73   38   64 1   
@<TRIPOS>SUBSTRUCTURE
     1 1RQ         1 TEMP              0 ****  ****    0 ROOT
