@<TRIPOS>MOLECULE
1RQ
   66    66     1     0     0
SMALL
bcc


@<TRIPOS>ATOM
      1 C4         -0.2190    0.5600    0.9700 c2        1 1RQ      0.194000
      2 C5          0.8970    0.4880    1.8270 c2        1 1RQ     -0.314000
      3 C6          0.6770    0.3700    3.2160 c1        1 1RQ     -0.149000
      4 N1         -0.5840    0.3820    3.6820 n7        1 1RQ     -0.177000
      5 N3         -1.5120    0.5830    1.4430 n2        1 1RQ     -0.259000
      6 CAQ         2.0080    1.1940    8.8830 c2        1 1RQ     -0.182000
      7 CAR         3.1940   -0.8950    8.2450 c3        1 1RQ     -0.189000
      8 CBJ         2.2790    0.2400    7.9880 c2        1 1RQ     -0.104000
      9 OAA         0.3950    0.3760    6.5170 o         1 1RQ     -0.363000
     10 NBK         2.4230    0.2400    5.4670 ns        1 1RQ     -0.270000
     11 CAT        -4.2910    1.2080    5.3260 c3        1 1RQ     -0.183000
     12 CAS         3.7350    0.1740    5.5200 c1        1 1RQ     -0.151000
     13 CAO        -3.3320   -1.2500    6.5520 c3        1 1RQ     -0.176000
     14 CAP        -2.9280   -0.8540    5.1900 c2        1 1RQ     -0.207000
     15 CBI        -3.3400    0.2980    4.6070 c2        1 1RQ     -0.005000
     16 C2         -1.6920    0.5350    2.8070 c2        1 1RQ      0.206000
     17 NBL        -0.0410    0.6220   -0.4380 na        1 1RQ     -0.115000
     18 CBH         0.8180   -0.1930   -1.2050 c2        1 1RQ     -0.005000
     19 CAN         1.5730   -1.3060   -0.6930 c2        1 1RQ     -0.246000
     20 CAZ         1.8090   -2.4110   -1.4300 c2        1 1RQ      0.024000
     21 OAB         2.5420   -3.4790   -0.9990 oh        1 1RQ     -0.251000
     22 CAG         1.1810    0.0350   -4.9520 c1        1 1RQ      0.239000
     23 CAL         1.4510   -0.1880   -3.6790 c2        1 1RQ     -0.415000
     24 CBG         0.7170    0.2890   -2.5370 c2        1 1RQ     -0.047000
     25 NAW        -0.1990    1.3480   -2.6010 n2        1 1RQ     -0.116000
     26 CBD        -0.6570    1.5240   -1.3420 c2        1 1RQ      0.044000
     27 CBA        -1.6740    2.5020   -0.9390 c2        1 1RQ     -0.299000
     28 CAM        -2.9970    1.9560   -0.6950 c2        1 1RQ     -0.008000
     29 CBF        -3.9200    2.5370    0.0950 c2        1 1RQ     -0.110000
     30 CAJ        -5.1700    1.8310    0.5070 c3        1 1RQ     -0.180000
     31 CAD        -5.1920    1.6640    1.9580 c1        1 1RQ     -0.132000
     32 CAC        -5.2470    3.9230    2.7310 c1        1 1RQ      0.196000
     33 CAI        -4.0510    3.7690    2.1900 c2        1 1RQ     -0.382000
     34 CBE        -3.7170    3.8220    0.7630 c2        1 1RQ     -0.014000
     35 CAK        -3.2510    4.9250    0.1570 c2        1 1RQ     -0.186000
     36 CAH        -1.3510    3.7960   -0.8250 c1        1 1RQ      0.249000
     37 H1          1.9290    0.5390    1.4600 ha        1 1RQ      0.167000
     38 H2         -0.7330    0.3080    4.6760 hn        1 1RQ      0.294000
     39 H4          1.3270    2.0270    8.6690 ha        1 1RQ      0.122000
     40 H5          2.7020   -1.8620    7.9760 hc        1 1RQ      0.097667
     41 H6          3.4850   -0.9330    9.3240 hc        1 1RQ      0.097667
     42 H7          4.1200   -0.7800    7.6210 hc        1 1RQ      0.097667
     43 H8         -3.7330    1.7810    6.1080 hc        1 1RQ      0.090667
     44 H9          1.8640    0.2790    4.5870 hn        1 1RQ      0.271000
     45 H10        -4.7920    1.9350    4.6380 hc        1 1RQ      0.090667
     46 H11        -5.0830    0.6000    5.8290 hc        1 1RQ      0.090667
     47 H12         4.2250    0.1590    4.5200 ha        1 1RQ      0.038000
     48 H13        -4.4030   -1.5770    6.5620 hc        1 1RQ      0.085000
     49 H14        -3.2230   -0.3970    7.2690 hc        1 1RQ      0.085000
     50 H15        -2.7010   -2.0970    6.9180 hc        1 1RQ      0.085000
     51 H16        -2.2640   -1.5610    4.6670 ha        1 1RQ      0.131000
     52 H18         1.9460   -1.2340    0.3430 ha        1 1RQ      0.149000
     53 H19         2.8390   -3.3230   -0.0890 ho        1 1RQ      0.220000
     54 H20         1.4460   -2.5950   -2.4560 h4        1 1RQ      0.177000
     55 H21         2.3550   -0.7900   -3.4370 ha        1 1RQ      0.192000
     56 H22        -3.1920    0.9710   -1.1550 ha        1 1RQ      0.153000
     57 H23        -6.0630    2.3660    0.0780 hc        1 1RQ      0.123000
     58 H24        -5.1880    0.7760    0.0920 hc        1 1RQ      0.123000
     59 H25        -6.1700    1.6970    2.4610 ha        1 1RQ      0.085000
     60 H26        -3.1840    3.5470    2.8560 ha        1 1RQ      0.223000
     61 H27        -3.0390    5.8520    0.7060 ha        1 1RQ      0.146500
     62 H28        -3.1310    4.9980   -0.9380 ha        1 1RQ      0.146500
     63 NAX        -2.9710    0.7040    3.3080 n7        1 1RQ     -0.311000
     64 CAY         1.6310    0.2860    6.6470 c2        1 1RQ      0.355000
     65 H3          2.4600    1.1950    9.8840 ha        1 1RQ      0.122000
     66 H17        -3.7560    1.0440    2.6810 hn        1 1RQ      0.335000
@<TRIPOS>BOND
     1    1    2 1   
     2    1    5 1   
     3    1   17 1   
     4    2    3 1   
     5    2   37 1   
     6    3    4 1   
     7    4   16 1   
     8    4   38 1   
     9    5   16 1   
    10    6    8 1   
    11    6   39 1   
    12    6   65 1   
    13    7    8 1   
    14    7   40 1   
    15    7   41 1   
    16    7   42 1   
    17    8   64 1   
    18    9   64 1   
    19   10   12 1   
    20   10   44 1   
    21   10   64 1   
    22   11   15 1   
    23   11   43 1   
    24   11   45 1   
    25   11   46 1   
    26   12   47 1   
    27   13   14 1   
    28   13   48 1   
    29   13   49 1   
    30   13   50 1   
    31   14   15 1   
    32   14   51 1   
    33   15   63 1   
    34   16   63 1   
    35   17   18 1   
    36   17   26 1   
    37   18   19 1   
    38   18   24 1   
    39   19   20 1   
    40   19   52 1   
    41   20   21 1   
    42   20   54 1   
    43   21   53 1   
    44   22   23 1   
    45   23   24 1   
    46   23   55 1   
    47   24   25 1   
    48   25   26 1   
    49   26   27 1   
    50   27   28 1   
    51   27   36 1   
    52   28   29 1   
    53   28   56 1   
    54   29   30 1   
    55   29   34 1   
    56   30   31 1   
    57   30   57 1   
    58   30   58 1   
    59   31   59 1   
    60   32   33 1   
    61   33   34 1   
    62   33   60 1   
    63   34   35 1   
    64   35   61 1   
    65   35   62 1   
    66   63   66 1   
@<TRIPOS>SUBSTRUCTURE
     1 1RQ         1 TEMP              0 ****  ****    0 ROOT
