@<TRIPOS>MOLECULE
1RS
   33    36     1     0     0
SMALL
bcc


@<TRIPOS>ATOM
      1 C2          0.5490    2.2790    0.0020 cc        1 1RS      0.392700
      2 N3         -0.6730    2.8310    0.0030 nd        1 1RS     -0.540100
      3 C4         -1.5680    1.7470    0.0020 ca        1 1RS     -0.089900
      4 C5         -2.9910    1.7140    0.0020 ca        1 1RS      0.484200
      5 N6         -3.6960    0.5900    0.0010 nb        1 1RS     -0.685000
      6 C7         -2.9770   -0.5860    0.0000 ca        1 1RS      0.421800
      7 C8         -1.5250   -0.7090   -0.0000 ca        1 1RS     -0.193100
      8 C9         -0.8220    0.5010    0.0010 ca        1 1RS     -0.002200
      9 N10         0.5250    0.8630    0.0010 na        1 1RS     -0.152300
     10 C11         1.6710   -0.0140   -0.0010 c3        1 1RS      0.059000
     11 C12         2.5470    0.1530    1.2540 c3        1 1RS     -0.131400
     12 C13         3.7140   -0.8360    1.2030 c3        1 1RS      0.151800
     13 N14         4.5170   -0.7890   -0.0020 n3        1 1RS     -0.799200
     14 C15         3.7130   -0.8330   -1.2060 c3        1 1RS      0.151800
     15 C16         2.5470    0.1550   -1.2550 c3        1 1RS     -0.131400
     16 C17        -1.2250   -2.1130   -0.0020 cc        1 1RS     -0.178200
     17 C18        -2.4440   -2.7920   -0.0020 cd        1 1RS     -0.117100
     18 N19        -3.5040   -1.8850   -0.0010 na        1 1RS     -0.272100
     19 H1          1.4960    2.8320    0.0020 h5        1 1RS      0.067800
     20 H2         -3.5690    2.6560    0.0030 h4        1 1RS      0.037100
     21 H4          1.2660   -1.0730   -0.0010 h1        1 1RS      0.077700
     22 H5          2.9330    1.2030    1.3140 hc        1 1RS      0.057200
     23 H6          1.9430   -0.0440    2.1760 hc        1 1RS      0.057200
     24 H7          4.3860   -0.6500    2.0870 h1        1 1RS      0.057700
     25 H8          3.3050   -1.8820    1.2950 h1        1 1RS      0.057700
     26 H9          5.0880    0.0380   -0.0010 hn        1 1RS      0.353800
     27 H11         4.3850   -0.6460   -2.0900 h1        1 1RS      0.057700
     28 H12         3.3040   -1.8800   -1.3000 h1        1 1RS      0.057700
     29 H13         1.9430   -0.0400   -2.1770 hc        1 1RS      0.057200
     30 H14         2.9320    1.2060   -1.3130 hc        1 1RS      0.057200
     31 H15        -0.2400   -2.5690   -0.0020 ha        1 1RS      0.152000
     32 H16        -2.6370   -3.8660   -0.0030 h4        1 1RS      0.169000
     33 H3         -4.4640   -2.1080   -0.0010 hn        1 1RS      0.310700
@<TRIPOS>BOND
     1    1    2 2   
     2    1    9 1   
     3    1   19 1   
     4    2    3 1   
     5    3    4 ar  
     6    3    8 ar  
     7    4    5 ar  
     8    4   20 1   
     9    5    6 ar  
    10    6    7 ar  
    11    6   18 1   
    12    7    8 ar  
    13    7   16 1   
    14    8    9 1   
    15    9   10 1   
    16   10   11 1   
    17   10   15 1   
    18   10   21 1   
    19   11   12 1   
    20   11   22 1   
    21   11   23 1   
    22   12   13 1   
    23   12   24 1   
    24   12   25 1   
    25   13   14 1   
    26   13   26 1   
    27   14   15 1   
    28   14   27 1   
    29   14   28 1   
    30   15   29 1   
    31   15   30 1   
    32   16   17 2   
    33   16   31 1   
    34   17   18 1   
    35   17   32 1   
    36   18   33 1   
@<TRIPOS>SUBSTRUCTURE
     1 1RS         1 TEMP              0 ****  ****    0 ROOT
