@<TRIPOS>MOLECULE
1RS
   33    36     1     0     0
SMALL
bcc


@<TRIPOS>ATOM
      1 C2          0.0800    0.0020   -0.0430 cc        1 1RS      0.395700
      2 N3          1.4220   -0.0010   -0.0480 nd        1 1RS     -0.542100
      3 C4          1.7970   -0.0020    1.3060 ca        1 1RS     -0.088900
      4 C5          3.0820   -0.0050    1.9170 ca        1 1RS      0.484200
      5 N6          3.2680   -0.0060    3.2310 nb        1 1RS     -0.685000
      6 C7          2.1320   -0.0040    4.0110 ca        1 1RS      0.421800
      7 C8          0.7560   -0.0010    3.5310 ca        1 1RS     -0.193100
      8 C9          0.6070    0.0000    2.1400 ca        1 1RS     -0.003200
      9 N10        -0.4750    0.0030    1.2600 na        1 1RS     -0.151300
     10 C11        -1.8790    0.0060    1.5930 c3        1 1RS      0.057000
     11 C12        -2.6140   -1.2430    1.0750 c3        1 1RS     -0.092400
     12 C13        -4.0770   -1.2020    1.5090 c3        1 1RS      0.163800
     13 N14        -4.7570    0.0120    1.1050 n3        1 1RS     -0.823200
     14 C15        -4.0720    1.2230    1.5100 c3        1 1RS      0.163800
     15 C16        -2.6080    1.2580    1.0750 c3        1 1RS     -0.092400
     16 C17        -0.0900    0.0010    4.6910 cc        1 1RS     -0.178200
     17 C18         0.7460   -0.0010    5.8080 cd        1 1RS     -0.118100
     18 N19         2.0830   -0.0040    5.4130 na        1 1RS     -0.272100
     19 H1         -0.5600    0.0040   -0.9330 h5        1 1RS      0.071800
     20 H2          3.9940   -0.0070    1.2920 h4        1 1RS      0.037100
     21 H4         -1.9420    0.0060    2.7240 h1        1 1RS      0.072700
     22 H5         -2.1450   -2.1720    1.4900 hc        1 1RS      0.061200
     23 H6         -2.5460   -1.2900   -0.0430 hc        1 1RS      0.061200
     24 H7         -4.1160   -1.3590    2.6290 h1        1 1RS      0.032700
     25 H8         -4.6190   -2.0650    1.0280 h1        1 1RS      0.032700
     26 H9         -5.6970    0.0140    1.4530 hn        1 1RS      0.368800
     27 H11        -4.6100    2.0890    1.0280 h1        1 1RS      0.032700
     28 H12        -4.1100    1.3800    2.6290 h1        1 1RS      0.032700
     29 H13        -2.5410    1.3050   -0.0420 hc        1 1RS      0.061200
     30 H14        -2.1350    2.1840    1.4910 hc        1 1RS      0.061200
     31 H15        -1.1750    0.0030    4.7060 ha        1 1RS      0.151000
     32 H16         0.4850   -0.0010    6.8680 h4        1 1RS      0.168000
     33 H3          2.8690   -0.0060    6.0070 hn        1 1RS      0.309700
@<TRIPOS>BOND
     1    1    2 2   
     2    1    9 1   
     3    1   19 1   
     4    2    3 1   
     5    3    4 ar  
     6    3    8 ar  
     7    4    5 ar  
     8    4   20 1   
     9    5    6 ar  
    10    6    7 ar  
    11    6   18 1   
    12    7    8 ar  
    13    7   16 1   
    14    8    9 1   
    15    9   10 1   
    16   10   11 1   
    17   10   15 1   
    18   10   21 1   
    19   11   12 1   
    20   11   22 1   
    21   11   23 1   
    22   12   13 1   
    23   12   24 1   
    24   12   25 1   
    25   13   14 1   
    26   13   26 1   
    27   14   15 1   
    28   14   27 1   
    29   14   28 1   
    30   15   29 1   
    31   15   30 1   
    32   16   17 2   
    33   16   31 1   
    34   17   18 1   
    35   17   32 1   
    36   18   33 1   
@<TRIPOS>SUBSTRUCTURE
     1 1RS         1 TEMP              0 ****  ****    0 ROOT
