@<TRIPOS>MOLECULE
1RS
   33    25     1     0     0
SMALL
bcc


@<TRIPOS>ATOM
      1 C2          0.9090    0.5430   -2.1010 c1        1 1RS     -0.061000
      2 N3          2.2490    0.7370   -2.0790 n2        1 1RS     -0.114000
      3 C4          2.6490    0.7940   -0.7700 c1        1 1RS     -0.165000
      4 C5          3.9010    1.0330   -0.1820 c1        1 1RS      0.019000
      5 N6          4.0130    1.1060    1.1890 n1        1 1RS     -0.160000
      6 C7          2.8870    0.9420    1.9930 c1        1 1RS     -0.043000
      7 C8          1.6750    0.7100    1.4250 c1        1 1RS     -0.043000
      8 C9          1.5550    0.6340    0.0090 c1        1 1RS      0.044000
      9 N10         0.4720    0.4780   -0.8140 n1        1 1RS     -0.179000
     10 C11        -0.9140   -0.2870   -1.2690 c2        1 1RS      0.049000
     11 C12        -1.9400    0.6640   -1.1190 c3        1 1RS     -0.178500
     12 C13        -3.3040    0.0040   -1.0630 c3        1 1RS     -0.071500
     13 N14        -3.3100   -1.5190   -1.6730 n3        1 1RS     -0.306000
     14 C15        -2.2630   -2.1410   -0.5950 c3        1 1RS     -0.071500
     15 C16        -0.8840   -1.5020   -0.6500 c3        1 1RS     -0.178500
     16 C17         0.7600    0.5390    2.4340 c1        1 1RS     -0.193000
     17 C18         1.4280    0.6700    3.6420 c1        1 1RS     -0.092000
     18 N19         2.7270    0.9160    3.3760 n1        1 1RS     -0.186000
     19 H1          0.3100    0.5080   -2.9550 DU        1 1RS      0.195250
     20 H2          4.6950    1.0540   -0.7320 ha        1 1RS      0.174000
     21 H4         -0.8430   -0.4650   -2.2270 ha        1 1RS      0.112000
     22 H5         -1.9140    1.2870   -1.8810 hc        1 1RS      0.101250
     23 H6         -1.7830    1.1940   -0.2430 hc        1 1RS      0.101250
     24 H7         -3.6160   -0.0300   -0.0850 h1        1 1RS      0.073250
     25 H8         -3.9350    0.5470   -1.5710 h1        1 1RS      0.073250
     26 H9         -4.1360   -1.8970   -1.5470 hn        1 1RS      0.163000
     27 H11        -2.1710   -3.0860   -0.7620 h1        1 1RS      0.073250
     28 H12        -2.6360   -2.0130    0.3220 h1        1 1RS      0.073250
     29 H13        -0.2610   -2.1130   -1.1510 hc        1 1RS      0.101250
     30 H14        -0.5480   -1.3850    0.2670 hc        1 1RS      0.101250
     31 H15        -0.1540    0.3650    2.3260 DU        1 1RS      0.195250
     32 H16         1.0190    0.6780    4.5180 DU        1 1RS      0.195250
     33 H3          3.3610    1.0370    3.9700 DU        1 1RS      0.195250
@<TRIPOS>BOND
     1    1    2 1   
     2    1    9 1   
     3    2    3 1   
     4    3    8 1   
     5    4    5 1   
     6    4   20 1   
     7    6    7 1   
     8   10   11 1   
     9   10   15 1   
    10   10   21 1   
    11   11   12 1   
    12   11   22 1   
    13   11   23 1   
    14   12   13 1   
    15   12   24 1   
    16   12   25 1   
    17   13   14 1   
    18   13   26 1   
    19   14   15 1   
    20   14   27 1   
    21   14   28 1   
    22   15   29 1   
    23   15   30 1   
    24   16   17 1   
    25   17   18 1   
@<TRIPOS>SUBSTRUCTURE
     1 1RS         1 TEMP              0 ****  ****    0 ROOT
