@<TRIPOS>MOLECULE
1RT
   15    11     1     0     0
SMALL
bcc


@<TRIPOS>ATOM
      1 N1         -0.6220   -0.0570   -2.0750 n3        1 1RT     -0.337000
      2 C2          0.8380   -0.0010   -2.1070 c1        1 1RT      0.348000
      3 O2          1.4190    0.0730   -3.1710 o         1 1RT     -0.427000
      4 N3          1.5990   -0.0490   -0.8620 n1        1 1RT     -0.362000
      5 C4          0.9260    0.0300    0.3850 c1        1 1RT      0.249000
      6 N4          1.6660   -0.0100    1.5950 n2        1 1RT     -0.359000
      7 C5         -0.5440    0.0570    0.4220 c1        1 1RT     -0.294000
      8 C6         -1.3070    0.0060   -0.8340 c2        1 1RT      0.041000
      9 C21        -1.2680    0.0090    1.7500 c1        1 1RT      0.382000
     10 O22        -1.5510   -1.1000    2.2720 o         1 1RT     -0.581000
     11 O23        -1.5900    1.0790    2.3300 os        1 1RT     -0.562000
     12 H1          1.2290    0.0000    2.3980 hn        1 1RT      0.248500
     13 H2          2.5790   -0.0310    1.5710 hn        1 1RT      0.248500
     14 H4         -2.2810    0.0800   -0.8170 h4        1 1RT      0.177000
     15 H6         -1.0940   -0.0880   -2.8550 hn        1 1RT      0.229000
@<TRIPOS>BOND
     1    1    2 1   
     2    1    8 1   
     3    1   15 1   
     4    2    3 1   
     5    4    5 1   
     6    5    7 1   
     7    6   12 1   
     8    6   13 1   
     9    7    8 1   
    10    8   14 1   
    11    9   10 1   
@<TRIPOS>SUBSTRUCTURE
     1 1RT         1 TEMP              0 ****  ****    0 ROOT
