@<TRIPOS>MOLECULE
1RT
   15    15     1     0     0
SMALL
bcc


@<TRIPOS>ATOM
      1 N1          1.5850   -1.3230   -0.0120 n         1 1RT     -0.493100
      2 C2          2.2400   -0.0520   -0.0110 c         1 1RT      0.829900
      3 O2          3.4970   -0.0840   -0.0270 o         1 1RT     -0.702500
      4 N3          1.4980    1.1230    0.0080 nc        1 1RT     -0.789100
      5 C4          0.1400    1.0380    0.0320 cd        1 1RT      0.775500
      6 N4         -0.5900    2.1910    0.1060 nh        1 1RT     -0.920800
      7 C5         -0.5640   -0.2510    0.0040 cd        1 1RT     -0.399800
      8 C6          0.2150   -1.3830   -0.0110 cc        1 1RT      0.043600
      9 C21        -2.0670   -0.4250   -0.0230 c         1 1RT      0.931800
     10 O22        -2.5070   -1.6090    0.0320 o         1 1RT     -0.836800
     11 O23        -2.8230    0.5890   -0.1100 o         1 1RT     -0.836800
     12 H1         -1.5880    2.1140    0.0440 hn        1 1RT      0.453300
     13 H2         -0.1480    3.0720    0.0430 hn        1 1RT      0.453300
     14 H4         -0.2670   -2.3820   -0.0250 h4        1 1RT      0.177000
     15 H6          2.1350   -2.1470   -0.0240 hn        1 1RT      0.315500
@<TRIPOS>BOND
     1    1    2 1   
     2    1    8 1   
     3    1   15 1   
     4    2    3 2   
     5    2    4 1   
     6    4    5 2   
     7    5    6 1   
     8    5    7 1   
     9    6   12 1   
    10    6   13 1   
    11    7    8 2   
    12    7    9 1   
    13    8   14 1   
    14    9   10 1   
    15    9   11 1   
@<TRIPOS>SUBSTRUCTURE
     1 1RT         1 TEMP              0 ****  ****    0 ROOT
