@<TRIPOS>MOLECULE
1RT
   16    16     1     0     0
SMALL
bcc


@<TRIPOS>ATOM
      1 N1         -0.0880   -0.1790   -0.0070 ns        1 1RT     -0.463100
      2 C2          1.3430   -0.0190   -0.1760 c         1 1RT      0.832900
      3 O2          1.7600   -0.0900   -1.3450 o         1 1RT     -0.590500
      4 N3          2.1510    0.2190    0.9410 nc        1 1RT     -0.714100
      5 C4          1.5920    0.2340    2.1640 cd        1 1RT      0.771500
      6 N4          2.3940    0.4260    3.2720 nv        1 1RT     -0.914800
      7 C5          0.1550    0.0160    2.3610 cd        1 1RT     -0.492800
      8 C6         -0.6330   -0.1440    1.2300 cc        1 1RT      0.138600
      9 C21        -0.4880    0.0180    3.6740 c         1 1RT      0.658300
     10 O22         0.0820   -0.6670    4.7130 oh        1 1RT     -0.586100
     11 O23        -1.5360    0.5880    3.9810 o         1 1RT     -0.488000
     12 H1          1.9530    0.7380    4.1060 hn        1 1RT      0.442800
     13 H2          0.7540   -1.2810    4.3830 ho        1 1RT      0.438000
     14 H4         -1.7340   -0.2540    1.3250 h4        1 1RT      0.177000
     15 H6         -0.6500   -0.3010   -0.8210 hn        1 1RT      0.348500
     16 H43         3.3440    0.6870    3.1350 hn        1 1RT      0.442800
@<TRIPOS>BOND
     1    1    2 1   
     2    1    8 1   
     3    1   15 1   
     4    2    3 2   
     5    2    4 1   
     6    4    5 2   
     7    5    6 1   
     8    5    7 1   
     9    6   12 1   
    10    6   16 1   
    11    7    8 2   
    12    7    9 1   
    13    8   14 1   
    14    9   10 1   
    15    9   11 2   
    16   10   13 1   
@<TRIPOS>SUBSTRUCTURE
     1 1RT         1 TEMP              0 ****  ****    0 ROOT
