@<TRIPOS>MOLECULE
1RT
   16    16     1     0     0
SMALL
bcc


@<TRIPOS>ATOM
      1 N1         -0.0280   -0.1540   -0.0290 n         1 1RT     -0.463100
      2 C2          1.4090   -0.0160   -0.1540 c         1 1RT      0.832900
      3 O2          1.8600   -0.0870   -1.3110 o         1 1RT     -0.590500
      4 N3          2.1870    0.2010    0.9880 nc        1 1RT     -0.714100
      5 C4          1.5920    0.2180    2.1940 cd        1 1RT      0.771500
      6 N4          2.3640    0.3900    3.3260 nh        1 1RT     -0.914800
      7 C5          0.1460    0.0220    2.3460 cd        1 1RT     -0.492800
      8 C6         -0.6100   -0.1170    1.1910 cc        1 1RT      0.138600
      9 C21        -0.5350    0.0270    3.6390 c         1 1RT      0.658300
     10 O22        -0.0090   -0.6740    4.6910 oh        1 1RT     -0.586100
     11 O23        -1.5840    0.6110    3.9180 o         1 1RT     -0.488000
     12 H1          0.6630   -1.2960    4.3760 ho        1 1RT      0.438000
     13 H2          3.3210    0.6360    3.2200 hn        1 1RT      0.442800
     14 H4         -1.7140   -0.2100    1.2520 h4        1 1RT      0.177000
     15 H6         -0.5670   -0.2610   -0.8610 hn        1 1RT      0.348500
     16 H43         1.9020    0.7030    4.1490 hn        1 1RT      0.442800
@<TRIPOS>BOND
     1    1    2 1   
     2    1    8 1   
     3    1   15 1   
     4    2    3 2   
     5    2    4 1   
     6    4    5 2   
     7    5    6 1   
     8    5    7 1   
     9    6   13 1   
    10    6   16 1   
    11    7    8 2   
    12    7    9 1   
    13    8   14 1   
    14    9   10 1   
    15    9   11 2   
    16   10   12 1   
@<TRIPOS>SUBSTRUCTURE
     1 1RT         1 TEMP              0 ****  ****    0 ROOT
