@<TRIPOS>MOLECULE
1RU
   55    59     1     0     0
SMALL
bcc


@<TRIPOS>ATOM
      1 F12         2.7670    1.5650    1.3910 f         1 1RU     -0.123900
      2 C5          3.4180    0.8400    0.4510 ca        1 1RU      0.129900
      3 C6          4.7040    0.3540    0.7480 ca        1 1RU     -0.147000
      4 C4          5.3880   -0.3950   -0.1960 ca        1 1RU     -0.102000
      5 C2          4.8050   -0.6620   -1.4390 ca        1 1RU      0.016400
      6 Cl2         5.7210   -1.6010   -2.5270 cl        1 1RU     -0.077400
      7 C3          2.8280    0.5670   -0.8050 ca        1 1RU      0.005400
      8 Cl1         1.2630    1.1650   -1.1020 cl        1 1RU     -0.058400
      9 C1          3.5250   -0.1820   -1.7700 ca        1 1RU     -0.062300
     10 C7          2.9490   -0.5030   -3.1260 c3        1 1RU      0.176400
     11 C8          1.7550   -1.4390   -3.0430 c3        1 1RU     -0.096100
     12 O9          2.4840    0.6840   -3.8050 os        1 1RU     -0.311900
     13 C13         3.4540    1.3390   -4.5390 ca        1 1RU     -0.095200
     14 C18         4.0710    0.7920   -5.6600 ca        1 1RU      0.107100
     15 O19         3.9620   -0.5060   -6.1470 os        1 1RU     -0.195200
     16 C20         4.7900   -0.5560   -7.2870 cc        1 1RU     -0.045900
     17 C21         5.4100    0.6530   -7.5280 cd        1 1RU      0.014600
     18 C17         4.9620    1.5580   -6.4770 ca        1 1RU     -0.259100
     19 C16         5.1870    2.8900   -6.1050 ca        1 1RU      0.488200
     20 N15         4.6120    3.4590   -5.0430 nb        1 1RU     -0.734000
     21 C14         3.7690    2.7130   -4.2410 ca        1 1RU      0.666200
     22 N22         3.2570    3.2950   -3.0870 nv        1 1RU     -0.933500
     23 C23         6.3060    0.9570   -8.5880 cd        1 1RU     -0.206100
     24 C27         7.0730    0.0580   -9.3560 cc        1 1RU     -0.129300
     25 N26         7.7880    0.8260  -10.2790 na        1 1RU      0.092400
     26 N25         7.5240    2.1380  -10.1480 nc        1 1RU     -0.507800
     27 C24         6.6320    2.2610   -9.1360 cd        1 1RU      0.314200
     28 C28         8.7170    0.2790  -11.2690 c3        1 1RU      0.064000
     29 C33         9.8940   -0.4560  -10.6090 c3        1 1RU     -0.093400
     30 C32        10.8420   -0.9820  -11.6840 c3        1 1RU      0.162800
     31 N31        10.1800   -1.8170  -12.6670 n7        1 1RU     -0.824200
     32 C30         9.0240   -1.1900  -13.2760 c3        1 1RU      0.162800
     33 C29         8.0160   -0.6710  -12.2520 c3        1 1RU     -0.093400
     34 H1          5.1530    0.5770    1.7280 ha        1 1RU      0.159000
     35 H2          6.3950   -0.7780    0.0360 ha        1 1RU      0.157000
     36 H3          3.7420   -0.9880   -3.7680 h1        1 1RU      0.082700
     37 H4          2.0200   -2.3220   -2.4150 hc        1 1RU      0.054367
     38 H5          1.4860   -1.7830   -4.0710 hc        1 1RU      0.054367
     39 H6          0.8670   -0.9270   -2.6030 hc        1 1RU      0.054367
     40 H7          4.7900   -1.5260   -7.7750 h4        1 1RU      0.191000
     41 H8          5.8630    3.5430   -6.6870 h4        1 1RU      0.029100
     42 H9          2.4550    2.8450   -2.7070 hn        1 1RU      0.425800
     43 H10         3.2780    4.2860   -3.0250 hn        1 1RU      0.425800
     44 H11         7.1610   -1.0270   -9.3070 h4        1 1RU      0.178000
     45 H12         6.2370    3.2300   -8.8280 h4        1 1RU      0.045100
     46 H13         9.1350    1.1500  -11.8610 h1        1 1RU      0.087700
     47 H14         9.5150   -1.3050   -9.9830 hc        1 1RU      0.060950
     48 H15        10.4630    0.2410   -9.9410 hc        1 1RU      0.060950
     49 H16        11.3610   -0.0970  -12.1590 h1        1 1RU      0.034700
     50 H17        11.6330   -1.6130  -11.1880 h1        1 1RU      0.034700
     51 H18        10.8320   -2.1000  -13.3750 hn        1 1RU      0.369800
     52 H20         9.3120   -0.3310  -13.9520 h1        1 1RU      0.034700
     53 H21         8.5180   -1.9690  -13.9140 h1        1 1RU      0.034700
     54 H22         7.1990   -0.1330  -12.7970 hc        1 1RU      0.060950
     55 H23         7.5570   -1.5290  -11.6970 hc        1 1RU      0.060950
@<TRIPOS>BOND
     1    1    2 1   
     2    2    3 ar  
     3    2    7 ar  
     4    3    4 ar  
     5    3   34 1   
     6    4    5 ar  
     7    4   35 1   
     8    5    6 1   
     9    5    9 ar  
    10    7    8 1   
    11    7    9 ar  
    12    9   10 1   
    13   10   11 1   
    14   10   12 1   
    15   10   36 1   
    16   11   37 1   
    17   11   38 1   
    18   11   39 1   
    19   12   13 1   
    20   13   14 ar  
    21   13   21 ar  
    22   14   15 1   
    23   14   18 ar  
    24   15   16 1   
    25   16   17 2   
    26   16   40 1   
    27   17   18 1   
    28   17   23 1   
    29   18   19 ar  
    30   19   20 ar  
    31   19   41 1   
    32   20   21 ar  
    33   21   22 1   
    34   22   42 1   
    35   22   43 1   
    36   23   24 2   
    37   23   27 1   
    38   24   25 1   
    39   24   44 1   
    40   25   26 1   
    41   25   28 1   
    42   26   27 2   
    43   27   45 1   
    44   28   29 1   
    45   28   33 1   
    46   28   46 1   
    47   29   30 1   
    48   29   47 1   
    49   29   48 1   
    50   30   31 1   
    51   30   49 1   
    52   30   50 1   
    53   31   32 1   
    54   31   51 1   
    55   32   33 1   
    56   32   52 1   
    57   32   53 1   
    58   33   54 1   
    59   33   55 1   
@<TRIPOS>SUBSTRUCTURE
     1 1RU         1 TEMP              0 ****  ****    0 ROOT
