@<TRIPOS>MOLECULE
1RU
   56    60     1     0     0
SMALL
bcc


@<TRIPOS>ATOM
      1 F12         1.0280    0.9190    1.1910 f         1 1RU     -0.107900
      2 C5          2.0490    0.2540    0.6070 ca        1 1RU      0.145900
      3 C6          2.7960   -0.6560    1.3790 ca        1 1RU     -0.128000
      4 C4          3.8500   -1.3460    0.8000 ca        1 1RU     -0.087000
      5 C2          4.1790   -1.1360   -0.5450 ca        1 1RU      0.020400
      6 CL2         5.4880   -2.0220   -1.1690 cl        1 1RU     -0.053400
      7 C3          2.3740    0.4570   -0.7540 ca        1 1RU      0.003400
      8 CL1         1.4050    1.5430   -1.6530 cl        1 1RU     -0.098400
      9 C1          3.4480   -0.2360   -1.3400 ca        1 1RU     -0.069300
     10 C7          3.8390   -0.0640   -2.7830 c3        1 1RU      0.200400
     11 C8          2.8070   -0.6080   -3.7470 c3        1 1RU     -0.133100
     12 O9          4.0360    1.3710   -2.9490 os        1 1RU     -0.351900
     13 C13         4.4480    1.8250   -4.1660 ca        1 1RU      0.117800
     14 C18         5.2470    1.1710   -5.1150 ca        1 1RU      0.014100
     15 O19         5.7290   -0.1300   -5.0800 os        1 1RU     -0.171200
     16 C20         6.4760   -0.2920   -6.2580 cc        1 1RU      0.002100
     17 C21         6.4750    0.8570   -7.0350 cd        1 1RU      0.024600
     18 C17         5.6750    1.8270   -6.3100 ca        1 1RU     -0.136100
     19 C16         5.2580    3.1630   -6.5190 ca        1 1RU      0.460200
     20 N15         4.5010    3.8160   -5.6430 nb        1 1RU     -0.645000
     21 C14         4.1040    3.1650   -4.5010 ca        1 1RU      0.370200
     22 N22         3.2830    3.9360   -3.5510 n4        1 1RU     -0.800300
     23 C23         7.1200    1.0530   -8.2830 cd        1 1RU     -0.261100
     24 C27         7.4970    0.0720   -9.2280 cc        1 1RU     -0.100300
     25 N26         8.1030    0.7470  -10.2840 na        1 1RU      0.114400
     26 N25         8.1410    2.0740  -10.0740 nc        1 1RU     -0.484800
     27 C24         7.5550    2.3040   -8.8740 cd        1 1RU      0.315200
     28 C28         8.6440    0.0960  -11.4860 c3        1 1RU      0.056000
     29 C33         9.7840   -0.8740  -11.1410 c3        1 1RU     -0.093400
     30 C32        10.3150   -1.5200  -12.4210 c3        1 1RU      0.162800
     31 N31         9.2770   -2.1710  -13.1920 n3        1 1RU     -0.827200
     32 C30         8.1640   -1.3000  -13.5100 c3        1 1RU      0.162800
     33 C29         7.5520   -0.6470  -12.2700 c3        1 1RU     -0.093400
     34 H1          2.5300   -0.8100    2.4370 ha        1 1RU      0.178000
     35 H2          4.4320   -2.0630    1.4050 ha        1 1RU      0.175000
     36 H3          4.8410   -0.5490   -2.9860 h1        1 1RU      0.101700
     37 H4          3.1850   -0.5120   -4.7950 hc        1 1RU      0.067033
     38 H5          1.8330   -0.0720   -3.6630 hc        1 1RU      0.067033
     39 H6          2.6380   -1.6910   -3.5260 hc        1 1RU      0.067033
     40 H7          6.9260   -1.2800   -6.3530 h4        1 1RU      0.218000
     41 H8          5.5460    3.7220   -7.4320 h4        1 1RU      0.070100
     42 H9          3.8890    4.5620   -3.0100 hn        1 1RU      0.470800
     43 H10         2.8140    3.2740   -2.9110 hn        1 1RU      0.470800
     44 H11         7.3730   -1.0120   -9.2210 h4        1 1RU      0.186000
     45 H12         7.4750    3.3080   -8.4590 h4        1 1RU      0.042100
     46 H13         9.0640    0.9120  -12.1510 h1        1 1RU      0.097700
     47 H14         9.4190   -1.6670  -10.4380 hc        1 1RU      0.060200
     48 H15        10.6250   -0.3260  -10.6430 hc        1 1RU      0.060200
     49 H16        10.8560   -0.7250  -13.0170 h1        1 1RU      0.041700
     50 H17        11.0700   -2.3070  -12.1380 h1        1 1RU      0.041700
     51 H18         9.6600   -2.5690  -14.0300 hn        1 1RU      0.379800
     52 H20         8.4540   -0.4800  -14.2320 h1        1 1RU      0.041700
     53 H21         7.3730   -1.9300  -14.0090 h1        1 1RU      0.041700
     54 H22         6.7550    0.0680  -12.6010 hc        1 1RU      0.060200
     55 H23         7.0750   -1.4280  -11.6240 hc        1 1RU      0.060200
     56 H223        2.5840    4.4940   -4.0550 hn        1 1RU      0.470800
@<TRIPOS>BOND
     1    1    2 1   
     2    2    3 ar  
     3    2    7 ar  
     4    3    4 ar  
     5    3   34 1   
     6    4    5 ar  
     7    4   35 1   
     8    5    6 1   
     9    5    9 ar  
    10    7    8 1   
    11    7    9 ar  
    12    9   10 1   
    13   10   11 1   
    14   10   12 1   
    15   10   36 1   
    16   11   37 1   
    17   11   38 1   
    18   11   39 1   
    19   12   13 1   
    20   13   14 ar  
    21   13   21 ar  
    22   14   15 1   
    23   14   18 ar  
    24   15   16 1   
    25   16   17 2   
    26   16   40 1   
    27   17   18 1   
    28   17   23 1   
    29   18   19 ar  
    30   19   20 ar  
    31   19   41 1   
    32   20   21 ar  
    33   21   22 1   
    34   22   42 1   
    35   22   43 1   
    36   22   56 1   
    37   23   24 2   
    38   23   27 1   
    39   24   25 1   
    40   24   44 1   
    41   25   26 1   
    42   25   28 1   
    43   26   27 2   
    44   27   45 1   
    45   28   29 1   
    46   28   33 1   
    47   28   46 1   
    48   29   30 1   
    49   29   47 1   
    50   29   48 1   
    51   30   31 1   
    52   30   49 1   
    53   30   50 1   
    54   31   32 1   
    55   31   51 1   
    56   32   33 1   
    57   32   52 1   
    58   32   53 1   
    59   33   54 1   
    60   33   55 1   
@<TRIPOS>SUBSTRUCTURE
     1 1RU         1 TEMP              0 ****  ****    0 ROOT
