@<TRIPOS>MOLECULE
1RV
   27    22     1     0     0
SMALL
bcc


@<TRIPOS>ATOM
      1 N01        -4.1150   -2.2910   -1.3520 n3        1 1RV     -0.525400
      2 C01        -3.0770   -2.5600   -0.4230 c1        1 1RV      0.614500
      3 O01        -3.3150   -2.5690    0.7680 o         1 1RV     -0.653500
      4 C02        -1.6810   -2.8720   -0.9180 cg        1 1RV     -0.168000
      5 C05        -0.5120   -2.0290   -0.7510 c1        1 1RV     -0.109900
      6 N02        -0.4910   -0.7390   -0.1620 n2        1 1RV     -0.531400
      7 C06         0.7450   -0.1400    0.1900 c2        1 1RV      0.625300
      8 O02         1.7860   -0.7320   -0.0120 o         1 1RV     -0.601300
      9 C07         0.7700    1.2570    0.7710 c3        1 1RV     -0.112300
     10 S01         2.4500    1.7440    1.0660 ss        1 1RV     -0.077300
     11 C08         2.5110    3.4850    1.3970 ce        1 1RV      0.515200
     12 N03         3.1010    4.0660    2.4520 nf        1 1RV     -0.453700
     13 N04         2.9730    5.3980    2.3180 nf        1 1RV     -0.303400
     14 C09         2.3040    5.6370    1.1810 c1        1 1RV      0.293800
     15 N05         2.0170    4.4550    0.6110 ne        1 1RV     -0.613700
     16 S02         0.6930   -2.7480   -1.4160 ss        1 1RV      0.225800
     17 C04         0.1740   -4.0890   -1.9990 c1        1 1RV     -0.109900
     18 C03        -1.2450   -4.1810   -1.7120 cg        1 1RV     -0.168000
     19 H1         -4.9400   -2.0340   -1.0540 hn        1 1RV      0.276700
     20 H2         -3.9620   -2.3850   -2.2480 hn        1 1RV      0.276700
     21 H3         -1.2740   -0.3030    0.0090 hn        1 1RV      0.533400
     22 H4          0.3560    1.8800    0.1410 h1        1 1RV      0.120700
     23 H5          0.2740    1.2690    1.6140 h1        1 1RV      0.120700
     24 H6          3.5160    3.6340    3.1390 DU        1 1RV      0.205500
     25 H7          2.0660    6.5160    0.8290 DU        1 1RV      0.205500
     26 H8          0.7080   -4.7520   -2.4760 DU        1 1RV      0.205500
     27 H9         -1.8320   -4.9200   -1.9620 DU        1 1RV      0.205500
@<TRIPOS>BOND
     1    1    2 2   
     2    1   19 1   
     3    1   20 1   
     4    2    3 2   
     5    4    5 3   
     6    4   18 1   
     7    5   16 1   
     8    6    7 2   
     9    6   21 1   
    10    7    8 1   
    11    7    9 1   
    12    9   10 1   
    13    9   22 1   
    14    9   23 1   
    15   10   11 1   
    16   11   12 2   
    17   11   15 1   
    18   12   13 1   
    19   13   14 2   
    20   14   15 2   
    21   16   17 1   
    22   17   18 3   
@<TRIPOS>SUBSTRUCTURE
     1 1RV         1 TEMP              0 ****  ****    0 ROOT
