@<TRIPOS>MOLECULE
1RV
   29    30     1     0     0
SMALL
bcc


@<TRIPOS>ATOM
      1 N01         0.6990   -0.3380    0.5070 n4        1 1RV     -0.744400
      2 C01         2.1730   -0.0490    0.3900 c         1 1RV      0.595700
      3 O01         2.8090   -0.1620    1.4320 o         1 1RV     -0.428100
      4 C02         2.6770    0.3220   -0.9170 cc        1 1RV     -0.200600
      5 C05         4.0650    0.4000   -1.2220 cd        1 1RV     -0.102500
      6 N02         5.1240    0.0970   -0.2980 n4        1 1RV     -0.534200
      7 C06         5.4590   -1.3980   -0.2020 c         1 1RV      0.572100
      8 O02         4.5070   -2.1570   -0.1520 o         1 1RV     -0.408100
      9 C07         6.9110   -1.7480   -0.1470 c3        1 1RV     -0.175300
     10 S01         8.0750   -0.4560   -0.3550 ss        1 1RV     -0.097400
     11 C08         8.1180    0.2420    1.1780 cc        1 1RV      0.340800
     12 N03         9.2530    0.4140    1.9920 na        1 1RV     -0.043400
     13 N04         8.9350    1.0420    3.1060 nc        1 1RV     -0.437800
     14 C09         7.5740    1.2510    3.0330 cd        1 1RV      0.538900
     15 N05         7.0410    0.7710    1.8460 nd        1 1RV     -0.751000
     16 S02         4.2910    0.8970   -2.7950 ss        1 1RV      0.432200
     17 C04         2.6990    1.0170   -3.1250 cd        1 1RV     -0.176100
     18 C03         1.8920    0.6840   -2.0440 cc        1 1RV     -0.093000
     19 H1          0.4780   -0.6220    1.4760 hn        1 1RV      0.486800
     20 H2          0.4360   -1.0980   -0.1330 hn        1 1RV      0.486800
     21 H3          4.8520    0.4160    0.6540 hn        1 1RV      0.499800
     22 H4          7.1130   -2.4830   -0.9850 h1        1 1RV      0.174200
     23 H5          7.0660   -2.3220    0.8130 h1        1 1RV      0.174200
     24 H6         10.2040    0.1770    1.7760 hn        1 1RV      0.369700
     25 H7          6.9920    1.7430    3.8240 h5        1 1RV      0.103100
     26 H8          2.3020    1.3340   -4.1030 h4        1 1RV      0.245000
     27 H9          0.7980    0.7150   -2.0760 ha        1 1RV      0.187000
     28 H013        0.1520    0.5000    0.2740 hn        1 1RV      0.486800
     29 H022        5.9980    0.6030   -0.5680 hn        1 1RV      0.499800
@<TRIPOS>BOND
     1    1    2 1   
     2    1   19 1   
     3    1   20 1   
     4    1   28 1   
     5    2    3 2   
     6    2    4 1   
     7    4    5 2   
     8    4   18 1   
     9    5    6 1   
    10    5   16 1   
    11    6    7 1   
    12    6   21 1   
    13    6   29 1   
    14    7    8 2   
    15    7    9 1   
    16    9   10 1   
    17    9   22 1   
    18    9   23 1   
    19   10   11 1   
    20   11   12 1   
    21   11   15 2   
    22   12   13 1   
    23   12   24 1   
    24   13   14 2   
    25   14   15 1   
    26   14   25 1   
    27   16   17 1   
    28   17   18 2   
    29   17   26 1   
    30   18   27 1   
@<TRIPOS>SUBSTRUCTURE
     1 1RV         1 TEMP              0 ****  ****    0 ROOT
