@<TRIPOS>MOLECULE
1RV
   27    28     1     0     0
SMALL
bcc


@<TRIPOS>ATOM
      1 N01         4.7450   -2.5730   -0.0010 n         1 1RV     -0.666000
      2 C01         3.5430   -1.9100    0.0010 c         1 1RV      0.708700
      3 O01         2.4890   -2.5950    0.0030 o         1 1RV     -0.662100
      4 C02         3.5340   -0.4400    0.0010 cc        1 1RV     -0.252600
      5 C05         2.3600    0.3410    0.0000 cd        1 1RV      0.095500
      6 N02         1.0750   -0.1680    0.0000 n         1 1RV     -0.431100
      7 C06        -0.0710    0.6160   -0.0010 c         1 1RV      0.671100
      8 O02         0.0020    1.8610   -0.0010 o         1 1RV     -0.582100
      9 C07        -1.3780   -0.1410   -0.0010 c3        1 1RV     -0.120300
     10 S01        -2.7240    1.0110   -0.0000 ss        1 1RV     -0.133400
     11 C08        -4.0520   -0.0320    0.0000 cc        1 1RV      0.451800
     12 N03        -5.3880    0.4240    0.0010 na        1 1RV     -0.138400
     13 N04        -6.2340   -0.6070    0.0010 nc        1 1RV     -0.518800
     14 C09        -5.4360   -1.7130    0.0000 cd        1 1RV      0.516900
     15 N05        -4.0710   -1.3950   -0.0010 nd        1 1RV     -0.706000
     16 S02         2.7430    1.9950    0.0000 ss        1 1RV      0.137200
     17 C04         4.3820    1.7260    0.0010 cd        1 1RV     -0.232100
     18 C03         4.6990    0.3890    0.0010 cc        1 1RV     -0.104000
     19 H1          4.7470   -3.5620   -0.0010 hn        1 1RV      0.314000
     20 H2          5.6040   -2.0920   -0.0030 hn        1 1RV      0.314000
     21 H3          0.9900   -1.1700    0.0010 hn        1 1RV      0.371500
     22 H4         -1.4340   -0.8040   -0.9030 h1        1 1RV      0.115700
     23 H5         -1.4340   -0.8050    0.9010 h1        1 1RV      0.115700
     24 H6         -5.7130    1.3620    0.0020 hn        1 1RV      0.334700
     25 H7         -5.8060   -2.7440   -0.0000 h5        1 1RV      0.074100
     26 H8          5.1070    2.5400    0.0010 h4        1 1RV      0.177000
     27 H9          5.7210    0.0050    0.0020 ha        1 1RV      0.148000
@<TRIPOS>BOND
     1    1    2 1   
     2    1   19 1   
     3    1   20 1   
     4    2    3 2   
     5    2    4 1   
     6    4    5 2   
     7    4   18 1   
     8    5    6 1   
     9    5   16 1   
    10    6    7 1   
    11    6   21 1   
    12    7    8 2   
    13    7    9 1   
    14    9   10 1   
    15    9   22 1   
    16    9   23 1   
    17   10   11 1   
    18   11   12 1   
    19   11   15 2   
    20   12   13 1   
    21   12   24 1   
    22   13   14 2   
    23   14   15 1   
    24   14   25 1   
    25   16   17 1   
    26   17   18 2   
    27   17   26 1   
    28   18   27 1   
@<TRIPOS>SUBSTRUCTURE
     1 1RV         1 TEMP              0 ****  ****    0 ROOT
