@<TRIPOS>MOLECULE
1RV
   28    29     1     0     0
SMALL
bcc


@<TRIPOS>ATOM
      1 N01        -0.0890   -0.0050    0.0320 nz        1 1RV     -0.754400
      2 C01         1.4360   -0.0030    0.0350 c         1 1RV      0.603700
      3 O01         1.9120   -0.0030    1.1690 o         1 1RV     -0.492100
      4 C02         2.0610   -0.0020   -1.2390 cc        1 1RV     -0.344600
      5 C05         3.4820   -0.0000   -1.4030 cd        1 1RV      0.136500
      6 N02         4.3880    0.0010   -0.3770 ns        1 1RV     -0.437100
      7 C06         5.7840    0.0020   -0.6030 c         1 1RV      0.684100
      8 O02         6.1840    0.0030   -1.7770 o         1 1RV     -0.532100
      9 C07         6.6420    0.0020    0.6280 c3        1 1RV     -0.124300
     10 S01         8.3580   -0.0010    0.1820 ss        1 1RV     -0.119400
     11 C08         9.0740   -0.0030    1.7140 cc        1 1RV      0.435800
     12 N03        10.4670   -0.0060    1.9280 na        1 1RV     -0.121400
     13 N04        10.7370   -0.0060    3.2320 nc        1 1RV     -0.495800
     14 C09         9.5170   -0.0030    3.8460 cd        1 1RV      0.521900
     15 N05         8.4570   -0.0010    2.9320 nd        1 1RV     -0.713000
     16 S02         3.8820    0.0010   -3.0390 ss        1 1RV      0.282200
     17 C04         2.2970   -0.0010   -3.5490 cd        1 1RV     -0.206100
     18 C03         1.4000   -0.0020   -2.5170 cc        1 1RV     -0.107000
     19 H1         -0.4320   -0.8380   -0.4540 hn        1 1RV      0.464800
     20 H2         -0.4340   -0.0050    0.9990 hn        1 1RV      0.464800
     21 H3          4.0480   -0.0000    0.5650 hn        1 1RV      0.359500
     22 H4          6.4100    0.9070    1.2520 h1        1 1RV      0.124700
     23 H5          6.4070   -0.8990    1.2560 h1        1 1RV      0.124700
     24 H6         11.1930   -0.0080    1.2480 hn        1 1RV      0.342700
     25 H7          9.3710   -0.0030    4.9320 h5        1 1RV      0.082100
     26 H8          2.0280   -0.0010   -4.6100 h4        1 1RV      0.207000
     27 H9          0.3150   -0.0030   -2.6470 ha        1 1RV      0.148000
     28 H013       -0.4340    0.8280   -0.4530 hn        1 1RV      0.464800
@<TRIPOS>BOND
     1    1    2 1   
     2    1   19 1   
     3    1   20 1   
     4    1   28 1   
     5    2    3 2   
     6    2    4 1   
     7    4    5 2   
     8    4   18 1   
     9    5    6 1   
    10    5   16 1   
    11    6    7 1   
    12    6   21 1   
    13    7    8 2   
    14    7    9 1   
    15    9   10 1   
    16    9   22 1   
    17    9   23 1   
    18   10   11 1   
    19   11   12 1   
    20   11   15 2   
    21   12   13 1   
    22   12   24 1   
    23   13   14 2   
    24   14   15 1   
    25   14   25 1   
    26   16   17 1   
    27   17   18 2   
    28   17   26 1   
    29   18   27 1   
@<TRIPOS>SUBSTRUCTURE
     1 1RV         1 TEMP              0 ****  ****    0 ROOT
