@<TRIPOS>MOLECULE
1RY
   38    39     1     0     0
SMALL
bcc


@<TRIPOS>ATOM
      1 OAC         0.0000    0.0000    0.0000 o         1 1RY     -0.522500
      2 PAZ         1.6090    0.0000    0.0000 p5        1 1RY      0.871900
      3 OAF         2.1470    0.0000    1.5170 o         1 1RY     -0.522500
      4 OAG         2.1040   -1.2070   -0.6990 o         1 1RY     -0.522500
      5 OAQ         2.1460    1.3150   -0.7590 os        1 1RY     -0.481800
      6 PBB         2.2350    1.7560   -2.3060 p5        1 1RY      1.074800
      7 OAI         3.4400    0.9630   -3.0210 o         1 1RY     -0.564000
      8 OAE         0.9610    1.4340   -2.9850 o         1 1RY     -0.564000
      9 OAR         2.5070    3.3400   -2.3960 os        1 1RY     -0.488800
     10 PBA         2.3050    4.4450   -3.5500 p5        1 1RY      0.971800
     11 OAH         3.4550    4.2750   -4.6640 o         1 1RY     -0.689500
     12 OAD         0.9780    4.2630   -4.1800 o         1 1RY     -0.689500
     13 OAO         2.3950    5.9170   -2.9050 os        1 1RY     -0.474200
     14 CAL         2.1530    7.1100   -3.6530 c3        1 1RY      0.316400
     15 CAW         2.3230    8.3270   -2.7410 c3        1 1RY      0.305200
     16 OAP         3.6370    8.3470   -2.1540 os        1 1RY     -0.396600
     17 SAS         1.2220    8.2000   -1.2700 ss        1 1RY     -0.441200
     18 CAM         2.3570    9.1810   -0.1980 c3        1 1RY      0.041700
     19 CAX         3.7300    8.8090   -0.8180 c3        1 1RY      0.261500
     20 NAY         4.3450    7.7580   -0.0010 n         1 1RY     -0.007000
     21 CAK         4.6500    6.5530   -0.5620 cc        1 1RY     -0.197400
     22 CAU         5.2230    5.5920    0.2040 cd        1 1RY      0.007900
     23 FAJ         5.5360    4.3900   -0.3260 f         1 1RY     -0.163500
     24 CAV         4.6110    7.9900    1.2980 c         1 1RY      0.738900
     25 OAB         4.3360    9.0760    1.7820 o         1 1RY     -0.870500
     26 NAN         5.1680    7.0550    2.0640 nc        1 1RY     -0.790100
     27 CAT         5.4890    5.8700    1.5620 cd        1 1RY     -0.151500
     28 NAA         6.0700    4.9120    2.3630 nz        1 1RY      0.343400
     29 H5          1.1440    7.0920   -4.0460 h1        1 1RY     -0.015300
     30 H6          2.8590    7.1720   -4.4730 h1        1 1RY     -0.015300
     31 H7          2.1330    9.2480   -3.2800 h2        1 1RY     -0.006300
     32 H8          2.2950    8.8550    0.8330 h1        1 1RY      0.057200
     33 H9          2.1620   10.2420   -0.2940 h1        1 1RY      0.057200
     34 H10         4.3660    9.6860   -0.7990 h2        1 1RY      0.008700
     35 H11         4.5910    6.4260   -1.6360 h4        1 1RY      0.177000
     36 H12         5.4810    4.1030    2.3960 hn        1 1RY      0.114133
     37 H13         6.1870    5.2770    3.2870 hn        1 1RY      0.114133
     38 HAA3        6.9620    4.6600    1.9880 hn        1 1RY      0.114133
@<TRIPOS>BOND
     1    1    2 1   
     2    2    3 1   
     3    2    4 1   
     4    2    5 1   
     5    5    6 1   
     6    6    7 1   
     7    6    8 1   
     8    6    9 1   
     9    9   10 1   
    10   10   11 1   
    11   10   12 1   
    12   10   13 1   
    13   13   14 1   
    14   14   15 1   
    15   14   29 1   
    16   14   30 1   
    17   15   16 1   
    18   15   17 1   
    19   15   31 1   
    20   16   19 1   
    21   17   18 1   
    22   18   19 1   
    23   18   32 1   
    24   18   33 1   
    25   19   20 1   
    26   19   34 1   
    27   20   21 1   
    28   20   24 1   
    29   21   22 2   
    30   21   35 1   
    31   22   23 1   
    32   22   27 1   
    33   24   25 2   
    34   24   26 1   
    35   26   27 2   
    36   27   28 1   
    37   28   36 1   
    38   28   37 1   
    39   28   38 1   
@<TRIPOS>SUBSTRUCTURE
     1 1RY         1 TEMP              0 ****  ****    0 ROOT
