@<TRIPOS>MOLECULE
1RZ
   38    39     1     0     0
SMALL
bcc


@<TRIPOS>ATOM
      1 O3G         0.0000    0.0000    0.0000 o         1 1RZ     -0.541167
      2 PG          1.6100    0.0000    0.0000 p5        1 1RZ      0.875900
      3 O1G         2.1470    0.0000    1.5180 o         1 1RZ     -0.541167
      4 PB          3.5470    1.7120   -1.4500 p5        1 1RZ      1.062800
      5 O2B         4.6340    2.0390   -0.3080 o         1 1RZ     -0.579500
      6 O1B         4.0270    0.5850   -2.2800 o         1 1RZ     -0.579500
      7 O3A         3.3360    3.0110   -2.3780 os        1 1RZ     -0.492800
      8 PA          4.1580    3.6560   -3.6020 p5        1 1RZ      0.968800
      9 O1A         5.4780    4.3840   -3.0390 o         1 1RZ     -0.690500
     10 O2A         4.5490    2.5880   -4.5500 o         1 1RZ     -0.690500
     11 O5'         3.2340    4.7330   -4.3610 os        1 1RZ     -0.476200
     12 C5'         3.6400    5.4040   -5.5560 c3        1 1RZ      0.316400
     13 C4'         2.5310    6.3550   -6.0100 c3        1 1RZ      0.303200
     14 O4'         2.2560    7.3390   -4.9960 os        1 1RZ     -0.399600
     15 S3'         0.9250    5.4650   -6.1530 ss        1 1RZ     -0.432200
     16 C2'        -0.0690    6.9700   -5.7760 c3        1 1RZ      0.037700
     17 C1'         0.9020    7.7260   -4.8360 c3        1 1RZ      0.258500
     18 N1          0.5030    7.4750   -3.4490 n         1 1RZ     -0.006000
     19 C2         -0.7240    7.8360   -3.0290 c         1 1RZ      0.738900
     20 O2         -1.4930    8.3710   -3.8120 o         1 1RZ     -0.864500
     21 N3         -1.1130    7.6200   -1.7740 nc        1 1RZ     -0.783100
     22 C4         -0.2970    7.0410   -0.9030 cd        1 1RZ     -0.114500
     23 N4         -0.7100    6.8220    0.3910 nz        1 1RZ      0.333400
     24 C5          0.9950    6.6500   -1.3110 cd        1 1RZ     -0.217600
     25 C6          1.3730    6.8720   -2.5920 cc        1 1RZ     -0.153400
     26 O3B         2.1480    1.3130   -0.7600 os        1 1RZ     -0.485800
     27 O2C         2.1020   -1.2100   -0.6980 o         1 1RZ     -0.541167
     28 H4          4.5440    5.9690   -5.3640 h1        1 1RZ     -0.014800
     29 H5          3.8290    4.6740   -6.3340 h1        1 1RZ     -0.014800
     30 H6          2.7870    6.8330   -6.9470 h2        1 1RZ     -0.005300
     31 H7         -0.9860    6.7110   -5.2600 h1        1 1RZ      0.057700
     32 H8         -0.2640    7.5430   -6.6750 h1        1 1RZ      0.057700
     33 H9          0.8210    8.7870   -5.0380 h2        1 1RZ      0.009700
     34 H10        -0.2190    7.4400    1.0070 hn        1 1RZ      0.111800
     35 H11        -0.5160    5.8740    0.6470 hn        1 1RZ      0.111800
     36 H12         1.7310    6.3570   -0.5720 ha        1 1RZ      0.100000
     37 H13         2.4040    6.7170   -2.8860 h4        1 1RZ      0.168000
     38 H43        -1.6930    6.9930    0.4610 hn        1 1RZ      0.111800
@<TRIPOS>BOND
     1    1    2 1   
     2    2    3 1   
     3    2   26 1   
     4    2   27 1   
     5    4    5 1   
     6    4    6 1   
     7    4    7 1   
     8    4   26 1   
     9    7    8 1   
    10    8    9 1   
    11    8   10 1   
    12    8   11 1   
    13   11   12 1   
    14   12   13 1   
    15   12   28 1   
    16   12   29 1   
    17   13   14 1   
    18   13   15 1   
    19   13   30 1   
    20   14   17 1   
    21   15   16 1   
    22   16   17 1   
    23   16   31 1   
    24   16   32 1   
    25   17   18 1   
    26   17   33 1   
    27   18   19 1   
    28   18   25 1   
    29   19   20 2   
    30   19   21 1   
    31   21   22 2   
    32   22   23 1   
    33   22   24 1   
    34   23   34 1   
    35   23   35 1   
    36   23   38 1   
    37   24   25 2   
    38   24   36 1   
    39   25   37 1   
@<TRIPOS>SUBSTRUCTURE
     1 1RZ         1 TEMP              0 ****  ****    0 ROOT
