@<TRIPOS>MOLECULE
1S0
   41    42     1     0     0
SMALL
bcc


@<TRIPOS>ATOM
      1 OAE         0.0000    0.0000    0.0000 oh        1 1S0     -0.589800
      2 OAG         3.8680    3.9870   -4.3830 os        1 1S0     -0.495800
      3 OAH         2.7420    0.5400    4.1140 o         1 1S0     -0.868500
      4 OAJ         2.0610    2.2310   -5.1370 o         1 1S0     -0.685000
      5 OAK         5.4220    6.0270   -4.9640 os        1 1S0     -0.471800
      6 OAL         3.8200    5.0290   -6.7960 o         1 1S0     -0.514500
      7 OAO         7.7190    6.1580   -6.0000 o         1 1S0     -0.481500
      8 OAI         4.3740    1.5130   -4.4220 o         1 1S0     -0.685000
      9 PAA         3.3020    2.4980   -4.1460 p5        1 1S0      0.978800
     10 PAB         4.7560    4.6750   -5.5340 p5        1 1S0      1.078800
     11 OAM         5.8240    3.7410   -5.9600 o         1 1S0     -0.514500
     12 PAC         6.6140    6.9850   -5.4660 p5        1 1S0      0.871900
     13 OAP         6.0670    7.9610   -6.6230 o         1 1S0     -0.481500
     14 OAN         7.1510    7.8660   -4.2290 o         1 1S0     -0.481500
     15 OAF         2.8140    2.3450   -2.6200 os        1 1S0     -0.497200
     16 CAX         2.3560    1.1080   -2.0700 c3        1 1S0      0.314400
     17 CAU         1.9700    1.3140   -0.6040 c3        1 1S0      0.149100
     18 CAT         1.4280    0.0000    0.0000 c3        1 1S0      0.142100
     19 CAV         1.9700    0.0000    1.4470 c3        1 1S0     -0.101400
     20 CAW         2.7750    1.3150    1.5460 c3        1 1S0      0.251500
     21 OAD         3.1390    1.6300    0.1840 os        1 1S0     -0.379600
     22 NAQ         3.9740    1.1190    2.3650 n         1 1S0     -0.022000
     23 CAY         5.2050    1.3390    1.8260 cc        1 1S0     -0.201400
     24 CBA         6.3060    1.1610    2.5950 cd        1 1S0     -0.236600
     25 CBB         6.1450    0.7500    3.9330 cd        1 1S0     -0.191500
     26 NAS         7.2450    0.5600    4.7370 nz        1 1S0      0.358400
     27 NAR         4.9250    0.5480    4.4150 nc        1 1S0     -0.847100
     28 CAZ         3.8520    0.7270    3.6460 c         1 1S0      0.748900
     29 H1         -0.3140   -0.8670   -0.1960 ho        1 1S0      0.364000
     30 H6          1.4930    0.7630   -2.6260 h1        1 1S0     -0.021300
     31 H7          3.1460    0.3700   -2.1350 h1        1 1S0     -0.021300
     32 H8          1.2320    2.1010   -0.5100 h1        1 1S0      0.022700
     33 H9          1.8130   -0.8530   -0.5460 h1        1 1S0      0.002700
     34 H10         2.6180   -0.8530    1.6070 hc        1 1S0      0.035700
     35 H11         1.1520    0.0030    2.1570 hc        1 1S0      0.035700
     36 H12         2.1560    2.1030    1.9590 h2        1 1S0      0.011700
     37 H13         5.3030    1.6550    0.7950 h4        1 1S0      0.139000
     38 H14         7.2710    1.5090    2.2470 ha        1 1S0      0.066000
     39 H15         7.6960    1.4390    4.8980 hn        1 1S0      0.072133
     40 H16         7.8840   -0.0650    4.2860 hn        1 1S0      0.072133
     41 HAS3        6.9560    0.1680    5.6110 hn        1 1S0      0.072133
@<TRIPOS>BOND
     1    1   18 1   
     2    1   29 1   
     3    2    9 1   
     4    2   10 1   
     5    3   28 2   
     6    4    9 1   
     7    5   10 1   
     8    5   12 1   
     9    6   10 1   
    10    7   12 1   
    11    8    9 1   
    12    9   15 1   
    13   10   11 1   
    14   12   13 1   
    15   12   14 1   
    16   15   16 1   
    17   16   17 1   
    18   16   30 1   
    19   16   31 1   
    20   17   18 1   
    21   17   21 1   
    22   17   32 1   
    23   18   19 1   
    24   18   33 1   
    25   19   20 1   
    26   19   34 1   
    27   19   35 1   
    28   20   21 1   
    29   20   22 1   
    30   20   36 1   
    31   22   23 1   
    32   22   28 1   
    33   23   24 2   
    34   23   37 1   
    35   24   25 1   
    36   24   38 1   
    37   25   26 1   
    38   25   27 2   
    39   26   39 1   
    40   26   40 1   
    41   26   41 1   
    42   27   28 1   
@<TRIPOS>SUBSTRUCTURE
     1 1S0         1 TEMP              0 ****  ****    0 ROOT
