@<TRIPOS>MOLECULE
1S1
   38    34     1     0     0
SMALL
bcc


@<TRIPOS>ATOM
      1 C3          0.2810   -0.5080   -0.0910 c1        1 1S1      0.235000
      2 C4          0.2610   -0.5350    2.2520 c1        1 1S1      0.250000
      3 C7          2.2920   -0.4600    1.0970 c1        1 1S1      0.217000
      4 N10        -1.4730   -0.0720    5.3620 n2        1 1S1     -0.161000
      5 C12        -1.3950   -1.3990    5.3180 c1        1 1S1     -0.087500
      6 N13         3.7070   -0.4970    0.9440 n3        1 1S1     -0.286000
      7 C15        -0.9330    0.4750   -2.0310 c3        1 1S1      0.198000
      8 C16        -2.3970    0.2010   -2.4880 c3        1 1S1     -0.165500
      9 C17        -3.2900    1.2290   -1.9190 c3        1 1S1     -0.214000
     10 C18        -0.0580    0.7740   -3.2640 c3        1 1S1     -0.165500
     11 C19        -0.0310   -0.4230   -4.1500 c3        1 1S1     -0.214000
     12 N21        -0.8920    2.5570   -0.3940 n1        1 1S1     -0.034000
     13 C20        -0.9090    1.6580   -1.0990 c1        1 1S1     -0.140000
     14 N1         -0.4320   -0.6580   -1.3670 n2        1 1S1     -0.298000
     15 N5          1.6340   -0.4680   -0.0740 n2        1 1S1     -0.330000
     16 C14         4.5620   -0.1290    2.0510 c3        1 1S1     -0.073000
     17 N6          1.6020   -0.4940    2.2640 n1        1 1S1     -0.258000
     18 N2         -0.4060   -0.5420    1.0700 n2        1 1S1     -0.314000
     19 N8         -0.4790   -0.6230    3.5150 n2        1 1S1     -0.086500
     20 N11        -0.7790   -1.7420    4.1720 n2        1 1S1     -0.086500
     21 C9         -0.9080    0.4150    4.2500 c1        1 1S1     -0.087500
     22 H1         -1.7230   -2.0080    5.9880 DU        1 1S1      0.224000
     23 H2          4.0950   -0.8380    0.1280 hn        1 1S1      0.241000
     24 H3         -2.4460    0.2300   -3.4530 hc        1 1S1      0.097750
     25 H4         -2.6850   -0.7080   -2.1660 hc        1 1S1      0.097750
     26 H5         -2.8830    2.1120   -2.0320 hc        1 1S1      0.082667
     27 H6         -4.1430    1.2050   -2.3800 hc        1 1S1      0.082667
     28 H7         -3.4350    1.0430   -0.9270 hc        1 1S1      0.082667
     29 H8         -0.4300    1.5330   -3.7540 hc        1 1S1      0.097750
     30 H9          0.8700    0.9920   -2.9710 hc        1 1S1      0.097750
     31 H10         0.7320   -0.3690   -4.7450 hc        1 1S1      0.082667
     32 H11         0.0400   -1.2310   -3.6030 hc        1 1S1      0.082667
     33 H12        -0.8600   -0.4570   -4.6820 hc        1 1S1      0.082667
     34 H13        -0.5040   -1.4810   -1.7540 hn        1 1S1      0.250000
     35 H14         5.4660   -0.3140    1.8270 h1        1 1S1      0.091000
     36 H15         4.4600    0.8370    2.2420 h1        1 1S1      0.091000
     37 H16         4.3120   -0.6460    2.8440 h1        1 1S1      0.091000
     38 H17        -0.8250    1.3420    4.0200 DU        1 1S1      0.224000
@<TRIPOS>BOND
     1    1   15 1   
     2    1   18 1   
     3    2   17 1   
     4    2   18 1   
     5    3    6 1   
     6    3   15 1   
     7    4    5 1   
     8    4   21 1   
     9    5   20 1   
    10    6   16 1   
    11    6   23 1   
    12    7    8 1   
    13    7   10 1   
    14    7   13 1   
    15    7   14 1   
    16    8    9 1   
    17    8   24 1   
    18    8   25 1   
    19    9   26 1   
    20    9   27 1   
    21    9   28 1   
    22   10   11 1   
    23   10   29 1   
    24   10   30 1   
    25   11   31 1   
    26   11   32 1   
    27   11   33 1   
    28   12   13 1   
    29   14   34 1   
    30   16   35 1   
    31   16   36 1   
    32   16   37 1   
    33   19   20 1   
    34   19   21 1   
@<TRIPOS>SUBSTRUCTURE
     1 1S1         1 TEMP              0 ****  ****    0 ROOT
