@<TRIPOS>MOLECULE
1S1
   40    41     1     0     0
SMALL
bcc


@<TRIPOS>ATOM
      1 C3          0.2370    0.6290    0.0060 ca        1 1S1      0.822900
      2 C4          0.2170    0.0120    2.2580 ca        1 1S1      0.886500
      3 C7          1.9440    1.3140    1.3890 ca        1 1S1      0.825900
      4 N10        -0.7350   -1.3730    5.4320 nc        1 1S1     -0.592000
      5 C12        -1.7630   -1.7810    4.5030 cc        1 1S1      0.624900
      6 N13         3.2460    2.0330    1.5820 n4        1 1S1     -0.743700
      7 C15         0.1720   -0.5560   -2.2370 c3        1 1S1      0.255300
      8 C16         0.0600   -0.1010   -3.7120 c3        1 1S1     -0.101900
      9 C17         0.5400   -1.1730   -4.6600 c3        1 1S1     -0.115600
     10 C18        -0.5990   -1.8620   -1.9580 c3        1 1S1     -0.101900
     11 C19        -2.0620   -1.8140   -2.3050 c3        1 1S1     -0.115600
     12 N21         2.7010   -0.8960   -1.6190 n1        1 1S1     -0.256800
     13 C20         1.5810   -0.7420   -1.8870 c1        1 1S1      0.154700
     14 N1         -0.3900    0.5890   -1.3480 n4        1 1S1     -0.774700
     15 N5          1.4170    1.3480    0.1190 nb        1 1S1     -0.749000
     16 C14         4.3950    1.1120    1.3640 c3        1 1S1      0.079100
     17 N6          1.4260    0.6940    2.4820 nb        1 1S1     -0.734000
     18 N2         -0.4050   -0.0410    0.9940 nb        1 1S1     -0.668000
     19 N8         -0.3730   -0.6280    3.3270 na        1 1S1     -0.139200
     20 N11        -1.5580   -1.3450    3.2540 nd        1 1S1     -0.470800
     21 C9          0.1140   -0.6690    4.7150 cd        1 1S1      0.506400
     22 H1         -2.6210   -2.3950    4.8340 h5        1 1S1      0.129100
     23 H2          3.2790    2.4130    2.5430 hn        1 1S1      0.493800
     24 H3          0.6800    0.8250   -3.8640 hc        1 1S1      0.091200
     25 H4         -1.0100    0.1480   -3.9470 hc        1 1S1      0.091200
     26 H5          0.5960   -0.7440   -5.6940 hc        1 1S1      0.072033
     27 H6          1.5560   -1.5420   -4.3810 hc        1 1S1      0.072033
     28 H7         -0.1680   -2.0380   -4.6840 hc        1 1S1      0.072033
     29 H8         -0.4700   -2.1570   -0.8810 hc        1 1S1      0.091200
     30 H9         -0.0930   -2.6570   -2.5780 hc        1 1S1      0.091200
     31 H10        -2.6410   -1.1350   -1.6340 hc        1 1S1      0.072033
     32 H11        -2.2260   -1.5070   -3.3670 hc        1 1S1      0.072033
     33 H12        -2.4940   -2.8420   -2.1820 hc        1 1S1      0.072033
     34 H13        -1.4090    0.4350   -1.2510 hn        1 1S1      0.494800
     35 H14         4.3600    0.2770    2.1160 hx        1 1S1      0.130700
     36 H15         5.3450    1.7040    1.5000 hx        1 1S1      0.130700
     37 H16         4.3570    0.6920    0.3210 hx        1 1S1      0.130700
     38 H17         1.0420   -0.1710    5.0330 h5        1 1S1      0.113100
     39 H132        3.2970    2.8200    0.9130 hn        1 1S1      0.493800
     40 H121       -0.2240    1.4900   -1.8220 hn        1 1S1      0.494800
@<TRIPOS>BOND
     1    1   14 1   
     2    1   15 ar  
     3    1   18 ar  
     4    2   17 ar  
     5    2   18 ar  
     6    2   19 1   
     7    3    6 1   
     8    3   15 ar  
     9    3   17 ar  
    10    4    5 1   
    11    4   21 2   
    12    5   20 2   
    13    5   22 1   
    14    6   16 1   
    15    6   23 1   
    16    6   39 1   
    17    7    8 1   
    18    7   10 1   
    19    7   13 1   
    20    7   14 1   
    21    8    9 1   
    22    8   24 1   
    23    8   25 1   
    24    9   26 1   
    25    9   27 1   
    26    9   28 1   
    27   10   11 1   
    28   10   29 1   
    29   10   30 1   
    30   11   31 1   
    31   11   32 1   
    32   11   33 1   
    33   12   13 3   
    34   14   34 1   
    35   14   40 1   
    36   16   35 1   
    37   16   36 1   
    38   16   37 1   
    39   19   20 1   
    40   19   21 1   
    41   21   38 1   
@<TRIPOS>SUBSTRUCTURE
     1 1S1         1 TEMP              0 ****  ****    0 ROOT
