@<TRIPOS>MOLECULE
1S1
   38    39     1     0     0
SMALL
bcc


@<TRIPOS>ATOM
      1 C3         -0.4460   -0.2000    0.0990 ca        1 1S1      0.933900
      2 C4          1.8770   -0.1100   -0.0130 ca        1 1S1      0.836500
      3 C7          0.6450    1.8660    0.0580 ca        1 1S1      0.941900
      4 N10         5.3970   -0.9760   -0.1730 nc        1 1S1     -0.686000
      5 C12         4.7120   -2.2160   -0.1840 cc        1 1S1      0.508900
      6 N13         0.5640    3.2550   -0.0040 nh        1 1S1     -0.838900
      7 C15        -2.9430   -0.4850    0.0010 c3        1 1S1      0.318300
      8 C16        -3.9630   -1.5680    0.4650 c3        1 1S1     -0.093900
      9 C17        -5.3940   -1.1650    0.2270 c3        1 1S1     -0.098600
     10 C18        -3.1770   -0.1250   -1.4900 c3        1 1S1     -0.093900
     11 C19        -3.0460   -1.2990   -2.4220 c3        1 1S1     -0.098600
     12 N21        -3.4200    1.6990    1.3970 n1        1 1S1     -0.362800
     13 C20        -3.2120    0.7340    0.7870 c1        1 1S1      0.227700
     14 N1         -1.5920   -0.9840    0.2650 nh        1 1S1     -0.834900
     15 N5         -0.5600    1.1730    0.1000 nb        1 1S1     -0.834000
     16 C14         1.7160    4.0830    0.1860 c3        1 1S1      0.202100
     17 N6          1.9010    1.2700    0.0240 nb        1 1S1     -0.842000
     18 N2          0.7600   -0.9040    0.0110 nb        1 1S1     -0.791000
     19 N8          3.1590   -0.7450   -0.0830 na        1 1S1     -0.116200
     20 N11         3.3640   -2.0860   -0.1300 nd        1 1S1     -0.467800
     21 C9          4.4150   -0.0680   -0.1100 cd        1 1S1      0.462400
     22 H1          5.2370   -3.1760   -0.2320 h5        1 1S1      0.076100
     23 H2         -0.3250    3.6540    0.2130 hn        1 1S1      0.451800
     24 H3         -3.7520   -2.5260   -0.0800 hc        1 1S1      0.062700
     25 H4         -3.8080   -1.7580    1.5610 hc        1 1S1      0.062700
     26 H5         -5.6390   -1.1710   -0.8630 hc        1 1S1      0.043033
     27 H6         -6.0740   -1.8890    0.7400 hc        1 1S1      0.043033
     28 H7         -5.6010   -0.1440    0.6310 hc        1 1S1      0.043033
     29 H8         -4.2070    0.3130   -1.5760 hc        1 1S1      0.062700
     30 H9         -2.4520    0.6760   -1.7900 hc        1 1S1      0.062700
     31 H10        -3.1740   -0.9530   -3.4770 hc        1 1S1      0.043033
     32 H11        -2.0420   -1.7820   -2.3370 hc        1 1S1      0.043033
     33 H12        -3.8280   -2.0690   -2.2130 hc        1 1S1      0.043033
     34 H13        -1.4770   -1.9630    0.1000 hn        1 1S1      0.451800
     35 H14         1.3970    5.1550    0.0800 h1        1 1S1      0.048700
     36 H15         2.1790    3.9360    1.1990 h1        1 1S1      0.048700
     37 H16         2.4890    3.8530   -0.5950 h1        1 1S1      0.048700
     38 H17         4.5110    1.0250   -0.0810 h5        1 1S1      0.093100
@<TRIPOS>BOND
     1    1   14 1   
     2    1   15 ar  
     3    1   18 ar  
     4    2   17 ar  
     5    2   18 ar  
     6    2   19 1   
     7    3    6 1   
     8    3   15 ar  
     9    3   17 ar  
    10    4    5 1   
    11    4   21 2   
    12    5   20 2   
    13    5   22 1   
    14    6   16 1   
    15    6   23 1   
    16    7    8 1   
    17    7   10 1   
    18    7   13 1   
    19    7   14 1   
    20    8    9 1   
    21    8   24 1   
    22    8   25 1   
    23    9   26 1   
    24    9   27 1   
    25    9   28 1   
    26   10   11 1   
    27   10   29 1   
    28   10   30 1   
    29   11   31 1   
    30   11   32 1   
    31   11   33 1   
    32   12   13 3   
    33   14   34 1   
    34   16   35 1   
    35   16   36 1   
    36   16   37 1   
    37   19   20 1   
    38   19   21 1   
    39   21   38 1   
@<TRIPOS>SUBSTRUCTURE
     1 1S1         1 TEMP              0 ****  ****    0 ROOT
