@<TRIPOS>MOLECULE
1S1
   38    39     1     0     0
SMALL
bcc


@<TRIPOS>ATOM
      1 C3          0.1900    0.0140    0.0020 ca        1 1S1      0.933900
      2 C4          0.0320   -0.0380    2.3230 ca        1 1S1      0.836500
      3 C7          2.1160    0.2040    1.3120 ca        1 1S1      0.941900
      4 N10        -1.2010   -0.2090    5.7310 nc        1 1S1     -0.686000
      5 C12        -2.3510   -0.3590    4.9160 cc        1 1S1      0.508900
      6 N13         3.5050    0.2790    1.3830 nh        1 1S1     -0.838900
      7 C15         0.1950   -0.1660   -2.5070 c3        1 1S1      0.318300
      8 C16        -0.8070    0.1650   -3.6530 c3        1 1S1     -0.093900
      9 C17        -0.2260   -0.0620   -5.0240 c3        1 1S1     -0.098600
     10 C18         0.7220   -1.6180   -2.6520 c3        1 1S1     -0.093900
     11 C19        -0.3640   -2.6600   -2.6190 c3        1 1S1     -0.098600
     12 N21         2.2730    1.4300   -2.7890 n1        1 1S1     -0.362800
     13 C20         1.3540    0.7310   -2.6670 c1        1 1S1      0.227700
     14 N1         -0.4740    0.0760   -1.2270 nh        1 1S1     -0.834900
     15 N5          1.5610    0.1500    0.0380 nb        1 1S1     -0.834000
     16 C14         4.1770    0.5760    2.6110 c3        1 1S1      0.202100
     17 N6          1.3900    0.1370    2.4950 nb        1 1S1     -0.842000
     18 N2         -0.6320   -0.1180    1.1260 nb        1 1S1     -0.791000
     19 N8         -0.7330   -0.1440    3.5300 na        1 1S1     -0.116200
     20 N11        -2.0770   -0.3200    3.5900 nd        1 1S1     -0.467800
     21 C9         -0.2000   -0.0770    4.8530 cd        1 1S1      0.462400
     22 H1         -3.3540   -0.4910    5.3350 h5        1 1S1      0.076100
     23 H2          3.9770    0.5160    0.5370 hn        1 1S1      0.451800
     24 H3         -1.1180    1.2390   -3.5550 hc        1 1S1      0.062700
     25 H4         -1.7250   -0.4680   -3.5290 hc        1 1S1      0.062700
     26 H5         -0.1000   -1.1530   -5.2320 hc        1 1S1      0.043033
     27 H6         -0.9170    0.3600   -5.7940 hc        1 1S1      0.043033
     28 H7          0.7670    0.4360   -5.1320 hc        1 1S1      0.043033
     29 H8          1.2780   -1.6820   -3.6250 hc        1 1S1      0.062700
     30 H9          1.4630   -1.8220   -1.8350 hc        1 1S1      0.062700
     31 H10         0.0950   -3.6780   -2.6740 hc        1 1S1      0.043033
     32 H11        -0.9610   -2.6030   -1.6770 hc        1 1S1      0.043033
     33 H12        -1.0590   -2.5460   -3.4860 hc        1 1S1      0.043033
     34 H13        -1.4390   -0.1840   -1.2140 hn        1 1S1      0.451800
     35 H14         5.2820    0.5720    2.4150 h1        1 1S1      0.048700
     36 H15         3.8820    1.5800    3.0220 h1        1 1S1      0.048700
     37 H16         3.9400   -0.2070    3.3810 h1        1 1S1      0.048700
     38 H17         0.8670    0.0630    5.0650 h5        1 1S1      0.093100
@<TRIPOS>BOND
     1    1   14 1   
     2    1   15 ar  
     3    1   18 ar  
     4    2   17 ar  
     5    2   18 ar  
     6    2   19 1   
     7    3    6 1   
     8    3   15 ar  
     9    3   17 ar  
    10    4    5 1   
    11    4   21 2   
    12    5   20 2   
    13    5   22 1   
    14    6   16 1   
    15    6   23 1   
    16    7    8 1   
    17    7   10 1   
    18    7   13 1   
    19    7   14 1   
    20    8    9 1   
    21    8   24 1   
    22    8   25 1   
    23    9   26 1   
    24    9   27 1   
    25    9   28 1   
    26   10   11 1   
    27   10   29 1   
    28   10   30 1   
    29   11   31 1   
    30   11   32 1   
    31   11   33 1   
    32   12   13 3   
    33   14   34 1   
    34   16   35 1   
    35   16   36 1   
    36   16   37 1   
    37   19   20 1   
    38   19   21 1   
    39   21   38 1   
@<TRIPOS>SUBSTRUCTURE
     1 1S1         1 TEMP              0 ****  ****    0 ROOT
