@<TRIPOS>MOLECULE
1S3
   26    26     1     0     0
SMALL
bcc


@<TRIPOS>ATOM
      1 C1          0.2460    1.3700    0.3130 c3        1 1S3      0.348900
      2 O1          1.7850    1.3060    0.3830 os        1 1S3     -0.565200
      3 P           2.1150    1.3750    1.7320 p4        1 1S3      1.844100
      4 O2P         2.4220    2.8420    2.2070 oh        1 1S3     -0.761400
      5 O3P         3.3630    0.6650    2.0860 o         1 1S3     -0.771300
      6 O5         -0.3660    1.0550   -1.0760 os        1 1S3     -0.396600
      7 C5         -0.3310   -0.3000   -1.4010 c3        1 1S3      0.094100
      8 C6         -1.1480   -0.5260   -2.6950 c3        1 1S3      0.144400
      9 O6         -0.8360    0.4820   -3.6290 oh        1 1S3     -0.591800
     10 C4         -0.8960   -1.1490   -0.3200 c3        1 1S3      0.123100
     11 O4         -0.6840   -2.5550   -0.6610 oh        1 1S3     -0.588800
     12 C3         -0.2720   -0.8750    0.9730 c3        1 1S3      0.094100
     13 O3         -1.0020   -1.5960    2.0080 oh        1 1S3     -0.600800
     14 C2         -0.2630    0.5990    1.3210 c3        1 1S3      0.178800
     15 O2          0.7900    0.7080    2.4290 o         1 1S3     -0.876500
     16 H1         -0.0020    2.2940    0.5190 h2        1 1S3      0.112700
     17 H2          2.7530    2.8230    3.0250 ho        1 1S3      0.490000
     18 H3          0.5970   -0.5640   -1.5610 h1        1 1S3      0.080700
     19 H4         -0.9260   -1.4000   -3.0720 h1        1 1S3      0.066700
     20 H5         -2.1030   -0.4930   -2.4870 h1        1 1S3      0.066700
     21 H6         -1.0400    0.2010   -4.4470 ho        1 1S3      0.413000
     22 H7         -1.8550   -0.9790   -0.2520 h1        1 1S3      0.067700
     23 H8         -1.4320   -3.0080   -0.5260 ho        1 1S3      0.424000
     24 H9          0.6500   -1.2000    0.9530 h1        1 1S3      0.075700
     25 H10        -0.4260   -1.9870    2.5610 ho        1 1S3      0.422000
     26 H11        -1.1380    0.9120    1.6190 h1        1 1S3      0.100700
@<TRIPOS>BOND
     1    1    2 1   
     2    1    6 1   
     3    1   14 1   
     4    1   16 1   
     5    2    3 1   
     6    3    4 1   
     7    3    5 2   
     8    4   17 1   
     9    6    7 1   
    10    7    8 1   
    11    7   10 1   
    12    7   18 1   
    13    8    9 1   
    14    8   19 1   
    15    8   20 1   
    16    9   21 1   
    17   10   11 1   
    18   10   12 1   
    19   10   22 1   
    20   11   23 1   
    21   12   13 1   
    22   12   14 1   
    23   12   24 1   
    24   13   25 1   
    25   14   15 1   
    26   14   26 1   
@<TRIPOS>SUBSTRUCTURE
     1 1S3         1 TEMP              0 ****  ****    0 ROOT
