@<TRIPOS>MOLECULE
1S3
   26    27     1     0     0
SMALL
bcc


@<TRIPOS>ATOM
      1 C1          0.0460    0.7450    1.1920 c3        1 1S3      0.347900
      2 O1          0.7910    1.6250    0.3880 os        1 1S3     -0.566200
      3 P           2.0350    0.9680   -0.4050 p5        1 1S3      1.608500
      4 O2P         1.4670    0.7960   -1.8780 oh        1 1S3     -0.762400
      5 O3P         3.3370    1.5990   -0.3830 o         1 1S3     -0.769300
      6 O5         -1.2960    0.9560    0.8540 os        1 1S3     -0.403600
      7 C5         -1.8040    0.1790   -0.2370 c3        1 1S3      0.056100
      8 C6         -3.2540    0.6480   -0.4080 c3        1 1S3      0.140400
      9 O6         -3.3130    1.9960   -0.8110 oh        1 1S3     -0.589800
     10 C4         -1.7110   -1.2980    0.1510 c3        1 1S3      0.079100
     11 O4         -2.2410   -2.1470   -0.8530 oh        1 1S3     -0.594800
     12 C3         -0.2390   -1.7230    0.2950 c3        1 1S3      0.138100
     13 O3         -0.1710   -2.8840    1.1100 oh        1 1S3     -0.594800
     14 C2          0.6470   -0.6760    0.9940 c3        1 1S3      0.128100
     15 O2          1.8300   -0.5020    0.2370 os        1 1S3     -0.543200
     16 H1          0.1110    1.0920    2.2690 h2        1 1S3      0.116700
     17 H2          2.0020    1.1440   -2.5890 ho        1 1S3      0.490000
     18 H3         -1.2230    0.3920   -1.1740 h1        1 1S3      0.089700
     19 H4         -3.7410    0.0740   -1.2400 h1        1 1S3      0.053200
     20 H5         -3.8180    0.5000    0.5510 h1        1 1S3      0.053200
     21 H6         -2.8160    2.5130   -0.1610 ho        1 1S3      0.421000
     22 H7         -2.2520   -1.4680    1.1250 h1        1 1S3      0.065700
     23 H8         -3.1910   -1.9780   -0.8960 ho        1 1S3      0.412000
     24 H9          0.1770   -1.9520   -0.7290 h1        1 1S3      0.086700
     25 H10        -0.6090   -3.5890    0.6160 ho        1 1S3      0.423000
     26 H11         0.9580   -1.0970    1.9970 h1        1 1S3      0.115700
@<TRIPOS>BOND
     1    1    2 1   
     2    1    6 1   
     3    1   14 1   
     4    1   16 1   
     5    2    3 1   
     6    3    4 1   
     7    3    5 2   
     8    3   15 1   
     9    4   17 1   
    10    6    7 1   
    11    7    8 1   
    12    7   10 1   
    13    7   18 1   
    14    8    9 1   
    15    8   19 1   
    16    8   20 1   
    17    9   21 1   
    18   10   11 1   
    19   10   12 1   
    20   10   22 1   
    21   11   23 1   
    22   12   13 1   
    23   12   14 1   
    24   12   24 1   
    25   13   25 1   
    26   14   15 1   
    27   14   26 1   
@<TRIPOS>SUBSTRUCTURE
     1 1S3         1 TEMP              0 ****  ****    0 ROOT
