@<TRIPOS>MOLECULE
1S5
   50    51     1     0     0
SMALL
bcc


@<TRIPOS>ATOM
      1 OAA        -0.0340    0.7550   -0.0480 o         1 1S5     -0.581100
      2 CAB         1.1920    0.5530   -0.0380 c         1 1S5      0.573500
      3 CAC         1.9750    0.4390    1.1940 cc        1 1S5     -0.156100
      4 OAD         1.3440    0.2960    2.4330 os        1 1S5     -0.199200
      5 CAE         0.5280    1.3210    2.8470 ca        1 1S5      0.205100
      6 CAF        -0.2750    1.0180    3.9810 ca        1 1S5     -0.068300
      7 CAG        -0.1900   -0.3170    4.6120 c3        1 1S5     -0.059800
      8 CAH         2.0060    0.4320   -1.2380 cc        1 1S5     -0.297200
      9 CAI         3.3410    0.2770    1.1860 cd        1 1S5      0.115000
     10 CAJ         0.4710    2.5840    2.2400 ca        1 1S5     -0.154000
     11 CAK        -1.1380    1.9920    4.4650 ca        1 1S5     -0.083000
     12 CAL         3.3640    0.2620   -1.2070 cd        1 1S5      0.149800
     13 NAM         4.0530    0.2090    0.0110 na        1 1S5     -0.489200
     14 CAN        -0.3960    3.5520    2.7260 ca        1 1S5     -0.063000
     15 CAO        -1.2050    3.2510    3.8350 ca        1 1S5     -0.133400
     16 NAP        -2.1550    4.2450    4.3280 n4        1 1S5     -0.688000
     17 CAQ         4.1220    0.1430   -2.5010 c3        1 1S5     -0.058200
     18 CAR         5.4770   -0.0280    0.0500 c3        1 1S5      0.184100
     19 CAS         4.5970    1.4980   -2.9900 c3        1 1S5     -0.078400
     20 CAT         5.3320    1.3650   -4.3070 c3        1 1S5     -0.081400
     21 CAU         5.8050    2.7140   -4.8050 c3        1 1S5     -0.079400
     22 CAV         6.5410    2.5840   -6.1220 c3        1 1S5     -0.080400
     23 CAW         7.0150    3.9240   -6.6230 c3        1 1S5     -0.094100
     24 HAG         0.8330   -0.4720    5.0410 hc        1 1S5      0.068033
     25 HAGA       -0.3590   -1.1120    3.8400 hc        1 1S5      0.068033
     26 HAGB       -0.9450   -0.4370    5.4260 hc        1 1S5      0.068033
     27 HAH         1.4730    0.4710   -2.2010 ha        1 1S5      0.176000
     28 HAI         3.9150    0.1770    2.1280 h4        1 1S5      0.174000
     29 HAJ         1.0870    2.7920    1.3490 ha        1 1S5      0.180000
     30 HAK        -1.7700    1.7580    5.3380 ha        1 1S5      0.152000
     31 HAN        -0.4400    4.5340    2.2290 ha        1 1S5      0.152000
     32 HNAP       -1.8410    5.1870    4.0720 hn        1 1S5      0.457467
     33 HNAA       -3.0760    4.0720    3.9090 hn        1 1S5      0.457467
     34 HAQ         3.4330   -0.3070   -3.2670 hc        1 1S5      0.071700
     35 HAQA        4.9940   -0.5560   -2.4010 hc        1 1S5      0.071700
     36 HAR         5.9980    0.6810   -0.6480 h1        1 1S5      0.067700
     37 HARA        5.7010   -1.0850   -0.2610 h1        1 1S5      0.067700
     38 HARB        5.8670    0.1350    1.0900 h1        1 1S5      0.067700
     39 HAS         3.7150    2.1800   -3.1170 hc        1 1S5      0.046700
     40 HASA        5.2730    1.9680   -2.2280 hc        1 1S5      0.046700
     41 HAT         4.6550    0.8980   -5.0700 hc        1 1S5      0.045700
     42 HATA        6.2120    0.6800   -4.1820 hc        1 1S5      0.045700
     43 HAU         4.9260    3.3980   -4.9330 hc        1 1S5      0.041200
     44 HAUA        6.4820    3.1820   -4.0430 hc        1 1S5      0.041200
     45 HAV         5.8630    2.1150   -6.8840 hc        1 1S5      0.041700
     46 HAVA        7.4190    1.8970   -5.9940 hc        1 1S5      0.041700
     47 HAW         6.1520    4.6140   -6.7820 hc        1 1S5      0.036700
     48 HAWA        7.7120    4.3960   -5.8890 hc        1 1S5      0.036700
     49 HAWB        7.5540    3.8050   -7.5940 hc        1 1S5      0.036700
     50 HAP3       -2.2330    4.1790    5.3480 hn        1 1S5      0.457467
@<TRIPOS>BOND
     1    1    2 2   
     2    2    3 1   
     3    2    8 1   
     4    3    4 1   
     5    3    9 2   
     6    4    5 1   
     7    5    6 ar  
     8    5   10 ar  
     9    6    7 1   
    10    6   11 ar  
    11    7   24 1   
    12    7   25 1   
    13    7   26 1   
    14    8   12 2   
    15    8   27 1   
    16    9   13 1   
    17    9   28 1   
    18   10   14 ar  
    19   10   29 1   
    20   11   15 ar  
    21   11   30 1   
    22   12   13 1   
    23   12   17 1   
    24   13   18 1   
    25   14   15 ar  
    26   14   31 1   
    27   15   16 1   
    28   16   32 1   
    29   16   33 1   
    30   16   50 1   
    31   17   19 1   
    32   17   34 1   
    33   17   35 1   
    34   18   36 1   
    35   18   37 1   
    36   18   38 1   
    37   19   20 1   
    38   19   39 1   
    39   19   40 1   
    40   20   21 1   
    41   20   41 1   
    42   20   42 1   
    43   21   22 1   
    44   21   43 1   
    45   21   44 1   
    46   22   23 1   
    47   22   45 1   
    48   22   46 1   
    49   23   47 1   
    50   23   48 1   
    51   23   49 1   
@<TRIPOS>SUBSTRUCTURE
     1 1S5         1 TEMP              0 ****  ****    0 ROOT
