@<TRIPOS>MOLECULE
1S5
   49    50     1     0     0
SMALL
bcc


@<TRIPOS>ATOM
      1 OAA        -0.0260   -0.1000   -0.1640 o         1 1S5     -0.557100
      2 CAB         1.2060    0.0060   -0.0690 c         1 1S5      0.570500
      3 CAC         1.9240    0.1690    1.2000 cc        1 1S5     -0.088100
      4 OAD         1.2380    0.0580    2.4040 os        1 1S5     -0.231200
      5 CAE         0.5610    1.2050    2.8240 ca        1 1S5      0.081100
      6 CAF        -0.4760    0.9900    3.7530 ca        1 1S5     -0.047300
      7 CAG        -0.8330   -0.3850    4.1680 c3        1 1S5     -0.047800
      8 CAH         2.0970   -0.0230   -1.2270 cc        1 1S5     -0.307200
      9 CAI         3.2900    0.2810    1.2520 cd        1 1S5      0.071000
     10 CAJ         0.9020    2.4940    2.4120 ca        1 1S5     -0.143000
     11 CAK        -1.1500    2.0950    4.2680 ca        1 1S5     -0.164000
     12 CAL         3.4570    0.0860   -1.1280 cd        1 1S5      0.137800
     13 NAM         4.0760    0.2540    0.1140 na        1 1S5     -0.507200
     14 CAN         0.2180    3.5900    2.9260 ca        1 1S5     -0.165000
     15 CAO        -0.8140    3.4100    3.8720 ca        1 1S5      0.106600
     16 NAP        -1.4420    4.5170    4.4670 nh        1 1S5     -0.808200
     17 CAQ         4.2910    0.0400   -2.3780 c3        1 1S5     -0.051200
     18 CAR         5.5090    0.2810    0.2360 c3        1 1S5      0.195100
     19 CAS         4.5270    1.4300   -2.9360 c3        1 1S5     -0.079400
     20 CAT         5.3370    1.3690   -4.2140 c3        1 1S5     -0.080400
     21 CAU         5.5710    2.7530   -4.7790 c3        1 1S5     -0.079400
     22 CAV         6.3800    2.6950   -6.0570 c3        1 1S5     -0.080400
     23 CAW         6.6170    4.0720   -6.6230 c3        1 1S5     -0.093100
     24 HAG        -1.7870   -0.4020    4.7480 hc        1 1S5      0.049033
     25 HAGA       -0.0180   -0.8130    4.8050 hc        1 1S5      0.049033
     26 HAGB       -0.9420   -1.0390    3.2660 hc        1 1S5      0.049033
     27 HAH         1.6200   -0.1450   -2.2100 ha        1 1S5      0.162000
     28 HAI         3.8190    0.3890    2.2180 h4        1 1S5      0.166000
     29 HAJ         1.7000    2.6420    1.6700 ha        1 1S5      0.136000
     30 HAK        -1.9570    1.9300    4.9980 ha        1 1S5      0.134000
     31 HAN         0.4950    4.6000    2.5910 ha        1 1S5      0.130000
     32 HNAP       -2.3550    4.3130    4.8150 hn        1 1S5      0.379300
     33 HNAA       -1.4320    5.3320    3.8930 hn        1 1S5      0.379300
     34 HAQ         5.2740   -0.4710   -2.1950 hc        1 1S5      0.061700
     35 HAQA        3.7430   -0.5780   -3.1410 hc        1 1S5      0.061700
     36 HAR         5.9400   -0.7330    0.0150 h1        1 1S5      0.054700
     37 HARA        5.8010    0.5780    1.2790 h1        1 1S5      0.054700
     38 HARB        5.9400    1.0270   -0.4850 h1        1 1S5      0.054700
     39 HAS         5.0630    2.0620   -2.1800 hc        1 1S5      0.049200
     40 HASA        3.5390    1.9230   -3.1380 hc        1 1S5      0.049200
     41 HAT         4.7980    0.7400   -4.9710 hc        1 1S5      0.041700
     42 HATA        6.3230    0.8720   -4.0130 hc        1 1S5      0.041700
     43 HAU         4.5850    3.2490   -4.9810 hc        1 1S5      0.041700
     44 HAUA        6.1080    3.3830   -4.0220 hc        1 1S5      0.041700
     45 HAV         7.3650    2.1970   -5.8540 hc        1 1S5      0.039200
     46 HAVA        5.8410    2.0640   -6.8120 hc        1 1S5      0.039200
     47 HAW         7.2140    4.0060   -7.5640 hc        1 1S5      0.034033
     48 HAWA        7.1750    4.7080   -5.8940 hc        1 1S5      0.034033
     49 HAWB        5.6470    4.5740   -6.8560 hc        1 1S5      0.034033
@<TRIPOS>BOND
     1    1    2 2   
     2    2    3 1   
     3    2    8 1   
     4    3    4 1   
     5    3    9 2   
     6    4    5 1   
     7    5    6 ar  
     8    5   10 ar  
     9    6    7 1   
    10    6   11 ar  
    11    7   24 1   
    12    7   25 1   
    13    7   26 1   
    14    8   12 2   
    15    8   27 1   
    16    9   13 1   
    17    9   28 1   
    18   10   14 ar  
    19   10   29 1   
    20   11   15 ar  
    21   11   30 1   
    22   12   13 1   
    23   12   17 1   
    24   13   18 1   
    25   14   15 ar  
    26   14   31 1   
    27   15   16 1   
    28   16   32 1   
    29   16   33 1   
    30   17   19 1   
    31   17   34 1   
    32   17   35 1   
    33   18   36 1   
    34   18   37 1   
    35   18   38 1   
    36   19   20 1   
    37   19   39 1   
    38   19   40 1   
    39   20   21 1   
    40   20   41 1   
    41   20   42 1   
    42   21   22 1   
    43   21   43 1   
    44   21   44 1   
    45   22   23 1   
    46   22   45 1   
    47   22   46 1   
    48   23   47 1   
    49   23   48 1   
    50   23   49 1   
@<TRIPOS>SUBSTRUCTURE
     1 1S5         1 TEMP              0 ****  ****    0 ROOT
