@<TRIPOS>MOLECULE
1S5
   49    50     1     0     0
SMALL
bcc


@<TRIPOS>ATOM
      1 OAA        -0.4860    0.1800   -0.8760 o         1 1S5     -0.572100
      2 CAB         0.7260    0.1040   -0.6130 c         1 1S5      0.574500
      3 CAC         1.2740    0.0510    0.7460 cc        1 1S5     -0.082100
      4 OAD         0.4170   -0.1180    1.8300 os        1 1S5     -0.236200
      5 CAE        -0.0040    1.0770    2.4280 ca        1 1S5      0.046100
      6 CAF         0.2970    1.2780    3.7850 ca        1 1S5     -0.051300
      7 CAG         1.1040    0.3010    4.5500 c3        1 1S5     -0.048800
      8 CAH         1.7560    0.0700   -1.6470 cc        1 1S5     -0.308200
      9 CAI         2.6250    0.0230    0.9770 cd        1 1S5      0.070000
     10 CAJ        -0.8030    1.9840    1.7230 ca        1 1S5     -0.100000
     11 CAK        -0.2110    2.4120    4.4230 ca        1 1S5     -0.188000
     12 CAL         3.0950    0.0370   -1.3690 cd        1 1S5      0.139800
     13 NAM         3.5530    0.0350   -0.0500 na        1 1S5     -0.505200
     14 CAN        -1.2980    3.1110    2.3620 ca        1 1S5     -0.181000
     15 CAO        -1.0020    3.3500    3.7260 ca        1 1S5      0.128600
     16 NAP        -1.4210    4.5340    4.3500 nv        1 1S5     -0.814200
     17 CAQ         4.0820    0.0170   -2.5040 c3        1 1S5     -0.052200
     18 CAR         4.9570   -0.0450    0.2550 c3        1 1S5      0.195100
     19 CAS         4.4860    1.4220   -2.9080 c3        1 1S5     -0.080400
     20 CAT         5.4490    1.3910   -4.0750 c3        1 1S5     -0.080400
     21 CAU         5.8530    2.7910   -4.4870 c3        1 1S5     -0.079400
     22 CAV         6.8160    2.7640   -5.6550 c3        1 1S5     -0.079400
     23 CAW         7.2210    4.1550   -6.0680 c3        1 1S5     -0.093100
     24 HAG         1.7530    0.8180    5.2990 hc        1 1S5      0.044700
     25 HAGA        0.4270   -0.4050    5.0960 hc        1 1S5      0.044700
     26 HAGB        1.7500   -0.3020    3.8650 hc        1 1S5      0.044700
     27 HAH         1.4060    0.0780   -2.6900 ha        1 1S5      0.161000
     28 HAI         3.0290   -0.0120    2.0070 h4        1 1S5      0.163000
     29 HAJ        -1.0390    1.7840    0.6640 ha        1 1S5      0.171000
     30 HAK         0.0240    2.5690    5.4870 ha        1 1S5      0.131000
     31 HAN        -1.9230    3.8200    1.7980 ha        1 1S5      0.135000
     32 HNAP       -1.4930    4.4640    5.3410 hn        1 1S5      0.384800
     33 HNAA       -2.2280    4.9440    3.9330 hn        1 1S5      0.384800
     34 HAQ         3.5950   -0.4950   -3.3790 hc        1 1S5      0.061700
     35 HAQA        4.9930   -0.5840   -2.2430 hc        1 1S5      0.061700
     36 HAR         5.3540   -1.0650   -0.0010 h1        1 1S5      0.054367
     37 HARA        5.5210    0.7260   -0.3360 h1        1 1S5      0.054367
     38 HARB        5.1250    0.1440    1.3480 h1        1 1S5      0.054367
     39 HAS         4.9620    1.9490   -2.0400 hc        1 1S5      0.050200
     40 HASA        3.5700    2.0070   -3.1880 hc        1 1S5      0.050200
     41 HAT         4.9710    0.8670   -4.9440 hc        1 1S5      0.040700
     42 HATA        6.3630    0.8020   -3.7960 hc        1 1S5      0.040700
     43 HAU         4.9390    3.3780   -4.7670 hc        1 1S5      0.042200
     44 HAUA        6.3300    3.3160   -3.6180 hc        1 1S5      0.042200
     45 HAV         6.3360    2.2380   -6.5220 hc        1 1S5      0.038700
     46 HAVA        7.7280    2.1730   -5.3740 hc        1 1S5      0.038700
     47 HAW         7.7230    4.6870   -5.2240 hc        1 1S5      0.034033
     48 HAWA        7.9290    4.1130   -6.9300 hc        1 1S5      0.034033
     49 HAWB        6.3270    4.7510   -6.3750 hc        1 1S5      0.034033
@<TRIPOS>BOND
     1    1    2 2   
     2    2    3 1   
     3    2    8 1   
     4    3    4 1   
     5    3    9 2   
     6    4    5 1   
     7    5    6 ar  
     8    5   10 ar  
     9    6    7 1   
    10    6   11 ar  
    11    7   24 1   
    12    7   25 1   
    13    7   26 1   
    14    8   12 2   
    15    8   27 1   
    16    9   13 1   
    17    9   28 1   
    18   10   14 ar  
    19   10   29 1   
    20   11   15 ar  
    21   11   30 1   
    22   12   13 1   
    23   12   17 1   
    24   13   18 1   
    25   14   15 ar  
    26   14   31 1   
    27   15   16 1   
    28   16   32 1   
    29   16   33 1   
    30   17   19 1   
    31   17   34 1   
    32   17   35 1   
    33   18   36 1   
    34   18   37 1   
    35   18   38 1   
    36   19   20 1   
    37   19   39 1   
    38   19   40 1   
    39   20   21 1   
    40   20   41 1   
    41   20   42 1   
    42   21   22 1   
    43   21   43 1   
    44   21   44 1   
    45   22   23 1   
    46   22   45 1   
    47   22   46 1   
    48   23   47 1   
    49   23   48 1   
    50   23   49 1   
@<TRIPOS>SUBSTRUCTURE
     1 1S5         1 TEMP              0 ****  ****    0 ROOT
