@<TRIPOS>MOLECULE
1S6
   48    43     1     0     0
SMALL
bcc


@<TRIPOS>ATOM
      1 C          -0.4760    1.0530   -1.4060 c1        1 1S6      0.191000
      2 N           1.1240    0.3000    0.2210 n3        1 1S6     -0.342000
      3 CA          0.8120    0.2930   -1.1720 c2        1 1S6     -0.039000
      4 CB          0.6460   -1.1240   -1.6490 c3        1 1S6     -0.078000
      5 CAA         4.1050    0.7670    2.1850 c3        1 1S6     -0.180000
      6 CAB        -2.4310   -2.2920   -3.1480 c3        1 1S6     -0.202000
      7 CAC        -1.0150   -4.0970   -2.1260 c3        1 1S6     -0.202000
      8 OAE         1.9900   -3.6090   -3.2670 o         1 1S6     -0.554500
      9 OAF         1.7690    2.4720    0.1980 o         1 1S6     -0.404000
     10 OAH         0.7900   -4.2710   -4.9680 o         1 1S6     -0.554500
     11 CAI        -3.3280    3.2780    3.2350 c1        1 1S6     -0.113500
     12 CAJ        -2.3230    4.2020    3.4710 c1        1 1S6     -0.113500
     13 CAK        -3.0020    1.9390    2.9930 c1        1 1S6     -0.113500
     14 CAL        -0.9930    3.7960    3.4660 c1        1 1S6     -0.113500
     15 CAM        -1.6750    1.5370    2.9880 c1        1 1S6     -0.104000
     16 NAN         1.4780    1.9140    4.5500 n2        1 1S6     -0.029000
     17 NAP         0.8040   -1.1750   -3.3960 n3        1 1S6     -0.283000
     18 OAQ         2.7610    1.4480    4.2750 os        1 1S6     -0.073000
     19 SAR        -0.6560   -1.5920   -1.3410 ss        1 1S6     -0.139000
     20 CAT         1.0200   -3.4350   -4.0430 c1        1 1S6      0.348000
     21 CAU         1.4770    1.5040    0.8580 c1        1 1S6      0.382000
     22 CAV         2.8540    1.2190    2.9280 c2        1 1S6      0.045000
     23 CAW        -0.6730    2.4550    3.2230 c1        1 1S6     -0.048000
     24 CAX         0.7970    1.9690    3.3920 c1        1 1S6     -0.031000
     25 CAY         1.6500    1.5350    2.3650 c1        1 1S6     -0.214000
     26 CBB         0.1600   -2.3580   -3.8480 c2        1 1S6     -0.129000
     27 CBC        -1.0510   -2.6220   -2.6060 c3        1 1S6     -0.085000
     28 OXT        -0.5350    1.8650   -2.2680 o         1 1S6     -0.314000
     29 H1         -1.2910    0.8250   -0.8810 ha        1 1S6      0.131000
     30 H2          1.1630   -0.5040    0.6930 hn        1 1S6      0.251000
     31 H3          1.5320    0.7160   -1.6670 h4        1 1S6      0.154000
     32 H4          1.3360   -1.7180   -1.2210 h2        1 1S6      0.106000
     33 H5          4.7370    0.3590    2.8270 hc        1 1S6      0.117000
     34 H6          4.5250    1.5350    1.7610 hc        1 1S6      0.117000
     35 H7          3.8670    0.1220    1.5170 hc        1 1S6      0.117000
     36 H8         -3.0300   -2.0970   -2.4120 hc        1 1S6      0.085500
     37 H9         -2.7850   -3.0870   -3.6720 hc        1 1S6      0.085500
     38 H10        -2.3720   -1.4920   -3.7540 hc        1 1S6      0.085500
     39 H11        -0.1020   -4.3150   -1.7850 hc        1 1S6      0.085500
     40 H12        -1.2320   -4.6850   -2.8690 hc        1 1S6      0.085500
     41 H13        -1.6600   -4.2200   -1.4200 hc        1 1S6      0.085500
     42 H15        -4.2280    3.5390    3.2900 ha        1 1S6      0.136250
     43 H16        -2.5440    5.1720    3.5340 ha        1 1S6      0.136250
     44 H17        -3.7140    1.2830    2.8130 ha        1 1S6      0.136250
     45 H18        -0.2830    4.4460    3.6330 ha        1 1S6      0.136250
     46 H19        -1.4570    0.6040    2.8840 ha        1 1S6      0.145000
     47 H20         1.7040   -1.2060   -3.6260 hn        1 1S6      0.199000
     48 H22        -0.2440   -2.2470   -4.7560 h4        1 1S6      0.098000
@<TRIPOS>BOND
     1    1   28 1   
     2    1   29 1   
     3    2    3 1   
     4    2   21 1   
     5    2   30 1   
     6    3    4 1   
     7    3   31 1   
     8    4   17 1   
     9    4   19 1   
    10    4   32 1   
    11    5   22 1   
    12    5   33 1   
    13    5   34 1   
    14    5   35 1   
    15    6   27 1   
    16    6   36 1   
    17    6   37 1   
    18    6   38 1   
    19    7   27 1   
    20    7   39 1   
    21    7   40 1   
    22    7   41 1   
    23    8   20 1   
    24    9   21 1   
    25   10   20 1   
    26   11   13 1   
    27   11   42 1   
    28   12   14 1   
    29   12   43 1   
    30   13   44 1   
    31   14   45 1   
    32   15   23 1   
    33   15   46 1   
    34   16   18 1   
    35   16   24 1   
    36   17   26 1   
    37   17   47 1   
    38   18   22 1   
    39   19   27 1   
    40   22   25 1   
    41   24   25 1   
    42   26   27 1   
    43   26   48 1   
@<TRIPOS>SUBSTRUCTURE
     1 1S6         1 TEMP              0 ****  ****    0 ROOT
