@<TRIPOS>MOLECULE
1S6
   49    47     1     0     0
SMALL
bcc


@<TRIPOS>ATOM
      1 C           2.8080   -1.7460   -0.4370 c2        1 1S6      0.211000
      2 N           2.1590   -0.9810    1.8500 n2        1 1S6     -0.167000
      3 CA          2.0590   -1.8010    0.8660 c2        1 1S6     -0.061000
      4 CB          1.1590   -3.0030    0.9390 c3        1 1S6     -0.258000
      5 CAI         1.9210    5.1780    2.1730 c1        1 1S6      0.374000
      6 CAJ         6.8020    4.0810    2.1190 c2        1 1S6     -0.207000
      7 CAK         3.1340    4.6640    2.3350 c2        1 1S6     -0.539000
      8 CAL         5.7860    3.6940    2.8860 c2        1 1S6     -0.180000
      9 CAM         3.3750    3.2700    2.2840 c1        1 1S6     -0.022000
     10 NAN         5.3400    1.3130    4.4640 n2        1 1S6     -0.025000
     11 NAP         3.6760   -2.4570   -3.5180 n2        1 1S6     -0.347000
     12 OAQ         5.0490    0.1100    4.9200 os        1 1S6     -0.068000
     13 SAR        -0.5030   -2.6590    0.4660 ss        1 1S6      0.088000
     14 CAT         3.6260   -5.6700   -2.1170 c1        1 1S6      0.450000
     15 CAV         4.1490   -0.5480    4.0420 c2        1 1S6      0.014000
     16 CAW         4.7370    2.7300    2.4420 c3        1 1S6     -0.065000
     17 CAX         4.6810    1.5160    3.3070 c2        1 1S6     -0.055000
     18 CAY         3.8890    0.3180    2.9980 c2        1 1S6     -0.164000
     19 CBB         3.8890   -3.6100   -3.5890 c1        1 1S6      0.053000
     20 CBC        -0.4850   -2.6670   -1.3200 c3        1 1S6     -0.217000
     21 OXT         2.5790   -0.9140   -1.3170 o         1 1S6     -0.317000
     22 H1          3.5700   -2.5490   -0.5600 h4        1 1S6      0.124000
     23 H2          2.2610    1.1040    1.8750 h2        1 1S6      0.162000
     24 H3          1.0770   -3.3760    1.9940 h1        1 1S6      0.137000
     25 H4          1.5980   -3.8240    0.3160 h1        1 1S6      0.137000
     26 H5          4.0650   -2.6350    3.6690 hc        1 1S6      0.108333
     27 H6          4.1740   -2.1700    5.4250 hc        1 1S6      0.108333
     28 H7          2.6140   -1.9340    4.5110 hc        1 1S6      0.108333
     29 H16         7.5590    4.7950    2.4700 ha        1 1S6      0.115000
     30 H17         3.9700    5.3770    2.5300 ha        1 1S6      0.187000
     31 H18         5.6710    4.0670    3.9170 ha        1 1S6      0.137000
     32 H19         4.9830    2.3480    1.3910 hc        1 1S6      0.166000
     33 H20         3.4800   -1.5100   -3.4100 hn        1 1S6      0.298000
     34 H22         0.3460   -1.9990   -1.6720 h1        1 1S6      0.112000
     35 CAB        -1.8150   -2.0790   -1.7210 c3        1 1S6     -0.208000
     36 CAC        -0.2940   -4.0470   -1.8900 c3        1 1S6     -0.208000
     37 OAE         3.1450   -4.8900   -1.3480 o         1 1S6     -0.228000
     38 OAH         4.0870   -6.5130   -2.8130 o         1 1S6     -0.228000
     39 H8         -2.6560   -2.7080   -1.3410 hc        1 1S6      0.085500
     40 H9         -1.9280   -1.0450   -1.3110 hc        1 1S6      0.085500
     41 H10        -1.8890   -2.0280   -2.8350 hc        1 1S6      0.085500
     42 H11        -0.3570   -4.0140   -3.0060 hc        1 1S6      0.085500
     43 H12         0.7090   -4.4570   -1.6090 hc        1 1S6      0.085500
     44 H13        -1.0810   -4.7440   -1.5130 hc        1 1S6      0.085500
     45 HN3         3.2960    0.8420   -0.0020 ho        1 1S6      0.219000
     46 CAU         2.9780    0.2170    1.8220 c3        1 1S6      0.144000
     47 CAA         3.7310   -1.8910    4.4360 c3        1 1S6     -0.163000
     48 H15         6.9560    3.7120    1.0960 ha        1 1S6      0.115000
     49 OAF         3.7960    0.3280    0.6450 oh        1 1S6     -0.356000
@<TRIPOS>BOND
     1    1    3 1   
     2    1   21 1   
     3    1   22 1   
     4    2    3 1   
     5    2   46 1   
     6    3    4 1   
     7    4   13 1   
     8    4   24 1   
     9    4   25 1   
    10    5    7 1   
    11    6    8 1   
    12    6   29 1   
    13    6   48 1   
    14    7    9 1   
    15    7   30 1   
    16    8   16 1   
    17    8   31 1   
    18    9   16 1   
    19   10   12 1   
    20   10   17 1   
    21   11   19 1   
    22   11   33 1   
    23   12   15 1   
    24   13   20 1   
    25   14   37 1   
    26   14   38 1   
    27   15   18 1   
    28   15   47 1   
    29   16   17 1   
    30   16   32 1   
    31   17   18 1   
    32   18   46 1   
    33   20   34 1   
    34   20   35 1   
    35   20   36 1   
    36   23   46 1   
    37   26   47 1   
    38   27   47 1   
    39   28   47 1   
    40   35   39 1   
    41   35   40 1   
    42   35   41 1   
    43   36   42 1   
    44   36   43 1   
    45   36   44 1   
    46   45   49 1   
    47   46   49 1   
@<TRIPOS>SUBSTRUCTURE
     1 1S6         1 TEMP              0 ****  ****    0 ROOT
