@<TRIPOS>MOLECULE
1S6
   49    46     1     0     0
SMALL
bcc


@<TRIPOS>ATOM
      1 C          -0.3370   -1.3440    1.1400 c2        1 1S6      0.206000
      2 N           0.9320   -0.8760   -0.9760 n2        1 1S6     -0.137000
      3 CA          0.1430   -0.5410   -0.0280 c2        1 1S6     -0.141000
      4 CB          1.5380   -2.1620   -1.0730 c3        1 1S6     -0.227000
      5 CAI         6.2080    6.0700    2.5180 c1        1 1S6      0.369000
      6 CAJ         7.9070    1.3940    2.0150 c2        1 1S6     -0.208000
      7 CAK         6.4540    4.7660    2.5300 c2        1 1S6     -0.544000
      8 CAL         7.1560    1.9910    2.9370 c2        1 1S6     -0.182000
      9 CAM         5.4240    3.8160    2.7580 c1        1 1S6      0.009000
     10 NAN         4.9520    1.6970    5.0250 n2        1 1S6     -0.030000
     11 NAP         3.6220    0.2150   -2.0410 n2        1 1S6     -0.330000
     12 OAQ         3.9970    0.9520    5.5610 os        1 1S6     -0.057000
     13 SAR         0.7690   -3.4990   -0.1630 ss        1 1S6     -0.010000
     14 CAT         3.0930   -1.9560   -4.9490 c1        1 1S6      0.458000
     15 CAV         3.1960    0.3820    4.5560 c2        1 1S6      0.064000
     16 CAW         5.7290    2.3750    2.7190 c3        1 1S6     -0.078000
     17 CAX         4.8430    1.6560    3.6840 c2        1 1S6     -0.008000
     18 CAY         3.7020    0.8010    3.3280 c2        1 1S6     -0.286000
     19 CBB         3.5240   -0.4330   -3.0150 c1        1 1S6      0.035000
     20 CBC        -0.3640   -4.2240   -1.3520 c3        1 1S6     -0.187000
     21 OXT         0.1990   -1.2470    2.2480 o         1 1S6     -0.317000
     22 H1         -1.2560   -1.9450    0.9710 h4        1 1S6      0.116000
     23 H2          2.2320   -0.1150    2.0260 h4        1 1S6      0.120000
     24 H3          1.5970   -2.4200   -2.1690 h2        1 1S6      0.155500
     25 H4          2.5890   -2.1020   -0.6730 h2        1 1S6      0.155500
     26 H5          1.4250   -0.7140    4.1220 hc        1 1S6      0.122667
     27 H6          2.4970   -1.4300    5.4120 hc        1 1S6      0.122667
     28 H7          1.4960    0.0370    5.7850 hc        1 1S6      0.122667
     29 H16         8.9570    1.1310    2.2000 ha        1 1S6      0.116500
     30 H17         7.5060    4.4340    2.3680 ha        1 1S6      0.183000
     31 H18         7.5560    2.2390    3.9340 ha        1 1S6      0.137000
     32 H19         5.4000    2.0660    1.6680 hc        1 1S6      0.177000
     33 H20         3.6680    0.7300   -1.2160 hn        1 1S6      0.306000
     34 H22        -0.9430   -3.3950   -1.8360 h1        1 1S6      0.106000
     35 CAB        -1.2870   -5.0960   -0.5420 c3        1 1S6     -0.211500
     36 CAC         0.3660   -5.0060   -2.4110 c3        1 1S6     -0.211500
     37 OAE         2.4250   -2.6880   -4.2830 o         1 1S6     -0.235500
     38 OAH         3.7330   -1.3140   -5.7190 o         1 1S6     -0.235500
     39 H8         -0.7130   -5.8940   -0.0110 hc        1 1S6      0.089333
     40 H9         -1.8390   -4.4890    0.2160 hc        1 1S6      0.089333
     41 H10        -2.0330   -5.5880   -1.2140 hc        1 1S6      0.089333
     42 H11         1.0400   -4.3410   -3.0070 hc        1 1S6      0.089333
     43 H12        -0.3690   -5.4770   -3.1110 hc        1 1S6      0.089333
     44 H13         0.9820   -5.8160   -1.9500 hc        1 1S6      0.089333
     45 HN3        -0.2590    0.4950   -0.0530 h4        1 1S6      0.171000
     46 CAU         3.1880    0.4650    2.0190 c2        1 1S6      0.273000
     47 CAA         2.0940   -0.4740    4.9880 c3        1 1S6     -0.192000
     48 H15         7.5300    1.1230    1.0190 ha        1 1S6      0.116500
     49 OAF         3.7350    0.7750    0.9520 o         1 1S6     -0.348000
@<TRIPOS>BOND
     1    1    3 1   
     2    1   21 1   
     3    1   22 1   
     4    2    3 1   
     5    2    4 1   
     6    3   45 1   
     7    4   13 1   
     8    4   24 1   
     9    4   25 1   
    10    5    7 1   
    11    6    8 1   
    12    6   29 1   
    13    6   48 1   
    14    7    9 1   
    15    7   30 1   
    16    8   16 1   
    17    8   31 1   
    18    9   16 1   
    19   10   12 1   
    20   10   17 1   
    21   11   19 1   
    22   11   33 1   
    23   12   15 1   
    24   13   20 1   
    25   14   37 1   
    26   14   38 1   
    27   15   18 1   
    28   15   47 1   
    29   16   17 1   
    30   16   32 1   
    31   17   18 1   
    32   18   46 1   
    33   20   34 1   
    34   20   35 1   
    35   20   36 1   
    36   23   46 1   
    37   26   47 1   
    38   27   47 1   
    39   28   47 1   
    40   35   39 1   
    41   35   40 1   
    42   35   41 1   
    43   36   42 1   
    44   36   43 1   
    45   36   44 1   
    46   46   49 1   
@<TRIPOS>SUBSTRUCTURE
     1 1S6         1 TEMP              0 ****  ****    0 ROOT
