@<TRIPOS>MOLECULE
1S6
   48    50     1     0     0
SMALL
bcc


@<TRIPOS>ATOM
      1 C           1.4480   -2.8140   -1.0730 c         1 1S6      0.575900
      2 N          -0.5750   -1.5890   -0.3150 n         1 1S6     -0.540900
      3 CA          0.6800   -1.4980   -1.0220 c3        1 1S6     -0.009300
      4 CB          1.5840   -0.4040   -0.4150 c3        1 1S6      0.271600
      5 CAI        -2.1060    3.9590   -0.2250 ca        1 1S6     -0.121000
      6 CAJ        -1.2200    2.9590    0.1770 ca        1 1S6     -0.129500
      7 CAK        -3.4640    3.6750   -0.3700 ca        1 1S6     -0.129500
      8 CAL        -1.6990    1.6740    0.4320 ca        1 1S6     -0.104000
      9 CAM        -3.9450    2.3900   -0.1270 ca        1 1S6     -0.104000
     10 NAN        -4.6430   -0.3050    1.2070 nc        1 1S6     -0.372300
     11 NAP         2.6110    0.1270   -1.2760 n3        1 1S6     -0.740200
     12 OAQ        -4.7960   -1.6170    1.1970 os        1 1S6     -0.130100
     13 SAR         2.4270   -1.0790    1.0940 ss        1 1S6     -0.540200
     14 CAT         3.1110    2.2850   -0.0710 c         1 1S6      0.945600
     15 CAV        -3.7670   -2.2240    0.4390 cc        1 1S6      0.303000
     16 CAW        -3.0580    1.3780    0.2660 ca        1 1S6     -0.158500
     17 CAX        -3.5480    0.0250    0.4880 cd        1 1S6      0.428800
     18 CAY        -2.9510   -1.2140   -0.0320 cd        1 1S6     -0.368200
     19 CBB         3.5820    0.8260   -0.4350 c3        1 1S6      0.017500
     20 CBC         3.8780    0.0070    0.8580 c3        1 1S6      0.087100
     21 OXT         0.9760   -3.9190   -0.8080 o         1 1S6     -0.537100
     22 H1          2.5000   -2.7020   -1.4210 h4        1 1S6      0.001200
     23 H2         -0.5230   -1.5830    0.6780 hn        1 1S6      0.325500
     24 H3          0.4520   -1.2230   -2.1030 h1        1 1S6      0.120700
     25 H4          0.9830    0.4900   -0.0610 h2        1 1S6      0.154700
     26 H5         -4.3860   -4.1320    1.1600 hc        1 1S6      0.069700
     27 H6         -4.2720   -3.9720   -0.6480 hc        1 1S6      0.069700
     28 H7         -2.7530   -4.0860    0.3450 hc        1 1S6      0.069700
     29 H15        -1.7280    4.9710   -0.4300 ha        1 1S6      0.131000
     30 H16        -0.1340    3.1630    0.2830 ha        1 1S6      0.167000
     31 H17        -4.1610    4.4660   -0.6830 ha        1 1S6      0.167000
     32 H18        -0.9950    0.8980    0.7690 ha        1 1S6      0.136500
     33 H19        -5.0140    2.1670   -0.2490 ha        1 1S6      0.136500
     34 H20         3.0670   -0.6130   -1.7840 hn        1 1S6      0.325800
     35 H22         4.5380    0.9400   -1.0200 h1        1 1S6      0.069700
     36 CAB         5.0840   -0.8810    0.6650 c3        1 1S6     -0.083600
     37 CAC         4.0470    0.8950    2.0620 c3        1 1S6     -0.083600
     38 OAE         1.9300    2.4670    0.3330 o         1 1S6     -0.827300
     39 OAH         3.9840    3.1800   -0.2010 o         1 1S6     -0.827300
     40 CAU        -1.7850   -1.3310   -0.9300 c         1 1S6      0.712700
     41 CAA        -3.7970   -3.6800    0.3230 c3        1 1S6     -0.145400
     42 H8          4.9720   -1.5070   -0.2540 hc        1 1S6      0.042200
     43 H9          6.0040   -0.2550    0.5580 hc        1 1S6      0.042200
     44 H10         5.2190   -1.5600    1.5420 hc        1 1S6      0.042200
     45 H11         4.3650    0.2980    2.9500 hc        1 1S6      0.042200
     46 H12         4.8190    1.6770    1.8460 hc        1 1S6      0.042200
     47 H13         3.0850    1.4180    2.2930 hc        1 1S6      0.042200
     48 OAF        -1.8960   -1.2540   -2.1690 o         1 1S6     -0.591100
@<TRIPOS>BOND
     1    1    3 1   
     2    1   21 2   
     3    1   22 1   
     4    2    3 1   
     5    2   23 1   
     6    2   40 1   
     7    3    4 1   
     8    3   24 1   
     9    4   11 1   
    10    4   13 1   
    11    4   25 1   
    12    5    6 ar  
    13    5    7 ar  
    14    5   29 1   
    15    6    8 ar  
    16    6   30 1   
    17    7    9 ar  
    18    7   31 1   
    19    8   16 ar  
    20    8   32 1   
    21    9   16 ar  
    22    9   33 1   
    23   10   12 1   
    24   10   17 2   
    25   11   19 1   
    26   11   34 1   
    27   12   15 1   
    28   13   20 1   
    29   14   19 1   
    30   14   38 1   
    31   14   39 1   
    32   15   18 2   
    33   15   41 1   
    34   16   17 1   
    35   17   18 1   
    36   18   40 1   
    37   19   20 1   
    38   19   35 1   
    39   20   36 1   
    40   20   37 1   
    41   26   41 1   
    42   27   41 1   
    43   28   41 1   
    44   36   42 1   
    45   36   43 1   
    46   36   44 1   
    47   37   45 1   
    48   37   46 1   
    49   37   47 1   
    50   40   48 2   
@<TRIPOS>SUBSTRUCTURE
     1 1S6         1 TEMP              0 ****  ****    0 ROOT
