@<TRIPOS>MOLECULE
1S7
   39    39     1     0     0
SMALL
bcc


@<TRIPOS>ATOM
      1 C          -0.6960   -0.7400    0.7810 c3        1 1S7      0.098000
      2 N           1.7190    0.9860    2.1030 n         1 1S7     -0.299000
      3 O          -0.9800   -1.3920   -0.4310 oh        1 1S7     -0.356000
      4 S           1.8770    2.7510    6.4920 ss        1 1S7      0.402000
      5 C1          2.2940   -0.1240    1.4480 c2        1 1S7      0.045000
      6 O1          0.9500   -0.1300    3.9940 o         1 1S7     -0.334000
      7 S1          3.9140   -0.7620   -0.7340 ss        1 1S7      0.855000
      8 N2          4.3650    1.2130    1.1870 n2        1 1S7     -0.190000
      9 C3          1.0220    2.2750    4.1010 c3        1 1S7     -0.137000
     10 C4          2.2340    2.7430    4.8320 c2        1 1S7     -0.325000
     11 C5          3.3650    3.1090    4.2230 c2        1 1S7     -0.176000
     12 C6          4.3940    3.7880    6.9250 c1        1 1S7      0.193000
     13 C7          3.2130    3.3490    7.3000 c2        1 1S7     -0.677000
     14 C8          3.7450   -0.0770    1.0290 c3        1 1S7     -0.377000
     15 C9          5.1270   -0.1470   -1.1370 c1        1 1S7     -0.678000
     16 C10         6.1160    0.7750   -0.6510 c3        1 1S7      0.043000
     17 C11         6.6320    1.8800   -1.5070 c2        1 1S7     -0.515000
     18 C13         5.4090    1.5360    0.4980 c2        1 1S7     -0.072000
     19 C14         1.6010   -1.2360    1.0860 c2        1 1S7     -0.117000
     20 C15         5.9800    2.9270    0.4280 c2        1 1S7      0.297000
     21 H          -1.6180   -0.8310    1.4150 h2        1 1S7      0.103000
     22 HA         -0.3800    0.3210    0.6180 h2        1 1S7      0.103000
     23 HB         -0.1600   -1.4490   -0.9350 ho        1 1S7      0.205000
     24 HN          2.1420    1.8600    1.8520 hn        1 1S7      0.241000
     25 H3          0.7100    3.0560    3.3570 hc        1 1S7      0.115000
     26 H3A         0.1630    2.1310    4.8160 hc        1 1S7      0.115000
     27 H5          3.5080    3.0730    3.1310 ha        1 1S7      0.152500
     28 H6          4.2570    3.4660    4.7640 ha        1 1S7      0.152500
     29 H7          3.0210    3.3570    8.3980 h4        1 1S7      0.217000
     30 H8          4.2990   -0.8400    1.6460 h2        1 1S7      0.120000
     31 H9          6.6560   -0.8680    1.8770 ha        1 1S7      0.000500
     32 H9A         6.7540   -1.4150    2.2640 ha        1 1S7      0.000500
     33 H11         7.5930    1.7600   -2.0090 h4        1 1S7      0.083000
     34 H11A        6.9550    0.1440   -0.2130 hc        1 1S7      0.074000
     35 H14         2.0880   -2.0940    0.5940 h4        1 1S7      0.139000
     36 O4          0.2920   -1.5280    1.4250 os        1 1S7     -0.234000
     37 C2          1.2520    0.9280    3.4170 c2        1 1S7      0.298000
     38 O5          6.6700    3.0800   -0.7180 os        1 1S7     -0.154000
     39 O6          5.8680    3.8860    1.2050 o         1 1S7     -0.413000
@<TRIPOS>BOND
     1    1    3 1   
     2    1   21 1   
     3    1   22 1   
     4    1   36 1   
     5    2    5 1   
     6    2   24 1   
     7    2   37 1   
     8    3   23 1   
     9    4   10 1   
    10    4   13 1   
    11    5   14 1   
    12    5   19 1   
    13    6   37 1   
    14    7   14 1   
    15    7   15 1   
    16    8   14 1   
    17    8   18 1   
    18    9   10 1   
    19    9   25 1   
    20    9   26 1   
    21    9   37 1   
    22   10   11 1   
    23   11   27 1   
    24   11   28 1   
    25   12   13 1   
    26   13   29 1   
    27   14   30 1   
    28   15   16 1   
    29   16   17 1   
    30   16   18 1   
    31   16   34 1   
    32   17   33 1   
    33   17   38 1   
    34   18   20 1   
    35   19   35 1   
    36   19   36 1   
    37   20   38 1   
    38   20   39 1   
    39   31   32 1   
@<TRIPOS>SUBSTRUCTURE
     1 1S7         1 TEMP              0 ****  ****    0 ROOT
