@<TRIPOS>MOLECULE
1S7
   40    40     1     0     0
SMALL
bcc


@<TRIPOS>ATOM
      1 C          -0.1460   -1.4690    1.9460 c3        1 1S7     -0.097000
      2 N           2.0070    0.4570    3.2560 n4        1 1S7     -0.144000
      3 O           0.8020   -0.5260    1.4600 os        1 1S7     -0.249000
      4 S           2.2690    3.6910    3.1110 ss        1 1S7      0.471000
      5 C1          2.0890   -0.5430    2.0570 c3        1 1S7      0.163000
      6 O1          3.8080   -0.4640    4.4120 o         1 1S7     -0.216000
      7 S1          4.4990    3.3180   -2.3510 s         1 1S7      0.160000
      8 N2          4.1240    0.5980    1.4090 n2        1 1S7     -0.054000
      9 C3          3.8190    1.9600    4.2910 c3        1 1S7     -0.156000
     10 C4          2.7630    2.9760    4.5630 c2        1 1S7     -0.360000
     11 C5          2.3710    3.2500    5.8120 c2        1 1S7     -0.184000
     12 C6          0.3510    5.0360    4.5700 c1        1 1S7      0.215000
     13 C7          0.9760    4.6870    3.4700 c2        1 1S7     -0.703000
     14 C8          3.0440   -0.0530    1.0180 c2        1 1S7     -0.423000
     15 C9          5.2520    2.2990   -1.5890 cu        1 1S7     -0.269000
     16 C10         5.2700    1.0090   -0.8450 cx        1 1S7     -0.118000
     17 C11         6.5650    1.7880   -1.0840 cx        1 1S7     -0.030000
     18 C13         5.0510    1.1060    0.6240 c2        1 1S7     -0.307000
     19 C14         2.4840   -1.9340    2.6000 c2        1 1S7      0.181000
     20 C15         6.1520    1.9150    1.1690 c2        1 1S7      0.365000
     21 H           0.1640   -2.5080    1.6780 h1        1 1S7      0.093000
     22 HA         -1.0890   -1.1900    1.4090 h1        1 1S7      0.093000
     23 HB         -0.2790   -1.3820    3.0510 h1        1 1S7      0.093000
     24 HN          1.2660    0.1380    3.8820 hn        1 1S7      0.245500
     25 H3          4.4690    2.2560    3.4030 hc        1 1S7      0.191000
     26 H3A         4.5260    1.8820    5.1670 hc        1 1S7      0.191000
     27 H5          2.7860    2.7250    6.6850 ha        1 1S7      0.139000
     28 H6          1.6260    4.0220    6.0640 ha        1 1S7      0.139000
     29 H7          0.5960    5.1650    2.5310 h4        1 1S7      0.244000
     30 H8          2.7310   -0.2290   -0.0210 h4        1 1S7      0.154000
     31 H9          3.0300   -0.9650   -2.2790 ha        1 1S7      0.001000
     32 H9A         3.3120   -1.5090   -1.9920 ha        1 1S7      0.001000
     33 H11         7.4110    1.5320   -1.7360 h1        1 1S7      0.166000
     34 H11A        4.9920    0.0660   -1.3420 hc        1 1S7      0.149000
     35 H14         3.3020   -2.4150    2.0270 h4        1 1S7      0.163000
     36 O4          1.9170   -2.4330    3.5680 o         1 1S7     -0.276000
     37 O5          7.0340    2.3100    0.1540 os        1 1S7     -0.218000
     38 O6          6.4260    2.3350    2.2930 o         1 1S7     -0.360000
     39 HN3         1.7580    1.3780    2.8580 hn        1 1S7      0.245500
     40 C2          3.2850    0.5780    4.0330 c2        1 1S7      0.304000
@<TRIPOS>BOND
     1    1    3 1   
     2    1   21 1   
     3    1   22 1   
     4    1   23 1   
     5    2    5 1   
     6    2   24 1   
     7    2   39 1   
     8    2   40 1   
     9    3    5 1   
    10    4   10 1   
    11    4   13 1   
    12    5   14 1   
    13    5   19 1   
    14    6   40 1   
    15    7   15 1   
    16    8   14 1   
    17    8   18 1   
    18    9   10 1   
    19    9   25 1   
    20    9   26 1   
    21    9   40 1   
    22   10   11 1   
    23   11   27 1   
    24   11   28 1   
    25   12   13 1   
    26   13   29 1   
    27   14   30 1   
    28   15   16 1   
    29   15   17 1   
    30   16   17 1   
    31   16   18 1   
    32   16   34 1   
    33   17   33 1   
    34   17   37 1   
    35   18   20 1   
    36   19   35 1   
    37   19   36 1   
    38   20   37 1   
    39   20   38 1   
    40   31   32 1   
@<TRIPOS>SUBSTRUCTURE
     1 1S7         1 TEMP              0 ****  ****    0 ROOT
