@<TRIPOS>MOLECULE
1S7
   40    40     1     0     0
SMALL
bcc


@<TRIPOS>ATOM
      1 C           1.0570   -0.9800   -0.1710 c3        1 1S7      0.109700
      2 N           2.3380    0.0750    5.2200 nt        1 1S7     -0.661000
      3 O           2.4800   -0.8750   -0.2650 os        1 1S7     -0.333900
      4 S           1.2060    4.1030    5.5930 sx        1 1S7     -0.204900
      5 C1          3.0800   -0.2640    0.8210 ce        1 1S7     -0.060100
      6 O1          3.9420    1.0930    3.9690 o         1 1S7     -0.666100
      7 S1          4.2580   -1.1430   -3.8970 s         1 1S7      0.003600
      8 N2          3.6630    1.8230   -0.3670 nf        1 1S7     -0.501300
      9 C3          3.3030    2.2320    6.0000 c3        1 1S7     -0.068200
     10 C4          1.9940    2.7690    6.3800 ce        1 1S7     -0.146500
     11 C5          1.2290    2.3980    7.4430 cf        1 1S7     -0.024000
     12 C6         -0.0290    3.1520    7.5650 cf        1 1S7     -0.317100
     13 C7         -0.1830    4.0670    6.5960 c1        1 1S7     -0.086700
     14 C8          3.7180    0.9280    0.6970 cf        1 1S7      0.064600
     15 C9          4.9020    0.0010   -3.2420 c         1 1S7      0.104400
     16 C10         5.2840    0.7060   -1.9820 cx        1 1S7     -0.299000
     17 C11         5.7330    1.2380   -3.3400 cx        1 1S7      0.043100
     18 C13         4.3050    1.7170   -1.4690 ce        1 1S7      0.438300
     19 C14         3.1100   -0.9720    2.1180 c         1 1S7      0.574100
     20 C15         4.2130    2.7740   -2.5520 c         1 1S7      0.617300
     21 H           0.7650   -1.5780    0.7260 h1        1 1S7      0.050367
     22 HA          0.5980    0.0370   -0.1340 h1        1 1S7      0.050367
     23 HB          0.7750   -1.5100   -1.1150 h1        1 1S7      0.050367
     24 HN          2.2520   -0.6720    4.5710 hn        1 1S7      0.324000
     25 H3          3.9490    3.0340    5.5500 hc        1 1S7      0.081700
     26 H3A         3.8440    1.8370    6.9040 hc        1 1S7      0.081700
     27 H5          1.4980    1.6390    8.1840 ha        1 1S7      0.153000
     28 H6         -0.7180    2.9580    8.3890 ha        1 1S7      0.170000
     29 H7          0.7660    3.5210    4.4980 hs        1 1S7      0.379000
     30 H8          4.2620    1.3420    1.5790 h4        1 1S7      0.195000
     31 H9          5.9660   -0.3430    1.1080 ha        1 1S7      0.000000
     32 H9A         6.6200   -0.5020    1.0240 ha        1 1S7      0.000000
     33 H11         6.7520    1.2710   -3.7540 h1        1 1S7      0.143700
     34 H11A        5.9430    0.2270   -1.2390 hc        1 1S7      0.134700
     35 H14         4.0480   -0.8150    2.7030 h4        1 1S7      0.037200
     36 O4          2.1830   -1.6580    2.5550 o         1 1S7     -0.548100
     37 O5          5.0510    2.4550   -3.6190 os        1 1S7     -0.364900
     38 O6          3.5750    3.8060   -2.6580 o         1 1S7     -0.508500
     39 HN3         1.7220    0.1110    5.9910 hn        1 1S7      0.324000
     40 C2          3.2110    1.1000    4.9870 c         1 1S7      0.659100
@<TRIPOS>BOND
     1    1    3 1   
     2    1   21 1   
     3    1   22 1   
     4    1   23 1   
     5    2   24 1   
     6    2   39 1   
     7    2   40 1   
     8    3    5 1   
     9    4   10 1   
    10    4   13 2   
    11    4   29 1   
    12    5   14 2   
    13    5   19 1   
    14    6   40 2   
    15    7   15 2   
    16    8   14 1   
    17    8   18 2   
    18    9   10 1   
    19    9   25 1   
    20    9   26 1   
    21    9   40 1   
    22   10   11 2   
    23   11   12 1   
    24   11   27 1   
    25   12   13 2   
    26   12   28 1   
    27   14   30 1   
    28   15   16 1   
    29   15   17 1   
    30   16   17 1   
    31   16   18 1   
    32   16   34 1   
    33   17   33 1   
    34   17   37 1   
    35   18   20 1   
    36   19   35 1   
    37   19   36 2   
    38   20   37 1   
    39   20   38 2   
    40   31   32 1   
@<TRIPOS>SUBSTRUCTURE
     1 1S7         1 TEMP              0 ****  ****    0 ROOT
