@<TRIPOS>MOLECULE
1S8
   60    64     1     0     0
SMALL
bcc


@<TRIPOS>ATOM
      1 C1         -0.1080    0.2630   -0.1530 c3        1 1S8      0.108700
      2 O2          1.2980    0.0450   -0.1540 os        1 1S8     -0.299900
      3 C3          1.9030   -0.0220    1.0840 ca        1 1S8      0.102100
      4 C4          1.2510    0.0160    2.2980 ca        1 1S8     -0.157000
      5 C5          1.9810   -0.0670    3.5070 ca        1 1S8     -0.283600
      6 C6          3.4050   -0.1660    3.4750 ca        1 1S8      0.455600
      7 C7          4.0640   -0.2110    2.2070 ca        1 1S8     -0.263300
      8 C8          3.3330   -0.1450    1.0420 ca        1 1S8      0.145100
      9 O9          3.8960   -0.1850   -0.2090 oh        1 1S8     -0.470100
     10 N10         4.1630   -0.2150    4.6260 nb        1 1S8     -0.717000
     11 C11         3.4980   -0.1690    5.7920 ca        1 1S8      0.688300
     12 N12         2.1240   -0.0930    5.9520 nb        1 1S8     -0.761000
     13 C13         1.3690   -0.0430    4.8360 ca        1 1S8      0.690200
     14 N14        -0.0280    0.0860    4.9230 nh        1 1S8     -0.714300
     15 C15        -0.7140    0.0520    6.1610 ca        1 1S8      0.100600
     16 C16        -0.4210    0.9710    7.1870 ca        1 1S8     -0.112500
     17 C17        -1.1560    0.9840    8.3660 ca        1 1S8     -0.156000
     18 C18        -2.2230    0.0820    8.5620 ca        1 1S8      0.059600
     19 C19        -2.5190   -0.8380    7.5280 ca        1 1S8     -0.156000
     20 C20        -1.7760   -0.8570    6.3580 ca        1 1S8     -0.112500
     21 N21        -2.9900    0.0400    9.7360 n         1 1S8     -0.468100
     22 C22        -3.0110    0.9770   10.7620 c         1 1S8      0.680700
     23 O23        -2.3140    2.0070   10.7550 o         1 1S8     -0.581100
     24 C24        -3.9480    0.6850   11.8880 ca        1 1S8     -0.148600
     25 C25        -4.0690   -0.5970   12.4330 ca        1 1S8     -0.091500
     26 C26        -4.9410   -0.8160   13.5000 ca        1 1S8     -0.136500
     27 C27        -5.6910    0.2380   14.0200 ca        1 1S8     -0.107000
     28 C28        -5.5640    1.5190   13.4820 ca        1 1S8     -0.136500
     29 C29        -4.6900    1.7460   12.4190 ca        1 1S8     -0.091500
     30 C30         4.3100   -0.2260    7.0800 c3        1 1S8     -0.069400
     31 C31         4.3430   -1.6160    7.6150 ca        1 1S8     -0.085300
     32 C32         5.4410   -2.4450    7.3560 ca        1 1S8     -0.113500
     33 C33         5.4820   -3.7370    7.8780 ca        1 1S8     -0.135500
     34 C34         4.4280   -4.2110    8.6590 ca        1 1S8     -0.128000
     35 C35         3.3300   -3.3890    8.9160 ca        1 1S8     -0.135500
     36 C36         3.2860   -2.0960    8.3970 ca        1 1S8     -0.113500
     37 H1         -0.3630    1.2190    0.3650 h1        1 1S8      0.046367
     38 H2         -0.3580    0.3240   -1.2430 h1        1 1S8      0.046367
     39 H3         -0.6390   -0.5970    0.3240 h1        1 1S8      0.046367
     40 H4          0.1580    0.1340    2.3150 ha        1 1S8      0.141000
     41 H5          5.1610   -0.2970    2.1760 ha        1 1S8      0.159000
     42 H6          4.8570   -0.2650   -0.0990 ho        1 1S8      0.422000
     43 H7         -0.5130   -0.3820    4.1850 hn        1 1S8      0.420800
     44 H8          0.4030    1.6920    7.0690 ha        1 1S8      0.142000
     45 H9         -0.8940    1.7200    9.1450 ha        1 1S8      0.153000
     46 H10        -3.3440   -1.5590    7.6410 ha        1 1S8      0.153000
     47 H11        -2.0340   -1.5930    5.5800 ha        1 1S8      0.142000
     48 H12        -3.6420   -0.7110    9.7970 hn        1 1S8      0.318500
     49 H13        -3.4680   -1.4330   12.0430 ha        1 1S8      0.146000
     50 H14        -5.0330   -1.8240   13.9320 ha        1 1S8      0.139000
     51 H15        -6.3800    0.0610   14.8600 ha        1 1S8      0.137000
     52 H16        -6.1480    2.3530   13.8970 ha        1 1S8      0.139000
     53 H17        -4.5660    2.7570   11.9990 ha        1 1S8      0.146000
     54 H18         3.8470    0.4650    7.8360 hc        1 1S8      0.074200
     55 H19         5.3540    0.1380    6.8810 hc        1 1S8      0.074200
     56 H20         6.2720   -2.0750    6.7360 ha        1 1S8      0.141500
     57 H21         6.3470   -4.3840    7.6710 ha        1 1S8      0.129500
     58 H22         4.4620   -5.2300    9.0700 ha        1 1S8      0.128000
     59 H23         2.4970   -3.7610    9.5300 ha        1 1S8      0.129500
     60 H24         2.4170   -1.4500    8.5920 ha        1 1S8      0.141500
@<TRIPOS>BOND
     1    1    2 1   
     2    1   37 1   
     3    1   38 1   
     4    1   39 1   
     5    2    3 1   
     6    3    4 ar  
     7    3    8 ar  
     8    4    5 ar  
     9    4   40 1   
    10    5    6 ar  
    11    5   13 ar  
    12    6    7 ar  
    13    6   10 ar  
    14    7    8 ar  
    15    7   41 1   
    16    8    9 1   
    17    9   42 1   
    18   10   11 ar  
    19   11   12 ar  
    20   11   30 1   
    21   12   13 ar  
    22   13   14 1   
    23   14   15 1   
    24   14   43 1   
    25   15   16 ar  
    26   15   20 ar  
    27   16   17 ar  
    28   16   44 1   
    29   17   18 ar  
    30   17   45 1   
    31   18   19 ar  
    32   18   21 1   
    33   19   20 ar  
    34   19   46 1   
    35   20   47 1   
    36   21   22 1   
    37   21   48 1   
    38   22   23 2   
    39   22   24 1   
    40   24   25 ar  
    41   24   29 ar  
    42   25   26 ar  
    43   25   49 1   
    44   26   27 ar  
    45   26   50 1   
    46   27   28 ar  
    47   27   51 1   
    48   28   29 ar  
    49   28   52 1   
    50   29   53 1   
    51   30   31 1   
    52   30   54 1   
    53   30   55 1   
    54   31   32 ar  
    55   31   36 ar  
    56   32   33 ar  
    57   32   56 1   
    58   33   34 ar  
    59   33   57 1   
    60   34   35 ar  
    61   34   58 1   
    62   35   36 ar  
    63   35   59 1   
    64   36   60 1   
@<TRIPOS>SUBSTRUCTURE
     1 1S8         1 TEMP              0 ****  ****    0 ROOT
