@<TRIPOS>MOLECULE
1S8
   60    64     1     0     0
SMALL
bcc


@<TRIPOS>ATOM
      1 C1         -0.1080    0.2740   -0.1530 c3        1 1S8      0.108700
      2 O2          1.2980    0.0510   -0.1540 os        1 1S8     -0.299900
      3 C3          1.9020   -0.0180    1.0840 ca        1 1S8      0.102100
      4 C4          1.2510    0.0190    2.2980 ca        1 1S8     -0.157000
      5 C5          1.9810   -0.0680    3.5070 ca        1 1S8     -0.283600
      6 C6          3.4050   -0.1690    3.4740 ca        1 1S8      0.455600
      7 C7          4.0640   -0.2140    2.2060 ca        1 1S8     -0.263300
      8 C8          3.3320   -0.1450    1.0410 ca        1 1S8      0.145100
      9 O9          3.8950   -0.1850   -0.2090 oh        1 1S8     -0.470100
     10 N10         4.1630   -0.2220    4.6260 nb        1 1S8     -0.717000
     11 C11         3.4990   -0.1760    5.7910 ca        1 1S8      0.688300
     12 N12         2.1250   -0.0970    5.9520 nb        1 1S8     -0.761000
     13 C13         1.3700   -0.0450    4.8360 ca        1 1S8      0.690200
     14 N14        -0.0270    0.0870    4.9230 nu        1 1S8     -0.714300
     15 C15        -0.7130    0.0530    6.1620 ca        1 1S8      0.100600
     16 C16        -0.4180    0.9710    7.1880 ca        1 1S8     -0.112500
     17 C17        -1.1520    0.9850    8.3670 ca        1 1S8     -0.155500
     18 C18        -2.2200    0.0850    8.5630 ca        1 1S8      0.059600
     19 C19        -2.5190   -0.8340    7.5290 ca        1 1S8     -0.155500
     20 C20        -1.7760   -0.8540    6.3590 ca        1 1S8     -0.112500
     21 N21        -2.9880    0.0430    9.7380 ns        1 1S8     -0.468100
     22 C22        -3.0080    0.9820   10.7630 c         1 1S8      0.680700
     23 O23        -2.3100    2.0120   10.7550 o         1 1S8     -0.581100
     24 C24        -3.9450    0.6900   11.8900 ca        1 1S8     -0.148600
     25 C25        -4.0650   -0.5910   12.4360 ca        1 1S8     -0.091500
     26 C26        -4.9370   -0.8090   13.5030 ca        1 1S8     -0.136500
     27 C27        -5.6870    0.2450   14.0230 ca        1 1S8     -0.107000
     28 C28        -5.5600    1.5260   13.4820 ca        1 1S8     -0.136500
     29 C29        -4.6860    1.7520   12.4200 ca        1 1S8     -0.091500
     30 C30         4.3110   -0.2360    7.0800 c3        1 1S8     -0.069400
     31 C31         4.3410   -1.6270    7.6130 ca        1 1S8     -0.085300
     32 C32         5.4360   -2.4580    7.3530 ca        1 1S8     -0.113500
     33 C33         5.4730   -3.7510    7.8730 ca        1 1S8     -0.135500
     34 C34         4.4180   -4.2220    8.6550 ca        1 1S8     -0.128000
     35 C35         3.3230   -3.3980    8.9140 ca        1 1S8     -0.135500
     36 C36         3.2830   -2.1040    8.3960 ca        1 1S8     -0.113500
     37 H1         -0.3590    1.2300    0.3680 h1        1 1S8      0.046367
     38 H2         -0.6420   -0.5850    0.3230 h1        1 1S8      0.046367
     39 H3         -0.3580    0.3380   -1.2420 h1        1 1S8      0.046367
     40 H4          0.1580    0.1390    2.3150 ha        1 1S8      0.141000
     41 H5          5.1610   -0.3030    2.1750 ha        1 1S8      0.159000
     42 H6          4.8560   -0.2660   -0.1000 ho        1 1S8      0.422000
     43 H7         -0.5140   -0.3800    4.1850 hn        1 1S8      0.420800
     44 H8          0.4080    1.6920    7.0700 ha        1 1S8      0.142000
     45 H9         -0.8880    1.7200    9.1470 ha        1 1S8      0.153000
     46 H10        -3.3450   -1.5540    7.6420 ha        1 1S8      0.153000
     47 H11        -2.0350   -1.5890    5.5800 ha        1 1S8      0.142000
     48 H12        -3.6400   -0.7070    9.8000 hn        1 1S8      0.318500
     49 H13        -3.4640   -1.4270   12.0470 ha        1 1S8      0.146000
     50 H14        -5.0280   -1.8160   13.9360 ha        1 1S8      0.139000
     51 H15        -6.3750    0.0690   14.8630 ha        1 1S8      0.137000
     52 H16        -6.1450    2.3600   13.8970 ha        1 1S8      0.139000
     53 H17        -4.5630    2.7630   11.9990 ha        1 1S8      0.146000
     54 H18         5.3560    0.1250    6.8800 hc        1 1S8      0.074200
     55 H19         3.8500    0.4550    7.8360 hc        1 1S8      0.074200
     56 H20         6.2670   -2.0910    6.7320 ha        1 1S8      0.141500
     57 H21         6.3360   -4.4000    7.6650 ha        1 1S8      0.129500
     58 H22         4.4490   -5.2420    9.0650 ha        1 1S8      0.128000
     59 H23         2.4890   -3.7670    9.5280 ha        1 1S8      0.129500
     60 H24         2.4150   -1.4560    8.5920 ha        1 1S8      0.141500
@<TRIPOS>BOND
     1    1    2 1   
     2    1   37 1   
     3    1   38 1   
     4    1   39 1   
     5    2    3 1   
     6    3    4 ar  
     7    3    8 ar  
     8    4    5 ar  
     9    4   40 1   
    10    5    6 ar  
    11    5   13 ar  
    12    6    7 ar  
    13    6   10 ar  
    14    7    8 ar  
    15    7   41 1   
    16    8    9 1   
    17    9   42 1   
    18   10   11 ar  
    19   11   12 ar  
    20   11   30 1   
    21   12   13 ar  
    22   13   14 1   
    23   14   15 1   
    24   14   43 1   
    25   15   16 ar  
    26   15   20 ar  
    27   16   17 ar  
    28   16   44 1   
    29   17   18 ar  
    30   17   45 1   
    31   18   19 ar  
    32   18   21 1   
    33   19   20 ar  
    34   19   46 1   
    35   20   47 1   
    36   21   22 1   
    37   21   48 1   
    38   22   23 2   
    39   22   24 1   
    40   24   25 ar  
    41   24   29 ar  
    42   25   26 ar  
    43   25   49 1   
    44   26   27 ar  
    45   26   50 1   
    46   27   28 ar  
    47   27   51 1   
    48   28   29 ar  
    49   28   52 1   
    50   29   53 1   
    51   30   31 1   
    52   30   54 1   
    53   30   55 1   
    54   31   32 ar  
    55   31   36 ar  
    56   32   33 ar  
    57   32   56 1   
    58   33   34 ar  
    59   33   57 1   
    60   34   35 ar  
    61   34   58 1   
    62   35   36 ar  
    63   35   59 1   
    64   36   60 1   
@<TRIPOS>SUBSTRUCTURE
     1 1S8         1 TEMP              0 ****  ****    0 ROOT
