@<TRIPOS>MOLECULE
1S8
   60    64     1     0     0
SMALL
bcc


@<TRIPOS>ATOM
      1 C1         -0.1100    0.2470   -0.1540 c3        1 1S8      0.108700
      2 O2          1.2970    0.0330   -0.1540 os        1 1S8     -0.299900
      3 C3          1.9010   -0.0290    1.0840 ca        1 1S8      0.102100
      4 C4          1.2490    0.0090    2.2980 ca        1 1S8     -0.157000
      5 C5          1.9790   -0.0700    3.5080 ca        1 1S8     -0.283600
      6 C6          3.4040   -0.1640    3.4750 ca        1 1S8      0.455600
      7 C7          4.0630   -0.2090    2.2070 ca        1 1S8     -0.263300
      8 C8          3.3320   -0.1470    1.0420 ca        1 1S8      0.145100
      9 O9          3.8960   -0.1880   -0.2080 oh        1 1S8     -0.470100
     10 N10         4.1620   -0.2090    4.6270 nb        1 1S8     -0.717000
     11 C11         3.4970   -0.1630    5.7920 ca        1 1S8      0.688300
     12 N12         2.1230   -0.0910    5.9520 nb        1 1S8     -0.761000
     13 C13         1.3680   -0.0460    4.8360 ca        1 1S8      0.690200
     14 N14        -0.0300    0.0780    4.9220 nh        1 1S8     -0.714300
     15 C15        -0.7160    0.0450    6.1610 ca        1 1S8      0.100600
     16 C16        -0.4260    0.9670    7.1840 ca        1 1S8     -0.112500
     17 C17        -1.1610    0.9810    8.3630 ca        1 1S8     -0.155500
     18 C18        -2.2250    0.0770    8.5610 ca        1 1S8      0.059600
     19 C19        -2.5180   -0.8470    7.5300 ca        1 1S8     -0.155500
     20 C20        -1.7750   -0.8670    6.3600 ca        1 1S8     -0.112500
     21 N21        -2.9930    0.0350    9.7360 n         1 1S8     -0.468100
     22 C22        -3.0180    0.9770   10.7580 c         1 1S8      0.680700
     23 O23        -2.3250    2.0100   10.7470 o         1 1S8     -0.581100
     24 C24        -3.9540    0.6840   11.8850 ca        1 1S8     -0.148600
     25 C25        -4.0690   -0.5960   12.4350 ca        1 1S8     -0.091500
     26 C26        -4.9400   -0.8150   13.5020 ca        1 1S8     -0.136500
     27 C27        -5.6950    0.2380   14.0180 ca        1 1S8     -0.107000
     28 C28        -5.5740    1.5170   13.4740 ca        1 1S8     -0.136500
     29 C29        -4.7010    1.7450   12.4120 ca        1 1S8     -0.091500
     30 C30         4.3090   -0.2150    7.0810 c3        1 1S8     -0.069400
     31 C31         4.3490   -1.6040    7.6170 ca        1 1S8     -0.085300
     32 C32         5.4500   -2.4290    7.3590 ca        1 1S8     -0.113500
     33 C33         5.4970   -3.7200    7.8820 ca        1 1S8     -0.135500
     34 C34         4.4450   -4.1980    8.6630 ca        1 1S8     -0.128000
     35 C35         3.3440   -3.3810    8.9200 ca        1 1S8     -0.135500
     36 C36         3.2940   -2.0880    8.4000 ca        1 1S8     -0.113500
     37 H1         -0.3670    1.2040    0.3630 h1        1 1S8      0.046367
     38 H2         -0.6390   -0.6130    0.3240 h1        1 1S8      0.046367
     39 H3         -0.3600    0.3070   -1.2440 h1        1 1S8      0.046367
     40 H4          0.1560    0.1230    2.3140 ha        1 1S8      0.141000
     41 H5          5.1610   -0.2910    2.1770 ha        1 1S8      0.159000
     42 H6          4.8560   -0.2640   -0.0990 ho        1 1S8      0.422000
     43 H7         -0.5140   -0.3940    4.1860 hn        1 1S8      0.420800
     44 H8          0.3960    1.6920    7.0640 ha        1 1S8      0.142000
     45 H9         -0.9010    1.7200    9.1400 ha        1 1S8      0.153000
     46 H10        -3.3410   -1.5710    7.6450 ha        1 1S8      0.153000
     47 H11        -2.0300   -1.6060    5.5840 ha        1 1S8      0.142000
     48 H12        -3.6410   -0.7190    9.7990 hn        1 1S8      0.318500
     49 H13        -3.4640   -1.4300   12.0490 ha        1 1S8      0.146000
     50 H14        -5.0270   -1.8210   13.9390 ha        1 1S8      0.139000
     51 H15        -6.3830    0.0610   14.8580 ha        1 1S8      0.137000
     52 H16        -6.1630    2.3500   13.8860 ha        1 1S8      0.139000
     53 H17        -4.5820    2.7540   11.9880 ha        1 1S8      0.146000
     54 H18         5.3510    0.1530    6.8810 hc        1 1S8      0.074200
     55 H19         3.8430    0.4740    7.8360 hc        1 1S8      0.074200
     56 H20         6.2790   -2.0560    6.7380 ha        1 1S8      0.141500
     57 H21         6.3650   -4.3630    7.6750 ha        1 1S8      0.129500
     58 H22         4.4830   -5.2160    9.0750 ha        1 1S8      0.128000
     59 H23         2.5120   -3.7550    9.5340 ha        1 1S8      0.129500
     60 H24         2.4210   -1.4460    8.5950 ha        1 1S8      0.141500
@<TRIPOS>BOND
     1    1    2 1   
     2    1   37 1   
     3    1   38 1   
     4    1   39 1   
     5    2    3 1   
     6    3    4 ar  
     7    3    8 ar  
     8    4    5 ar  
     9    4   40 1   
    10    5    6 ar  
    11    5   13 ar  
    12    6    7 ar  
    13    6   10 ar  
    14    7    8 ar  
    15    7   41 1   
    16    8    9 1   
    17    9   42 1   
    18   10   11 ar  
    19   11   12 ar  
    20   11   30 1   
    21   12   13 ar  
    22   13   14 1   
    23   14   15 1   
    24   14   43 1   
    25   15   16 ar  
    26   15   20 ar  
    27   16   17 ar  
    28   16   44 1   
    29   17   18 ar  
    30   17   45 1   
    31   18   19 ar  
    32   18   21 1   
    33   19   20 ar  
    34   19   46 1   
    35   20   47 1   
    36   21   22 1   
    37   21   48 1   
    38   22   23 2   
    39   22   24 1   
    40   24   25 ar  
    41   24   29 ar  
    42   25   26 ar  
    43   25   49 1   
    44   26   27 ar  
    45   26   50 1   
    46   27   28 ar  
    47   27   51 1   
    48   28   29 ar  
    49   28   52 1   
    50   29   53 1   
    51   30   31 1   
    52   30   54 1   
    53   30   55 1   
    54   31   32 ar  
    55   31   36 ar  
    56   32   33 ar  
    57   32   56 1   
    58   33   34 ar  
    59   33   57 1   
    60   34   35 ar  
    61   34   58 1   
    62   35   36 ar  
    63   35   59 1   
    64   36   60 1   
@<TRIPOS>SUBSTRUCTURE
     1 1S8         1 TEMP              0 ****  ****    0 ROOT
