@<TRIPOS>MOLECULE
1S9
   52    55     1     0     0
SMALL
bcc


@<TRIPOS>ATOM
      1 C1          0.1460    0.6600   -0.0300 c3        1 1S9      0.108700
      2 O2          1.5170    0.2880   -0.0270 os        1 1S9     -0.279900
      3 C3          2.1040    0.1310    1.2100 ca        1 1S9      0.105100
      4 C4          1.4420    0.1950    2.4140 ca        1 1S9     -0.185000
      5 C5          2.1410    0.0080    3.6330 ca        1 1S9     -0.293600
      6 C6          3.5560   -0.2100    3.6020 ca        1 1S9      0.457600
      7 C7          4.2240   -0.2810    2.3440 ca        1 1S9     -0.293300
      8 C8          3.5260   -0.1260    1.1610 ca        1 1S9      0.188100
      9 O9          4.0560   -0.1870   -0.0890 os        1 1S9     -0.254900
     10 C10         5.4650   -0.4510   -0.1720 c3        1 1S9     -0.019600
     11 C11         5.8240   -0.5070   -1.6910 c         1 1S9      0.929600
     12 O12         6.2110    0.5650   -2.2210 o         1 1S9     -0.814300
     13 O13         5.7630   -1.6340   -2.2460 o         1 1S9     -0.814300
     14 N14         4.2850   -0.3530    4.7710 nb        1 1S9     -0.707000
     15 C15         3.5930   -0.2850    5.9060 ca        1 1S9      0.644900
     16 N16         2.2400   -0.1160    6.0750 nb        1 1S9     -0.778000
     17 C17         1.5100    0.0290    4.9450 ca        1 1S9      0.675200
     18 N18         0.1160    0.2400    5.0130 nh        1 1S9     -0.717300
     19 C19        -0.6050    0.1600    6.2240 ca        1 1S9      0.125600
     20 C20        -0.2630    0.9430    7.3450 ca        1 1S9     -0.123000
     21 C21        -1.0350    0.9170    8.5000 ca        1 1S9     -0.148500
     22 C22        -2.1910    0.1140    8.5770 ca        1 1S9      0.037600
     23 C23        -2.5420   -0.6660    7.4510 ca        1 1S9     -0.148500
     24 C24        -1.7620   -0.6480    6.3050 ca        1 1S9     -0.123000
     25 N25        -2.9960    0.0310    9.7280 n         1 1S9     -0.464100
     26 C26        -3.0100    0.9060   10.8020 c         1 1S9      0.675700
     27 O27        -2.2690    1.9040   10.8860 o         1 1S9     -0.585100
     28 C28        -3.9970    0.5920   11.8810 ca        1 1S9     -0.143600
     29 C29        -4.1830   -0.7110   12.3530 ca        1 1S9     -0.092500
     30 C30        -5.0990   -0.9530   13.3770 ca        1 1S9     -0.138500
     31 C31        -5.8300    0.1000   13.9270 ca        1 1S9     -0.113000
     32 C32        -5.6390    1.4010   13.4610 ca        1 1S9     -0.138500
     33 C33        -4.7210    1.6510   12.4420 ca        1 1S9     -0.092500
     34 H1         -0.0100    1.6220    0.5170 h1        1 1S9      0.038033
     35 H2         -0.0840    0.7830   -1.1190 h1        1 1S9      0.038033
     36 H3         -0.4850   -0.1480    0.4150 h1        1 1S9      0.038033
     37 H4          0.3660    0.4170    2.4230 ha        1 1S9      0.127000
     38 H5          5.3100   -0.4600    2.3290 ha        1 1S9      0.170000
     39 H6          5.6870   -1.4330    0.3140 h1        1 1S9      0.028700
     40 H7          6.0240    0.3780    0.3290 h1        1 1S9      0.028700
     41 H9          4.1640   -0.3910    6.8520 h5        1 1S9      0.040100
     42 H10        -0.3700   -0.1590    4.2350 hn        1 1S9      0.418800
     43 H11         0.6320    1.5870    7.3220 ha        1 1S9      0.144500
     44 H12        -0.7330    1.5450    9.3550 ha        1 1S9      0.146000
     45 H13        -3.4370   -1.3060    7.4710 ha        1 1S9      0.146000
     46 H14        -2.0630   -1.2760    5.4520 ha        1 1S9      0.144500
     47 H15        -3.6840   -0.6880    9.7190 hn        1 1S9      0.314500
     48 H16        -3.5980   -1.5460   11.9390 ha        1 1S9      0.147000
     49 H17        -5.2410   -1.9770   13.7510 ha        1 1S9      0.135500
     50 H18        -6.5540   -0.0950   14.7310 ha        1 1S9      0.132000
     51 H19        -6.2090    2.2330   13.8990 ha        1 1S9      0.135500
     52 H20        -4.5460    2.6770   12.0800 ha        1 1S9      0.147000
@<TRIPOS>BOND
     1    1    2 1   
     2    1   34 1   
     3    1   35 1   
     4    1   36 1   
     5    2    3 1   
     6    3    4 ar  
     7    3    8 ar  
     8    4    5 ar  
     9    4   37 1   
    10    5    6 ar  
    11    5   17 ar  
    12    6    7 ar  
    13    6   14 ar  
    14    7    8 ar  
    15    7   38 1   
    16    8    9 1   
    17    9   10 1   
    18   10   11 1   
    19   10   39 1   
    20   10   40 1   
    21   11   12 1   
    22   11   13 1   
    23   14   15 ar  
    24   15   16 ar  
    25   15   41 1   
    26   16   17 ar  
    27   17   18 1   
    28   18   19 1   
    29   18   42 1   
    30   19   20 ar  
    31   19   24 ar  
    32   20   21 ar  
    33   20   43 1   
    34   21   22 ar  
    35   21   44 1   
    36   22   23 ar  
    37   22   25 1   
    38   23   24 ar  
    39   23   45 1   
    40   24   46 1   
    41   25   26 1   
    42   25   47 1   
    43   26   27 2   
    44   26   28 1   
    45   28   29 ar  
    46   28   33 ar  
    47   29   30 ar  
    48   29   48 1   
    49   30   31 ar  
    50   30   49 1   
    51   31   32 ar  
    52   31   50 1   
    53   32   33 ar  
    54   32   51 1   
    55   33   52 1   
@<TRIPOS>SUBSTRUCTURE
     1 1S9         1 TEMP              0 ****  ****    0 ROOT
