@<TRIPOS>MOLECULE
1S9
   52    55     1     0     0
SMALL
bcc


@<TRIPOS>ATOM
      1 C1          0.1510    0.6750   -0.0300 c3        1 1S9      0.108700
      2 O2          1.5210    0.2980   -0.0260 os        1 1S9     -0.279900
      3 C3          2.1060    0.1340    1.2110 ca        1 1S9      0.105100
      4 C4          1.4430    0.1980    2.4140 ca        1 1S9     -0.185000
      5 C5          2.1410    0.0050    3.6330 ca        1 1S9     -0.293600
      6 C6          3.5550   -0.2190    3.6030 ca        1 1S9      0.457600
      7 C7          4.2230   -0.2900    2.3460 ca        1 1S9     -0.293300
      8 C8          3.5270   -0.1280    1.1620 ca        1 1S9      0.188100
      9 O9          4.0580   -0.1880   -0.0870 os        1 1S9     -0.254900
     10 C10         5.4660   -0.4580   -0.1700 c3        1 1S9     -0.019600
     11 C11         5.8260   -0.5120   -1.6890 c         1 1S9      0.929600
     12 O12         6.2210    0.5600   -2.2150 o         1 1S9     -0.814300
     13 O13         5.7570   -1.6360   -2.2470 o         1 1S9     -0.814300
     14 N14         4.2820   -0.3680    4.7720 nb        1 1S9     -0.707000
     15 C15         3.5900   -0.3010    5.9070 ca        1 1S9      0.644900
     16 N16         2.2370   -0.1260    6.0750 nb        1 1S9     -0.778000
     17 C17         1.5090    0.0250    4.9450 ca        1 1S9      0.675200
     18 N18         0.1150    0.2410    5.0120 nh        1 1S9     -0.717300
     19 C19        -0.6070    0.1610    6.2230 ca        1 1S9      0.125600
     20 C20        -0.2630    0.9410    7.3460 ca        1 1S9     -0.123000
     21 C21        -1.0360    0.9160    8.4990 ca        1 1S9     -0.148500
     22 C22        -2.1940    0.1170    8.5740 ca        1 1S9      0.037600
     23 C23        -2.5480   -0.6590    7.4460 ca        1 1S9     -0.148500
     24 C24        -1.7670   -0.6420    6.3010 ca        1 1S9     -0.123000
     25 N25        -3.0010    0.0350    9.7250 n         1 1S9     -0.464100
     26 C26        -3.0130    0.9090   10.8000 c         1 1S9      0.675700
     27 O27        -2.2690    1.9040   10.8850 o         1 1S9     -0.585100
     28 C28        -4.0020    0.5960   11.8770 ca        1 1S9     -0.143600
     29 C29        -4.1920   -0.7060   12.3480 ca        1 1S9     -0.092500
     30 C30        -5.1100   -0.9470   13.3700 ca        1 1S9     -0.138500
     31 C31        -5.8380    0.1080   13.9210 ca        1 1S9     -0.113000
     32 C32        -5.6430    1.4090   13.4570 ca        1 1S9     -0.138500
     33 C33        -4.7230    1.6570   12.4390 ca        1 1S9     -0.092500
     34 H1         -0.0020    1.6360    0.5200 h1        1 1S9      0.038033
     35 H2         -0.4830   -0.1320    0.4130 h1        1 1S9      0.038033
     36 H3         -0.0770    0.8020   -1.1190 h1        1 1S9      0.038033
     37 H4          0.3680    0.4250    2.4230 ha        1 1S9      0.127000
     38 H5          5.3090   -0.4730    2.3310 ha        1 1S9      0.170000
     39 H6          5.6830   -1.4420    0.3140 h1        1 1S9      0.028700
     40 H7          6.0280    0.3670    0.3340 h1        1 1S9      0.028700
     41 H9          4.1590   -0.4110    6.8530 h5        1 1S9      0.040100
     42 H10        -0.3720   -0.1550    4.2330 hn        1 1S9      0.418800
     43 H11         0.6340    1.5810    7.3240 ha        1 1S9      0.144500
     44 H12        -0.7320    1.5400    9.3560 ha        1 1S9      0.146000
     45 H13        -3.4460   -1.2960    7.4640 ha        1 1S9      0.146000
     46 H14        -2.0700   -1.2670    5.4460 ha        1 1S9      0.144500
     47 H15        -3.6920   -0.6810    9.7130 hn        1 1S9      0.314500
     48 H16        -3.6090   -1.5430   11.9330 ha        1 1S9      0.147000
     49 H17        -5.2560   -1.9710   13.7430 ha        1 1S9      0.135500
     50 H18        -6.5640   -0.0860   14.7250 ha        1 1S9      0.132000
     51 H19        -6.2100    2.2420   13.8960 ha        1 1S9      0.135500
     52 H20        -4.5450    2.6830   12.0790 ha        1 1S9      0.147000
@<TRIPOS>BOND
     1    1    2 1   
     2    1   34 1   
     3    1   35 1   
     4    1   36 1   
     5    2    3 1   
     6    3    4 ar  
     7    3    8 ar  
     8    4    5 ar  
     9    4   37 1   
    10    5    6 ar  
    11    5   17 ar  
    12    6    7 ar  
    13    6   14 ar  
    14    7    8 ar  
    15    7   38 1   
    16    8    9 1   
    17    9   10 1   
    18   10   11 1   
    19   10   39 1   
    20   10   40 1   
    21   11   12 1   
    22   11   13 1   
    23   14   15 ar  
    24   15   16 ar  
    25   15   41 1   
    26   16   17 ar  
    27   17   18 1   
    28   18   19 1   
    29   18   42 1   
    30   19   20 ar  
    31   19   24 ar  
    32   20   21 ar  
    33   20   43 1   
    34   21   22 ar  
    35   21   44 1   
    36   22   23 ar  
    37   22   25 1   
    38   23   24 ar  
    39   23   45 1   
    40   24   46 1   
    41   25   26 1   
    42   25   47 1   
    43   26   27 2   
    44   26   28 1   
    45   28   29 ar  
    46   28   33 ar  
    47   29   30 ar  
    48   29   48 1   
    49   30   31 ar  
    50   30   49 1   
    51   31   32 ar  
    52   31   50 1   
    53   32   33 ar  
    54   32   51 1   
    55   33   52 1   
@<TRIPOS>SUBSTRUCTURE
     1 1S9         1 TEMP              0 ****  ****    0 ROOT
