@<TRIPOS>MOLECULE
1S9
   52    55     1     0     0
SMALL
bcc


@<TRIPOS>ATOM
      1 C1          0.1430    0.6400   -0.0330 c3        1 1S9      0.108700
      2 O2          1.5160    0.2740   -0.0290 os        1 1S9     -0.279900
      3 C3          2.1030    0.1220    1.2100 ca        1 1S9      0.105100
      4 C4          1.4400    0.1880    2.4130 ca        1 1S9     -0.185000
      5 C5          2.1400    0.0080    3.6320 ca        1 1S9     -0.293600
      6 C6          3.5560   -0.2050    3.6020 ca        1 1S9      0.457600
      7 C7          4.2240   -0.2770    2.3450 ca        1 1S9     -0.293300
      8 C8          3.5260   -0.1290    1.1610 ca        1 1S9      0.188100
      9 O9          4.0560   -0.1910   -0.0880 os        1 1S9     -0.254900
     10 C10         5.4670   -0.4500   -0.1710 c3        1 1S9     -0.019600
     11 C11         5.8260   -0.5100   -1.6890 c         1 1S9      0.929600
     12 O12         6.2120    0.5610   -2.2220 o         1 1S9     -0.814300
     13 O13         5.7660   -1.6390   -2.2410 o         1 1S9     -0.814300
     14 N14         4.2850   -0.3410    4.7720 nb        1 1S9     -0.707000
     15 C15         3.5930   -0.2730    5.9070 ca        1 1S9      0.644900
     16 N16         2.2390   -0.1080    6.0750 nb        1 1S9     -0.778000
     17 C17         1.5090    0.0310    4.9450 ca        1 1S9      0.675200
     18 N18         0.1140    0.2360    5.0120 nu        1 1S9     -0.717300
     19 C19        -0.6070    0.1580    6.2230 ca        1 1S9      0.125600
     20 C20        -0.2680    0.9470    7.3410 ca        1 1S9     -0.123000
     21 C21        -1.0400    0.9230    8.4950 ca        1 1S9     -0.148500
     22 C22        -2.1930    0.1150    8.5760 ca        1 1S9      0.037600
     23 C23        -2.5410   -0.6700    7.4530 ca        1 1S9     -0.148500
     24 C24        -1.7600   -0.6540    6.3070 ca        1 1S9     -0.123000
     25 N25        -2.9980    0.0340    9.7270 ns        1 1S9     -0.464100
     26 C26        -3.0160    0.9150   10.7970 c         1 1S9      0.675700
     27 O27        -2.2790    1.9150   10.8760 o         1 1S9     -0.585100
     28 C28        -4.0030    0.6010   11.8770 ca        1 1S9     -0.143600
     29 C29        -4.1830   -0.7000   12.3550 ca        1 1S9     -0.092500
     30 C30        -5.0980   -0.9410   13.3790 ca        1 1S9     -0.138500
     31 C31        -5.8340    0.1110   13.9240 ca        1 1S9     -0.113000
     32 C32        -5.6480    1.4110   13.4520 ca        1 1S9     -0.138500
     33 C33        -4.7300    1.6600   12.4330 ca        1 1S9     -0.092500
     34 H1         -0.0180    1.6020    0.5110 h1        1 1S9      0.038033
     35 H2         -0.4840   -0.1690    0.4150 h1        1 1S9      0.038033
     36 H3         -0.0870    0.7580   -1.1230 h1        1 1S9      0.038033
     37 H4          0.3630    0.4060    2.4210 ha        1 1S9      0.127000
     38 H5          5.3120   -0.4520    2.3310 ha        1 1S9      0.170000
     39 H6          5.6920   -1.4300    0.3200 h1        1 1S9      0.028700
     40 H7          6.0230    0.3830    0.3290 h1        1 1S9      0.028700
     41 H9          4.1640   -0.3720    6.8530 h5        1 1S9      0.040100
     42 H10        -0.3710   -0.1690    4.2350 hn        1 1S9      0.418800
     43 H11         0.6240    1.5940    7.3140 ha        1 1S9      0.144500
     44 H12        -0.7410    1.5550    9.3480 ha        1 1S9      0.146000
     45 H13        -3.4330   -1.3140    7.4750 ha        1 1S9      0.146000
     46 H14        -2.0590   -1.2870    5.4560 ha        1 1S9      0.144500
     47 H15        -3.6840   -0.6870    9.7200 hn        1 1S9      0.314500
     48 H16        -3.5940   -1.5350   11.9450 ha        1 1S9      0.147000
     49 H17        -5.2370   -1.9640   13.7590 ha        1 1S9      0.135500
     50 H18        -6.5580   -0.0830   14.7290 ha        1 1S9      0.132000
     51 H19        -6.2210    2.2430   13.8870 ha        1 1S9      0.135500
     52 H20        -4.5600    2.6850   12.0660 ha        1 1S9      0.147000
@<TRIPOS>BOND
     1    1    2 1   
     2    1   34 1   
     3    1   35 1   
     4    1   36 1   
     5    2    3 1   
     6    3    4 ar  
     7    3    8 ar  
     8    4    5 ar  
     9    4   37 1   
    10    5    6 ar  
    11    5   17 ar  
    12    6    7 ar  
    13    6   14 ar  
    14    7    8 ar  
    15    7   38 1   
    16    8    9 1   
    17    9   10 1   
    18   10   11 1   
    19   10   39 1   
    20   10   40 1   
    21   11   12 1   
    22   11   13 1   
    23   14   15 ar  
    24   15   16 ar  
    25   15   41 1   
    26   16   17 ar  
    27   17   18 1   
    28   18   19 1   
    29   18   42 1   
    30   19   20 ar  
    31   19   24 ar  
    32   20   21 ar  
    33   20   43 1   
    34   21   22 ar  
    35   21   44 1   
    36   22   23 ar  
    37   22   25 1   
    38   23   24 ar  
    39   23   45 1   
    40   24   46 1   
    41   25   26 1   
    42   25   47 1   
    43   26   27 2   
    44   26   28 1   
    45   28   29 ar  
    46   28   33 ar  
    47   29   30 ar  
    48   29   48 1   
    49   30   31 ar  
    50   30   49 1   
    51   31   32 ar  
    52   31   50 1   
    53   32   33 ar  
    54   32   51 1   
    55   33   52 1   
@<TRIPOS>SUBSTRUCTURE
     1 1S9         1 TEMP              0 ****  ****    0 ROOT
