@<TRIPOS>MOLECULE
1SA
   14    14     1     0     0
SMALL
bcc


@<TRIPOS>ATOM
      1 S1         -1.7080    0.1070   -0.2620 sy        1 1SA      1.490800
      2 O1         -2.0210    0.3260   -1.6100 o         1 1SA     -0.654800
      3 O2         -2.0460    1.1350    0.6440 o         1 1SA     -0.654800
      4 N1         -2.3080   -1.2780    0.2420 n3        1 1SA     -1.016700
      5 N2          0.5480   -1.2420   -0.6530 nc        1 1SA     -0.200000
      6 N3          1.8180   -1.2970   -0.5610 nc        1 1SA     -0.387000
      7 S2          1.1200    0.9350    0.5350 ss        1 1SA      0.012200
      8 C1         -0.0240   -0.1110   -0.1300 cd        1 1SA     -0.054700
      9 C2          2.3590   -0.1690    0.0750 cd        1 1SA      0.592300
     10 N4          3.6830   -0.0200    0.3830 nh        1 1SA     -0.907500
     11 HN11       -2.3440   -2.0950   -0.3160 hn        1 1SA      0.454300
     12 HN12       -2.6200   -1.4330    1.1680 hn        1 1SA      0.454300
     13 HN41        4.0220    0.9090    0.4760 hn        1 1SA      0.435300
     14 HN42        4.3240   -0.6890    0.0150 hn        1 1SA      0.435300
@<TRIPOS>BOND
     1    1    2 2   
     2    1    3 2   
     3    1    4 1   
     4    1    8 1   
     5    4   11 1   
     6    4   12 1   
     7    5    6 1   
     8    5    8 2   
     9    6    9 2   
    10    7    8 1   
    11    7    9 1   
    12    9   10 1   
    13   10   13 1   
    14   10   14 1   
@<TRIPOS>SUBSTRUCTURE
     1 1SA         1 TEMP              0 ****  ****    0 ROOT
