@<TRIPOS>MOLECULE
1SA
   15    15     1     0     0
SMALL
bcc


@<TRIPOS>ATOM
      1 S1          0.4050   -0.2700   -0.1950 sy        1 1SA      1.478800
      2 O1          1.5860    0.2170   -0.6950 o         1 1SA     -0.570800
      3 O2          0.1430   -0.2440    1.1580 o         1 1SA     -0.570800
      4 N1         -0.7830    1.0930   -0.8140 n4        1 1SA     -0.780500
      5 N2         -0.2820   -1.5130   -2.3560 nc        1 1SA     -0.150000
      6 N3         -0.7060   -2.5500   -2.8810 nc        1 1SA     -0.316000
      7 S2         -0.8280   -2.9790   -0.3200 ss        1 1SA      0.084200
      8 C1         -0.2410   -1.5090   -0.9420 cd        1 1SA     -0.318700
      9 C2         -1.0710   -3.5670   -1.9080 cd        1 1SA      0.655300
     10 N4         -1.5350   -4.7670   -2.2640 nh        1 1SA     -0.851500
     11 HN11       -1.1800    1.6050   -0.0290 hn        1 1SA      0.457133
     12 HN12       -0.2750    1.7580   -1.3970 hn        1 1SA      0.457133
     13 HN41       -1.6370   -5.0130   -3.2290 hn        1 1SA      0.484800
     14 HN42       -1.7650   -5.4490   -1.5760 hn        1 1SA      0.484800
     15 H13        -1.5520    0.7250   -1.3660 hn        1 1SA      0.457133
@<TRIPOS>BOND
     1    1    2 2   
     2    1    3 2   
     3    1    4 1   
     4    1    8 1   
     5    4   11 1   
     6    4   12 1   
     7    4   15 1   
     8    5    6 1   
     9    5    8 2   
    10    6    9 2   
    11    7    8 1   
    12    7    9 1   
    13    9   10 1   
    14   10   13 1   
    15   10   14 1   
@<TRIPOS>SUBSTRUCTURE
     1 1SA         1 TEMP              0 ****  ****    0 ROOT
