@<TRIPOS>MOLECULE
1SA
   16    16     1     0     0
SMALL
bcc


@<TRIPOS>ATOM
      1 S1          0.2610   -0.1960   -0.0740 sy        1 1SA      1.410800
      2 O1          1.5400    0.0670   -0.4700 o         1 1SA     -0.510300
      3 O2         -0.1960   -0.1740    1.2180 o         1 1SA     -0.510300
      4 N1         -0.7000    1.1510   -0.8860 n4        1 1SA     -0.805500
      5 N2         -0.5350   -1.4630   -2.2330 nc        1 1SA     -0.204000
      6 N3         -0.8850   -2.5300   -2.7880 nc        1 1SA     -0.201000
      7 S2         -0.6510   -3.0940   -0.2990 ss        1 1SA      0.554200
      8 C1         -0.3460   -1.5760   -0.8370 cd        1 1SA     -0.169700
      9 C2         -0.9980   -3.5950   -1.8560 cd        1 1SA      0.249300
     10 N4         -1.3670   -4.9120   -2.3350 n4        1 1SA     -0.780300
     11 HN11       -1.0220    1.8370   -0.1910 hn        1 1SA      0.487800
     12 HN12       -1.5300    0.8510   -1.3990 hn        1 1SA      0.487800
     13 HN41       -0.6550   -5.2490   -3.0130 hn        1 1SA      0.501133
     14 HN42       -2.2790   -4.8660   -2.8270 hn        1 1SA      0.501133
     15 H13        -0.1110    1.6640   -1.5570 hn        1 1SA      0.487800
     16 H43        -1.4350   -5.5800   -1.5560 hn        1 1SA      0.501133
@<TRIPOS>BOND
     1    1    2 2   
     2    1    3 2   
     3    1    4 1   
     4    1    8 1   
     5    4   11 1   
     6    4   12 1   
     7    4   15 1   
     8    5    6 1   
     9    5    8 2   
    10    6    9 2   
    11    7    8 1   
    12    7    9 1   
    13    9   10 1   
    14   10   13 1   
    15   10   14 1   
    16   10   16 1   
@<TRIPOS>SUBSTRUCTURE
     1 1SA         1 TEMP              0 ****  ****    0 ROOT
