@<TRIPOS>MOLECULE
1SA
   15    15     1     0     0
SMALL
bcc


@<TRIPOS>ATOM
      1 S1          0.3390   -0.2530   -0.1520 sy        1 1SA      1.478800
      2 O1          1.5300    0.2570   -0.6040 o         1 1SA     -0.570800
      3 O2          0.0240   -0.2360    1.1900 o         1 1SA     -0.570800
      4 N1         -0.8490    1.0890   -0.8150 nz        1 1SA     -0.780500
      5 N2         -0.2380   -1.5040   -2.3410 nc        1 1SA     -0.150000
      6 N3         -0.6220   -2.5470   -2.8840 nc        1 1SA     -0.316000
      7 S2         -0.8380   -2.9840   -0.3310 ss        1 1SA      0.084200
      8 C1         -0.2530   -1.5020   -0.9260 cd        1 1SA     -0.318700
      9 C2         -1.0070   -3.5730   -1.9280 cd        1 1SA      0.655300
     10 N4         -1.4340   -4.7800   -2.3050 nv        1 1SA     -0.851500
     11 HN11       -1.2860    1.5910   -0.0450 hn        1 1SA      0.457133
     12 HN12       -0.3300    1.7650   -1.3750 hn        1 1SA      0.457133
     13 HN41       -1.6780   -5.4690   -1.6270 hn        1 1SA      0.484800
     14 HN42       -1.4920   -5.0260   -3.2730 hn        1 1SA      0.484800
     15 H13        -1.5880    0.7090   -1.3980 hn        1 1SA      0.457133
@<TRIPOS>BOND
     1    1    2 2   
     2    1    3 2   
     3    1    4 1   
     4    1    8 1   
     5    4   11 1   
     6    4   12 1   
     7    4   15 1   
     8    5    6 1   
     9    5    8 2   
    10    6    9 2   
    11    7    8 1   
    12    7    9 1   
    13    9   10 1   
    14   10   13 1   
    15   10   14 1   
@<TRIPOS>SUBSTRUCTURE
     1 1SA         1 TEMP              0 ****  ****    0 ROOT
