@<TRIPOS>MOLECULE
1SA
   14    11     1     0     0
SMALL
bcc


@<TRIPOS>ATOM
      1 S1          0.3430   -1.8180    0.9790 ss        1 1SA      2.902000
      2 O1          1.3300   -1.5140    1.9770 o         1 1SA     -0.934000
      3 O2         -0.6710   -2.4530    1.7740 o         1 1SA     -0.934000
      4 N1          0.9390   -2.8430   -0.1570 n2        1 1SA     -0.624000
      5 N2         -1.5580   -0.1710   -0.3510 n2        1 1SA     -0.030500
      6 N3         -1.7000    1.3280   -0.8210 n2        1 1SA     -0.030500
      7 S2          0.4580    1.0030    0.1340 ss        1 1SA      0.641000
      8 C1         -0.2710   -0.3420    0.2110 c1        1 1SA     -0.663500
      9 C2         -0.4950    2.0050   -0.5240 c1        1 1SA     -0.663500
     10 N4         -0.2480    3.3890   -0.7140 n2        1 1SA     -0.624000
     11 HN11        0.4510   -3.5710   -0.4160 hn        1 1SA      0.240000
     12 HN12        1.7560   -2.6820   -0.5340 hn        1 1SA      0.240000
     13 HN41       -0.8930    3.9230   -1.0800 hn        1 1SA      0.240000
     14 HN42        0.5600    3.7460   -0.4760 hn        1 1SA      0.240000
@<TRIPOS>BOND
     1    1    2 1   
     2    1    3 1   
     3    4   11 1   
     4    4   12 1   
     5    5    6 1   
     6    5    8 1   
     7    6    9 1   
     8    7    8 1   
     9    7    9 1   
    10   10   13 1   
    11   10   14 1   
@<TRIPOS>SUBSTRUCTURE
     1 1SA         1 TEMP              0 ****  ****    0 ROOT
