@<TRIPOS>MOLECULE
1SB
   37    33     1     0     0
SMALL
bcc


@<TRIPOS>ATOM
      1 C1          1.2110    1.0030    2.3230 c1        1 1SB     -0.061000
      2 N1          0.1500   -0.4480   -1.1540 n         1 1SB     -0.318000
      3 O1          0.3640   -1.2600    1.0500 o         1 1SB     -0.306000
      4 C2          0.6910    1.1220    0.8500 c2        1 1SB     -0.153000
      5 N2          0.7160   -1.5210   -1.8600 n2        1 1SB      0.002000
      6 O2         -0.0230    1.2160    5.7830 os        1 1SB     -0.209000
      7 C3          0.4360   -0.2800    0.2810 c2        1 1SB      0.324000
      8 O3         -2.9550   -1.8140   -7.2070 oh        1 1SB     -0.250000
      9 C4          0.1860   -1.9140   -2.9990 c1        1 1SB     -0.139000
     10 C5         -1.0330   -1.2100   -3.5490 c1        1 1SB     -0.116000
     11 C6          2.5670    0.7740    2.5440 c2        1 1SB     -0.152000
     12 C7          3.0730    0.7870    3.8490 c1        1 1SB     -0.090000
     13 C8          2.2280    1.0270    4.9160 c1        1 1SB     -0.197000
     14 C9          0.8780    1.2560    4.6940 c2        1 1SB      0.084000
     15 C10         0.0820    2.3390    6.6650 c3        1 1SB     -0.077000
     16 C11         0.3680    1.2440    3.3930 c2        1 1SB     -0.163000
     17 C12        -0.9250   -0.2500   -4.5630 c2        1 1SB     -0.091000
     18 C13        -1.5940   -0.4310   -5.7560 c1        1 1SB     -0.153000
     19 C14        -2.3740   -1.5660   -5.9490 c1        1 1SB      0.085000
     20 C15        -2.4790   -2.5240   -4.9340 c1        1 1SB     -0.214000
     21 C16        -1.8130   -2.3440   -3.7450 c1        1 1SB     -0.070000
     22 HN1        -0.3930    0.2140   -1.6240 hn        1 1SB      0.221000
     23 H2         -0.1560    1.6430    0.8350 ha        1 1SB      0.127000
     24 H2A         1.3440    1.5650    0.3200 ha        1 1SB      0.127000
     25 HO3        -3.8340   -1.8850   -7.1180 ho        1 1SB      0.219000
     26 H4          0.5890   -2.6740   -3.4970 ha        1 1SB      0.169000
     27 H6          3.1590    0.6060    1.7940 ha        1 1SB      0.143000
     28 H7          4.0200    0.6270    4.0050 ha        1 1SB      0.137000
     29 H8          2.5810    1.0370    5.8280 ha        1 1SB      0.141000
     30 H10        -0.7970    2.5180    7.0770 h1        1 1SB      0.085667
     31 H10A        0.7500    2.1380    7.3810 h1        1 1SB      0.085667
     32 H10B        0.3810    3.1550    6.1420 h1        1 1SB      0.085667
     33 H11        -0.5780    1.4010    3.2410 ha        1 1SB      0.149000
     34 H12        -0.3810    0.5420   -4.4260 ha        1 1SB      0.141000
     35 H13        -1.5200    0.2580   -6.4840 ha        1 1SB      0.155000
     36 H15        -3.0320   -3.3300   -5.0710 ha        1 1SB      0.136000
     37 H16        -1.8890   -3.0180   -3.0340 ha        1 1SB      0.140000
@<TRIPOS>BOND
     1    1   11 1   
     2    1   16 1   
     3    2    5 1   
     4    2    7 1   
     5    2   22 1   
     6    3    7 1   
     7    4    7 1   
     8    4   23 1   
     9    4   24 1   
    10    5    9 1   
    11    6   14 1   
    12    6   15 1   
    13    8   19 1   
    14    8   25 1   
    15    9   26 1   
    16   10   17 1   
    17   10   21 1   
    18   11   12 1   
    19   11   27 1   
    20   12   28 1   
    21   13   14 1   
    22   13   29 1   
    23   14   16 1   
    24   15   30 1   
    25   15   31 1   
    26   15   32 1   
    27   16   33 1   
    28   17   18 1   
    29   17   34 1   
    30   18   35 1   
    31   19   20 1   
    32   20   36 1   
    33   21   37 1   
@<TRIPOS>SUBSTRUCTURE
     1 1SB         1 TEMP              0 ****  ****    0 ROOT
