@<TRIPOS>MOLECULE
1SB
   37    38     1     0     0
SMALL
bcc


@<TRIPOS>ATOM
      1 C1          3.0890   -1.1410    1.0420 ca        1 1SB     -0.066300
      2 N1          0.2130   -1.3970    0.5580 n         1 1SB     -0.335900
      3 O1          0.2350   -2.5980    2.5640 o         1 1SB     -0.545100
      4 C2          2.3300   -2.3680    1.4000 c3        1 1SB     -0.117100
      5 N2         -1.0830   -1.0890    0.5840 n2        1 1SB     -0.427300
      6 O2          4.3020    0.4920   -1.9720 os        1 1SB     -0.327900
      7 C3          0.8370   -2.1280    1.5900 c         1 1SB      0.683100
      8 O3         -7.0410    1.1180   -0.5810 oh        1 1SB     -0.497100
      9 C4         -1.6000   -0.2960   -0.3200 ce        1 1SB      0.367800
     10 C5         -3.0260    0.0350   -0.3350 ca        1 1SB     -0.157900
     11 C6          3.5460   -0.2790    2.0480 ca        1 1SB     -0.150000
     12 C7          4.2700    0.8620    1.7150 ca        1 1SB     -0.089000
     13 C8          4.5510    1.1650    0.3830 ca        1 1SB     -0.197000
     14 C9          4.0950    0.3010   -0.6190 ca        1 1SB      0.127100
     15 C10         5.0790    1.6280   -2.3340 c3        1 1SB      0.112700
     16 C11         3.3640   -0.8560   -0.2960 ca        1 1SB     -0.168000
     17 C12        -3.4940    0.8870   -1.3500 ca        1 1SB     -0.070000
     18 C13        -4.8350    1.2400   -1.4210 ca        1 1SB     -0.191500
     19 C14        -5.7260    0.7340   -0.4600 ca        1 1SB      0.132100
     20 C15        -5.2750   -0.1170    0.5580 ca        1 1SB     -0.191500
     21 C16        -3.9270   -0.4620    0.6160 ca        1 1SB     -0.070000
     22 HN1         0.8250   -0.9610   -0.1120 hn        1 1SB      0.302500
     23 H2          2.4540   -3.1550    0.6070 hc        1 1SB      0.088200
     24 H2A         2.7180   -2.7930    2.3660 hc        1 1SB      0.088200
     25 HO3        -7.5410    0.7010    0.1370 ho        1 1SB      0.421000
     26 H4         -1.0140    0.1830   -1.1360 h4        1 1SB     -0.013200
     27 H6          3.3300   -0.5080    3.1030 ha        1 1SB      0.144000
     28 H7          4.6260    1.5350    2.5100 ha        1 1SB      0.138000
     29 H8          5.1240    2.0690    0.1370 ha        1 1SB      0.141000
     30 H10         5.1310    1.5610   -3.4510 h1        1 1SB      0.047033
     31 H10A        4.5690    2.5710   -2.0190 h1        1 1SB      0.047033
     32 H10B        6.1010    1.5660   -1.8880 h1        1 1SB      0.047033
     33 H11         3.0310   -1.5250   -1.1030 ha        1 1SB      0.150000
     34 H12        -2.7930    1.2820   -2.1010 ha        1 1SB      0.146000
     35 H13        -5.2090    1.9060   -2.2120 ha        1 1SB      0.144000
     36 H15        -5.9780   -0.5090    1.3060 ha        1 1SB      0.144000
     37 H16        -3.5780   -1.1310    1.4190 ha        1 1SB      0.146000
@<TRIPOS>BOND
     1    1    4 1   
     2    1   11 ar  
     3    1   16 ar  
     4    2    5 1   
     5    2    7 1   
     6    2   22 1   
     7    3    7 2   
     8    4    7 1   
     9    4   23 1   
    10    4   24 1   
    11    5    9 2   
    12    6   14 1   
    13    6   15 1   
    14    8   19 1   
    15    8   25 1   
    16    9   10 1   
    17    9   26 1   
    18   10   17 ar  
    19   10   21 ar  
    20   11   12 ar  
    21   11   27 1   
    22   12   13 ar  
    23   12   28 1   
    24   13   14 ar  
    25   13   29 1   
    26   14   16 ar  
    27   15   30 1   
    28   15   31 1   
    29   15   32 1   
    30   16   33 1   
    31   17   18 ar  
    32   17   34 1   
    33   18   19 ar  
    34   18   35 1   
    35   19   20 ar  
    36   20   21 ar  
    37   20   36 1   
    38   21   37 1   
@<TRIPOS>SUBSTRUCTURE
     1 1SB         1 TEMP              0 ****  ****    0 ROOT
