@<TRIPOS>MOLECULE
1SB
   38    39     1     0     0
SMALL
bcc


@<TRIPOS>ATOM
      1 C1          0.5030   -0.0790   -0.5620 ca        1 1SB     -0.133300
      2 N1         -0.8850   -2.1280   -1.8620 ny        1 1SB     -0.359900
      3 O1         -1.1380   -0.7600   -3.7690 o         1 1SB     -0.426100
      4 C2          0.3120    0.1320   -2.0200 c3        1 1SB     -0.106100
      5 N2         -1.2390   -3.3210   -2.4880 n2        1 1SB     -0.585400
      6 O2         -1.5420    0.0090    2.4390 os        1 1SB     -0.322900
      7 C3         -0.6040   -0.8620   -2.6760 c         1 1SB      0.535100
      8 O3         -3.8560   -8.0610   -5.9890 oh        1 1SB     -0.465100
      9 C4         -2.2070   -3.3900   -3.3750 ce        1 1SB      0.580800
     10 C5         -2.5840   -4.6340   -4.0130 ca        1 1SB     -0.264900
     11 C6          1.7730   -0.3590   -0.0510 ca        1 1SB     -0.148000
     12 C7          1.9530   -0.5030    1.3270 ca        1 1SB     -0.074000
     13 C8          0.8770   -0.3840    2.2010 ca        1 1SB     -0.172000
     14 C9         -0.4000   -0.1080    1.6840 ca        1 1SB      0.151100
     15 C10        -1.3740    0.0040    3.8570 c3        1 1SB      0.107700
     16 C11        -0.5900    0.0510    0.3010 ca        1 1SB     -0.201000
     17 C12        -3.6260   -4.5930   -4.9670 ca        1 1SB     -0.017000
     18 C13        -4.0370   -5.7410   -5.6160 ca        1 1SB     -0.204500
     19 C14        -3.4030   -6.9680   -5.3150 ca        1 1SB      0.208100
     20 C15        -2.3640   -7.0240   -4.3680 ca        1 1SB     -0.204500
     21 C16        -1.9610   -5.8620   -3.7250 ca        1 1SB     -0.017000
     22 HN1        -0.0050   -2.3690   -1.3630 hn        1 1SB      0.472300
     23 H2          1.2970    0.0830   -2.5710 hc        1 1SB      0.130200
     24 H2A        -0.1230    1.1580   -2.2090 hc        1 1SB      0.130200
     25 HO3        -3.3500   -8.8410   -5.7060 ho        1 1SB      0.443000
     26 H4         -2.8020   -2.5040   -3.7090 h4        1 1SB      0.028800
     27 H6          2.6390   -0.4440   -0.7250 ha        1 1SB      0.150000
     28 H7          2.9600   -0.7080    1.7260 ha        1 1SB      0.161000
     29 H8          1.0330   -0.4950    3.2850 ha        1 1SB      0.163000
     30 H10        -0.6870    0.8250    4.1760 h1        1 1SB      0.060367
     31 H10A       -2.4130    0.1850    4.2350 h1        1 1SB      0.060367
     32 H10B       -0.9950   -0.9890    4.1990 h1        1 1SB      0.060367
     33 H11        -1.5870    0.3280   -0.0720 ha        1 1SB      0.149000
     34 H12        -4.1180   -3.6340   -5.2030 ha        1 1SB      0.151500
     35 H13        -4.8470   -5.7230   -6.3620 ha        1 1SB      0.168000
     36 H15        -1.8750   -7.9830   -4.1410 ha        1 1SB      0.168000
     37 H16        -1.1450   -5.9170   -2.9850 ha        1 1SB      0.151500
     38 H121       -1.5810   -1.8640   -1.1410 hn        1 1SB      0.472300
@<TRIPOS>BOND
     1    1    4 1   
     2    1   11 ar  
     3    1   16 ar  
     4    2    5 1   
     5    2    7 1   
     6    2   22 1   
     7    2   38 1   
     8    3    7 2   
     9    4    7 1   
    10    4   23 1   
    11    4   24 1   
    12    5    9 2   
    13    6   14 1   
    14    6   15 1   
    15    8   19 1   
    16    8   25 1   
    17    9   10 1   
    18    9   26 1   
    19   10   17 ar  
    20   10   21 ar  
    21   11   12 ar  
    22   11   27 1   
    23   12   13 ar  
    24   12   28 1   
    25   13   14 ar  
    26   13   29 1   
    27   14   16 ar  
    28   15   30 1   
    29   15   31 1   
    30   15   32 1   
    31   16   33 1   
    32   17   18 ar  
    33   17   34 1   
    34   18   19 ar  
    35   18   35 1   
    36   19   20 ar  
    37   20   21 ar  
    38   20   36 1   
    39   21   37 1   
@<TRIPOS>SUBSTRUCTURE
     1 1SB         1 TEMP              0 ****  ****    0 ROOT
