@<TRIPOS>MOLECULE
1SB
   38    39     1     0     0
SMALL
bcc


@<TRIPOS>ATOM
      1 C1          0.5680   -0.1270   -0.5610 ca        1 1SB     -0.133300
      2 N1         -0.8630   -2.1470   -1.8610 n4        1 1SB     -0.359900
      3 O1         -1.0080   -0.8080   -3.8000 o         1 1SB     -0.426100
      4 C2          0.4270    0.0620   -2.0280 c3        1 1SB     -0.106100
      5 N2         -1.2450   -3.3370   -2.4730 n2        1 1SB     -0.585400
      6 O2         -1.5550    0.1030    2.3770 os        1 1SB     -0.322900
      7 C3         -0.5100   -0.9080   -2.6900 c         1 1SB      0.535100
      8 O3         -3.9480   -8.0430   -5.9550 oh        1 1SB     -0.465100
      9 C4         -2.1900   -3.3860   -3.3860 ce        1 1SB      0.580800
     10 C5         -2.5980   -4.6280   -4.0100 ca        1 1SB     -0.264900
     11 C6          1.8110   -0.4450   -0.0090 ca        1 1SB     -0.148000
     12 C7          1.9460   -0.5670    1.3770 ca        1 1SB     -0.074000
     13 C8          0.8520   -0.3890    2.2170 ca        1 1SB     -0.172000
     14 C9         -0.3980   -0.0740    1.6590 ca        1 1SB      0.151100
     15 C10        -1.4270    0.1200    3.8000 c3        1 1SB      0.107700
     16 C11        -0.5430    0.0640    0.2670 ca        1 1SB     -0.201000
     17 C12        -3.6110   -4.5660   -4.9940 ca        1 1SB     -0.017000
     18 C13        -4.0490   -5.7110   -5.6320 ca        1 1SB     -0.204500
     19 C14        -3.4710   -6.9540   -5.2900 ca        1 1SB      0.208100
     20 C15        -2.4620   -7.0310   -4.3130 ca        1 1SB     -0.204500
     21 C16        -2.0310   -5.8730   -3.6810 ca        1 1SB     -0.017000
     22 HN1        -0.0070   -2.4100   -1.3320 hn        1 1SB      0.472300
     23 H2          0.0380    1.1000   -2.2490 hc        1 1SB      0.130200
     24 H2A         1.4230   -0.0360   -2.5490 hc        1 1SB      0.130200
     25 HO3        -3.4810   -8.8350   -5.6430 ho        1 1SB      0.443000
     26 H4         -2.7410   -2.4850   -3.7540 h4        1 1SB      0.028800
     27 H6          2.6920   -0.5770   -0.6560 ha        1 1SB      0.150000
     28 H7          2.9330   -0.8030    1.8080 ha        1 1SB      0.161000
     29 H8          0.9730   -0.4840    3.3070 ha        1 1SB      0.163000
     30 H10        -2.4690    0.3500    4.1440 h1        1 1SB      0.060367
     31 H10A       -0.7180    0.9200    4.1220 h1        1 1SB      0.060367
     32 H10B       -1.0980   -0.8800    4.1710 h1        1 1SB      0.060367
     33 H11        -1.5180    0.3720   -0.1400 ha        1 1SB      0.149000
     34 H12        -4.0590   -3.5940   -5.2620 ha        1 1SB      0.151500
     35 H13        -4.8370   -5.6760   -6.4010 ha        1 1SB      0.168000
     36 H15        -2.0170   -8.0040   -4.0530 ha        1 1SB      0.168000
     37 H16        -1.2390   -5.9440   -2.9180 ha        1 1SB      0.151500
     38 H121       -1.5680   -1.8400   -1.1650 hn        1 1SB      0.472300
@<TRIPOS>BOND
     1    1    4 1   
     2    1   11 ar  
     3    1   16 ar  
     4    2    5 1   
     5    2    7 1   
     6    2   22 1   
     7    2   38 1   
     8    3    7 2   
     9    4    7 1   
    10    4   23 1   
    11    4   24 1   
    12    5    9 2   
    13    6   14 1   
    14    6   15 1   
    15    8   19 1   
    16    8   25 1   
    17    9   10 1   
    18    9   26 1   
    19   10   17 ar  
    20   10   21 ar  
    21   11   12 ar  
    22   11   27 1   
    23   12   13 ar  
    24   12   28 1   
    25   13   14 ar  
    26   13   29 1   
    27   14   16 ar  
    28   15   30 1   
    29   15   31 1   
    30   15   32 1   
    31   16   33 1   
    32   17   18 ar  
    33   17   34 1   
    34   18   19 ar  
    35   18   35 1   
    36   19   20 ar  
    37   20   21 ar  
    38   20   36 1   
    39   21   37 1   
@<TRIPOS>SUBSTRUCTURE
     1 1SB         1 TEMP              0 ****  ****    0 ROOT
