@<TRIPOS>MOLECULE
1SB
   38    39     1     0     0
SMALL
bcc


@<TRIPOS>ATOM
      1 C1          0.5480   -0.1360   -0.5050 ca        1 1SB     -0.133300
      2 N1         -0.8560   -2.1430   -1.8520 n4        1 1SB     -0.359900
      3 O1         -0.9620   -0.7870   -3.7820 o         1 1SB     -0.426100
      4 C2          0.4360    0.0680   -1.9720 c3        1 1SB     -0.106100
      5 N2         -1.2260   -3.3280   -2.4830 n2        1 1SB     -0.585400
      6 O2         -1.6310    0.0640    2.3940 os        1 1SB     -0.322900
      7 C3         -0.4870   -0.8970   -2.6630 c         1 1SB      0.535100
      8 O3         -3.8620   -7.9980   -6.0620 oh        1 1SB     -0.465100
      9 C4         -2.1530   -3.3680   -3.4150 ce        1 1SB      0.580800
     10 C5         -2.5490   -4.6030   -4.0590 ca        1 1SB     -0.264900
     11 C6          1.7810   -0.4600    0.0680 ca        1 1SB     -0.148000
     12 C7          1.8890   -0.5960    1.4540 ca        1 1SB     -0.074000
     13 C8          0.7790   -0.4260    2.2750 ca        1 1SB     -0.172000
     14 C9         -0.4600   -0.1050    1.6960 ca        1 1SB      0.151100
     15 C10        -1.5300    0.0670    3.8190 c3        1 1SB      0.107700
     16 C11        -0.5780    0.0460    0.3040 ca        1 1SB     -0.201000
     17 C12        -3.5410   -4.5310   -5.0630 ca        1 1SB     -0.017000
     18 C13        -3.9670   -5.6690   -5.7200 ca        1 1SB     -0.204500
     19 C14        -3.3980   -6.9170   -5.3780 ca        1 1SB      0.208100
     20 C15        -2.4090   -7.0030   -4.3810 ca        1 1SB     -0.204500
     21 C16        -1.9900   -5.8510   -3.7300 ca        1 1SB     -0.017000
     22 HN1        -0.0110   -2.4120   -1.3100 hn        1 1SB      0.472800
     23 H2          1.4420   -0.0240   -2.4740 hc        1 1SB      0.130700
     24 H2A         0.0500    1.1070   -2.1900 hc        1 1SB      0.130700
     25 HO3        -3.4020   -8.7940   -5.7480 ho        1 1SB      0.443000
     26 H4         -2.6960   -2.4620   -3.7860 h4        1 1SB      0.028800
     27 H6          2.6740   -0.5860   -0.5630 ha        1 1SB      0.150000
     28 H7          2.8680   -0.8360    1.9020 ha        1 1SB      0.161000
     29 H8          0.8800   -0.5330    3.3660 ha        1 1SB      0.163000
     30 H10        -0.8270    0.8630    4.1630 h1        1 1SB      0.060367
     31 H10A       -2.5780    0.2920    4.1460 h1        1 1SB      0.060367
     32 H10B       -1.2080   -0.9370    4.1870 h1        1 1SB      0.060367
     33 H11        -1.5450    0.3580   -0.1190 ha        1 1SB      0.149000
     34 H12        -3.9830   -3.5560   -5.3310 ha        1 1SB      0.151500
     35 H13        -4.7390   -5.6270   -6.5050 ha        1 1SB      0.168000
     36 H15        -1.9700   -7.9790   -4.1210 ha        1 1SB      0.168000
     37 H16        -1.2140   -5.9300   -2.9510 ha        1 1SB      0.151500
     38 H121       -1.5740   -1.8430   -1.1680 hn        1 1SB      0.472800
@<TRIPOS>BOND
     1    1    4 1   
     2    1   11 ar  
     3    1   16 ar  
     4    2    5 1   
     5    2    7 1   
     6    2   22 1   
     7    2   38 1   
     8    3    7 2   
     9    4    7 1   
    10    4   23 1   
    11    4   24 1   
    12    5    9 2   
    13    6   14 1   
    14    6   15 1   
    15    8   19 1   
    16    8   25 1   
    17    9   10 1   
    18    9   26 1   
    19   10   17 ar  
    20   10   21 ar  
    21   11   12 ar  
    22   11   27 1   
    23   12   13 ar  
    24   12   28 1   
    25   13   14 ar  
    26   13   29 1   
    27   14   16 ar  
    28   15   30 1   
    29   15   31 1   
    30   15   32 1   
    31   16   33 1   
    32   17   18 ar  
    33   17   34 1   
    34   18   19 ar  
    35   18   35 1   
    36   19   20 ar  
    37   20   21 ar  
    38   20   36 1   
    39   21   37 1   
@<TRIPOS>SUBSTRUCTURE
     1 1SB         1 TEMP              0 ****  ****    0 ROOT
