@<TRIPOS>MOLECULE
1SC
   34    34     1     0     0
SMALL
bcc


@<TRIPOS>ATOM
      1 O3P        -0.1300    5.4000    0.9020 o         1 1SC     -0.783500
      2 P           0.6550    4.6020    1.9200 p5        1 1SC      1.884000
      3 O1P        -0.2410    4.2530    3.0870 o         1 1SC     -0.783500
      4 O5'         1.1870    3.2750    1.2520 os        1 1SC     -0.715000
      5 C5'         0.4300    2.6920    0.2400 c3        1 1SC      0.039000
      6 C4'         1.1250    1.4180   -0.2470 c3        1 1SC     -0.050000
      7 O4'         0.7280    0.3880    0.4580 os        1 1SC     -0.276000
      8 C3'         0.7070    1.1020   -1.6820 c3        1 1SC     -0.005000
      9 O3'         1.7440    1.3050   -2.5270 oh        1 1SC     -0.353000
     10 C2'         0.2990   -0.4080   -1.6770 c3        1 1SC      0.001000
     11 O2'         0.9690   -1.1260   -2.7940 oh        1 1SC     -0.310000
     12 C1'         0.7100   -0.8600   -0.5490 c3        1 1SC      0.098000
     13 N1         -0.1930   -1.8780   -0.0650 n         1 1SC     -0.273000
     14 C2         -0.5500   -1.9230    1.3530 c2        1 1SC      0.356000
     15 O2         -0.0140   -1.1720    2.1320 o         1 1SC     -0.348000
     16 N3         -1.4770   -2.9390    1.8400 n2        1 1SC     -0.302000
     17 C4         -1.8880   -4.0000    0.9800 c1        1 1SC      0.209000
     18 N4         -2.7200   -5.0340    1.4770 n2        1 1SC     -0.344000
     19 C5         -1.5080   -3.9820   -0.4340 c2        1 1SC     -0.353000
     20 C6         -0.6330   -2.9130   -0.9420 c2        1 1SC      0.076000
     21 S           2.2570    5.7260    2.5930 sh        1 1SC     -0.849000
     22 H5'1        0.3430    3.3210   -0.5050 h1        1 1SC      0.069500
     23 H5'2       -0.4530    2.4700    0.5830 h1        1 1SC      0.069500
     24 H4'         2.1080    1.5170   -0.1880 h1        1 1SC      0.140000
     25 H3'        -0.0550    1.6580   -1.9420 h1        1 1SC      0.120000
     26 HO3'        1.4820    1.8290   -3.1970 ho        1 1SC      0.275000
     27 H2'        -0.6750   -0.4990   -1.7460 h1        1 1SC      0.122000
     28 HO2'        0.4560   -1.0900   -3.5190 ho        1 1SC      0.226000
     29 H1'         1.6080   -1.2270   -0.6430 h2        1 1SC      0.174000
     30 HN41       -2.9140   -5.0750    2.3670 hn        1 1SC      0.212500
     31 HN42       -3.0790   -5.6420    0.9070 hn        1 1SC      0.212500
     32 H5         -1.8910   -4.6390   -1.0540 ha        1 1SC      0.155000
     33 H6         -0.3010   -2.9480   -1.8600 h4        1 1SC      0.170000
     34 HS          1.9150    6.3980    3.4780 hs        1 1SC      0.136000
@<TRIPOS>BOND
     1    1    2 1   
     2    2    3 1   
     3    2    4 1   
     4    2   21 1   
     5    4    5 1   
     6    5    6 1   
     7    5   22 1   
     8    5   23 1   
     9    6    7 1   
    10    6    8 1   
    11    6   24 1   
    12    7   12 1   
    13    8    9 1   
    14    8   10 1   
    15    8   25 1   
    16    9   26 1   
    17   10   11 1   
    18   10   12 1   
    19   10   27 1   
    20   11   28 1   
    21   12   13 1   
    22   12   29 1   
    23   13   14 1   
    24   13   20 1   
    25   14   15 1   
    26   14   16 1   
    27   16   17 1   
    28   17   19 1   
    29   18   30 1   
    30   18   31 1   
    31   19   20 1   
    32   19   32 1   
    33   20   33 1   
    34   21   34 1   
@<TRIPOS>SUBSTRUCTURE
     1 1SC         1 TEMP              0 ****  ****    0 ROOT
