@<TRIPOS>MOLECULE
1SC
   34    35     1     0     0
SMALL
bcc


@<TRIPOS>ATOM
      1 O3P        -4.6160   -0.0120   -1.8430 o         1 1SC     -0.770000
      2 P          -3.4220   -0.0220   -1.0050 p5        1 1SC      1.292800
      3 O1P        -3.2010   -0.7820    0.2410 o         1 1SC     -0.770000
      4 O5'        -2.1330   -0.3980   -1.9450 os        1 1SC     -0.547200
      5 C5'        -0.8570   -0.2290   -1.4030 c3        1 1SC      0.164400
      6 C4'        -0.2920   -1.5540   -0.8680 c3        1 1SC      0.065100
      7 O4'         1.1030   -1.6360   -1.2060 os        1 1SC     -0.418600
      8 C3'        -0.4330   -1.7200    0.6590 c3        1 1SC      0.105100
      9 O3'        -1.2660   -2.8150    0.9700 oh        1 1SC     -0.627800
     10 C2'         0.9870   -2.0270    1.1800 c3        1 1SC      0.113100
     11 O2'         1.1720   -3.3500    1.6200 oh        1 1SC     -0.581800
     12 C1'         1.9250   -1.7470   -0.0400 c3        1 1SC      0.248500
     13 N1          2.7480   -0.5500    0.1160 n         1 1SC     -0.383000
     14 C2          4.1890   -0.6620    0.1810 c         1 1SC      0.836900
     15 O2          4.6930   -1.8030    0.1510 o         1 1SC     -0.627500
     16 N3          4.9810    0.4900    0.3010 nc        1 1SC     -0.734100
     17 C4          4.3840    1.6940    0.2990 cd        1 1SC      0.741500
     18 N4          5.1580    2.8450    0.3290 nh        1 1SC     -0.913800
     19 C5          2.9360    1.8410    0.2130 cd        1 1SC     -0.440600
     20 C6          2.1840    0.6980    0.1080 cc        1 1SC      0.080600
     21 S          -2.8920    2.0530   -0.3270 sh        1 1SC     -0.712200
     22 H5'1       -0.9040    0.5550   -0.5920 h1        1 1SC      0.051200
     23 H5'2       -0.1890    0.1300   -2.2370 h1        1 1SC      0.051200
     24 H4'        -0.7810   -2.4160   -1.4030 h1        1 1SC      0.093700
     25 H3'        -0.8290   -0.7830    1.1350 h1        1 1SC      0.079700
     26 HO3'       -2.1820   -2.4860    0.9320 ho        1 1SC      0.473000
     27 H2'         1.2440   -1.3900    2.0690 h1        1 1SC      0.084700
     28 HO2'        0.5990   -3.9250    1.0940 ho        1 1SC      0.425000
     29 H1'         2.6190   -2.6220   -0.2250 h2        1 1SC      0.131700
     30 HN41        6.1230    2.7650    0.5430 hn        1 1SC      0.421800
     31 HN42        4.7000    3.6750    0.6170 hn        1 1SC      0.421800
     32 H5          2.4620    2.8280    0.2040 ha        1 1SC      0.158000
     33 H6          1.0790    0.7400    0.0110 h4        1 1SC      0.176000
     34 HS         -2.9520    1.8170    0.9750 hs        1 1SC      0.309800
@<TRIPOS>BOND
     1    1    2 1   
     2    2    3 1   
     3    2    4 1   
     4    2   21 1   
     5    4    5 1   
     6    5    6 1   
     7    5   22 1   
     8    5   23 1   
     9    6    7 1   
    10    6    8 1   
    11    6   24 1   
    12    7   12 1   
    13    8    9 1   
    14    8   10 1   
    15    8   25 1   
    16    9   26 1   
    17   10   11 1   
    18   10   12 1   
    19   10   27 1   
    20   11   28 1   
    21   12   13 1   
    22   12   29 1   
    23   13   14 1   
    24   13   20 1   
    25   14   15 2   
    26   14   16 1   
    27   16   17 2   
    28   17   18 1   
    29   17   19 1   
    30   18   30 1   
    31   18   31 1   
    32   19   20 2   
    33   19   32 1   
    34   20   33 1   
    35   21   34 1   
@<TRIPOS>SUBSTRUCTURE
     1 1SC         1 TEMP              0 ****  ****    0 ROOT
