@<TRIPOS>MOLECULE
1SD
   29    29     1     0     0
SMALL
bcc


@<TRIPOS>ATOM
      1 O2         -0.0320   -0.1090   -0.0440 oh        1 1SD     -0.619800
      2 C2          1.3790   -0.0710   -0.0080 c3        1 1SD      0.143100
      3 C3          1.9270   -0.1610    1.4270 c3        1 1SD      0.079100
      4 O3          1.6270   -1.4780    1.8550 oh        1 1SD     -0.595800
      5 C4          3.4540    0.0510    1.4230 c3        1 1SD      0.092100
      6 O4          4.1130   -0.9980    0.7410 oh        1 1SD     -0.587800
      7 C5          3.7890    1.3650    0.7070 c3        1 1SD      0.157100
      8 C6          5.2870    1.5270    0.4160 c3        1 1SD      0.136400
      9 O6          5.3900    2.5700   -0.5450 oh        1 1SD     -0.633800
     10 O5          3.1900    1.4110   -0.5970 os        1 1SD     -0.412600
     11 C1          1.7790    1.2910   -0.6070 c3        1 1SD     -0.051100
     12 SAI         1.2550    1.4700   -2.2480 s6        1 1SD      1.361900
     13 OAM         1.3020    0.3170   -2.9970 o         1 1SD     -0.536300
     14 OAE         0.2460    2.4020   -2.3500 o         1 1SD     -0.536300
     15 NAJ         2.6780    2.4390   -2.9910 n4        1 1SD     -0.799500
     16 HO2        -0.3120   -0.9070    0.4320 ho        1 1SD      0.466000
     17 H2          1.8160   -0.9120   -0.6210 h1        1 1SD      0.104700
     18 H3          1.4260    0.6010    2.0830 h1        1 1SD      0.073700
     19 HO3         1.6770   -1.4900    2.8200 ho        1 1SD      0.434000
     20 H4          3.8300    0.1020    2.4840 h1        1 1SD      0.071700
     21 HO4         3.7540   -1.8320    1.0830 ho        1 1SD      0.437000
     22 H5          3.3980    2.2310    1.3100 h1        1 1SD      0.070700
     23 H6          5.7060    0.5770   -0.0130 h1        1 1SD      0.072700
     24 H6A         5.8150    1.7930    1.3680 h1        1 1SD      0.072700
     25 HO6         6.3130    2.8550   -0.5450 ho        1 1SD      0.430000
     26 H1          1.3150    2.0960    0.0400 h2        1 1SD      0.141700
     27 HNAJ        3.0590    1.9460   -3.8000 hn        1 1SD      0.476133
     28 HNAA        3.4570    2.5780   -2.3330 hn        1 1SD      0.476133
     29 HAJ3        2.3700    3.3610   -3.3020 hn        1 1SD      0.476133
@<TRIPOS>BOND
     1    1    2 1   
     2    1   16 1   
     3    2    3 1   
     4    2   11 1   
     5    2   17 1   
     6    3    4 1   
     7    3    5 1   
     8    3   18 1   
     9    4   19 1   
    10    5    6 1   
    11    5    7 1   
    12    5   20 1   
    13    6   21 1   
    14    7    8 1   
    15    7   10 1   
    16    7   22 1   
    17    8    9 1   
    18    8   23 1   
    19    8   24 1   
    20    9   25 1   
    21   10   11 1   
    22   11   12 1   
    23   11   26 1   
    24   12   13 2   
    25   12   14 2   
    26   12   15 1   
    27   15   27 1   
    28   15   28 1   
    29   15   29 1   
@<TRIPOS>SUBSTRUCTURE
     1 1SD         1 TEMP              0 ****  ****    0 ROOT
