@<TRIPOS>MOLECULE
1SD
   29    29     1     0     0
SMALL
bcc


@<TRIPOS>ATOM
      1 O2          0.0060   -0.2140   -0.0990 oh        1 1SD     -0.619800
      2 C2          1.4130   -0.1190   -0.0200 c3        1 1SD      0.143100
      3 C3          1.9160   -0.1330    1.4350 c3        1 1SD      0.079100
      4 O3          1.6530   -1.4440    1.9050 oh        1 1SD     -0.595800
      5 C4          3.4330    0.1410    1.4720 c3        1 1SD      0.092100
      6 O4          4.1550   -0.9070    0.8530 oh        1 1SD     -0.587800
      7 C5          3.7410    1.4380    0.7160 c3        1 1SD      0.157100
      8 C6          5.2400    1.6480    0.4670 c3        1 1SD      0.136400
      9 O6          5.3350    2.6570   -0.5310 oh        1 1SD     -0.633800
     10 O5          3.1840    1.4110   -0.6070 os        1 1SD     -0.412600
     11 C1          1.7810    1.2350   -0.6580 c3        1 1SD     -0.051100
     12 SAI         1.3050    1.3300   -2.3210 s6        1 1SD      1.361900
     13 OAM         1.4220    0.1530   -3.0220 o         1 1SD     -0.536300
     14 OAE         0.2650    2.2180   -2.4920 o         1 1SD     -0.536300
     15 NAJ         2.7140    2.3270   -3.0550 n4        1 1SD     -0.799500
     16 HO2        -0.2580   -1.0040    0.3980 ho        1 1SD      0.466000
     17 H2          1.9030   -0.9640   -0.5850 h1        1 1SD      0.104700
     18 H3          1.3650    0.6330    2.0440 h1        1 1SD      0.073700
     19 HO3         1.6710   -1.4170    2.8700 ho        1 1SD      0.434000
     20 H4          3.7710    0.2460    2.5420 h1        1 1SD      0.071700
     21 HO4         3.8170   -1.7410    1.2150 ho        1 1SD      0.437000
     22 H5          3.2960    2.3100    1.2720 h1        1 1SD      0.070700
     23 H6          5.7250    1.9720    1.4230 h1        1 1SD      0.072700
     24 H6A         5.7100    0.7010    0.0900 h1        1 1SD      0.072700
     25 HO6         6.2460    2.9780   -0.5130 ho        1 1SD      0.430000
     26 H1          1.2640    2.0450   -0.0580 h2        1 1SD      0.141700
     27 HNAJ        2.3820    3.2230   -3.4110 hn        1 1SD      0.476133
     28 HNAA        3.4650    2.5200   -2.3790 hn        1 1SD      0.476133
     29 HAJ3        3.1400    1.8190   -3.8320 hn        1 1SD      0.476133
@<TRIPOS>BOND
     1    1    2 1   
     2    1   16 1   
     3    2    3 1   
     4    2   11 1   
     5    2   17 1   
     6    3    4 1   
     7    3    5 1   
     8    3   18 1   
     9    4   19 1   
    10    5    6 1   
    11    5    7 1   
    12    5   20 1   
    13    6   21 1   
    14    7    8 1   
    15    7   10 1   
    16    7   22 1   
    17    8    9 1   
    18    8   23 1   
    19    8   24 1   
    20    9   25 1   
    21   10   11 1   
    22   11   12 1   
    23   11   26 1   
    24   12   13 2   
    25   12   14 2   
    26   12   15 1   
    27   15   27 1   
    28   15   28 1   
    29   15   29 1   
@<TRIPOS>SUBSTRUCTURE
     1 1SD         1 TEMP              0 ****  ****    0 ROOT
