@<TRIPOS>MOLECULE
1SD
   28    27     1     0     0
SMALL
bcc


@<TRIPOS>ATOM
      1 O2         -2.6700   -0.7630   -0.0250 oh        1 1SD     -0.339000
      2 C2         -1.2500   -0.7680   -0.0060 c3        1 1SD     -0.002000
      3 C3         -0.7920   -0.7840    1.4020 c3        1 1SD      0.008000
      4 O3         -1.1920   -2.0600    2.0150 oh        1 1SD     -0.336000
      5 C4          0.6580   -0.6370    1.5250 c3        1 1SD      0.018000
      6 O4          1.2960   -1.8490    1.0110 oh        1 1SD     -0.319000
      7 C5          1.1950    0.5460    0.7710 c3        1 1SD     -0.003000
      8 C6          2.6990    0.5010    0.8100 c3        1 1SD     -0.011000
      9 O6          3.2180    1.6790    0.2340 oh        1 1SD     -0.324000
     10 O5          0.7590    0.5790   -0.6320 os        1 1SD     -0.255000
     11 C1         -0.7320    0.4740   -0.8020 c3        1 1SD     -0.632000
     12 SAI        -1.2130    0.4390   -2.4850 s4        1 1SD      2.031800
     13 OAM        -2.2630   -0.5160   -2.7080 o         1 1SD     -0.530900
     14 OAE        -0.1690   -0.0940   -3.3150 o         1 1SD     -0.530900
     15 NAJ        -1.6590    1.9400   -2.9800 n2        1 1SD     -0.950000
     16 HO2        -2.9680   -1.5860   -0.1820 ho        1 1SD      0.239000
     17 H2         -0.9320   -1.5800   -0.4490 h1        1 1SD      0.118000
     18 H3         -1.2260   -0.0530    1.8820 h1        1 1SD      0.100000
     19 HO3        -1.5440   -1.9070    2.8170 ho        1 1SD      0.230000
     20 H4          0.8840   -0.5370    2.4690 h1        1 1SD      0.097000
     21 HO4         1.6550   -2.3040    1.6860 ho        1 1SD      0.226000
     22 H5          0.8930    1.3620    1.2130 h1        1 1SD      0.097000
     23 H6          3.0000    0.4320    1.7390 h1        1 1SD      0.111500
     24 H6A         3.0150   -0.2760    0.3050 h1        1 1SD      0.111500
     25 HO6         4.0800    1.7550    0.4400 ho        1 1SD      0.204000
     26 H1         -1.1740    1.2890   -0.4970 h2        1 1SD      0.131000
     27 HNAJ       -2.5140    2.2330   -2.8400 hn        1 1SD      0.255000
     28 HNAA       -1.0530    2.4840   -3.3950 hn        1 1SD      0.255000
@<TRIPOS>BOND
     1    1    2 1   
     2    1   16 1   
     3    2    3 1   
     4    2   11 1   
     5    2   17 1   
     6    3    4 1   
     7    3    5 1   
     8    3   18 1   
     9    4   19 1   
    10    5    6 1   
    11    5    7 1   
    12    5   20 1   
    13    6   21 1   
    14    7    8 1   
    15    7   10 1   
    16    7   22 1   
    17    8    9 1   
    18    8   23 1   
    19    8   24 1   
    20    9   25 1   
    21   10   11 1   
    22   11   12 1   
    23   11   26 1   
    24   12   13 1   
    25   12   14 1   
    26   15   27 1   
    27   15   28 1   
@<TRIPOS>SUBSTRUCTURE
     1 1SD         1 TEMP              0 ****  ****    0 ROOT
