@<TRIPOS>MOLECULE
1SD
   28    28     1     0     0
SMALL
bcc


@<TRIPOS>ATOM
      1 O2         -0.9300    2.3740   -0.7650 oh        1 1SD     -0.588800
      2 C2         -0.0650    1.4520   -0.1250 c3        1 1SD      0.104100
      3 C3          1.3870    1.6880   -0.5800 c3        1 1SD      0.078100
      4 O3          1.8330    2.9360   -0.0880 oh        1 1SD     -0.593800
      5 C4          2.3000    0.5410   -0.1230 c3        1 1SD      0.086100
      6 O4          2.4920    0.5990    1.2780 oh        1 1SD     -0.596800
      7 C5          1.6940   -0.7940   -0.5740 c3        1 1SD      0.108100
      8 C6          2.4910   -1.9840   -0.0330 c3        1 1SD      0.133400
      9 O6          2.4740   -2.9770   -1.0450 oh        1 1SD     -0.601800
     10 O5          0.3770   -0.9250   -0.0250 os        1 1SD     -0.406600
     11 C1         -0.5400    0.0470   -0.5100 c3        1 1SD     -0.024100
     12 SAI        -2.1370   -0.3520    0.2200 s6        1 1SD      1.463900
     13 OAM        -2.0570    0.0450    1.5620 o         1 1SD     -0.636800
     14 OAE        -3.1290    0.2180   -0.5920 o         1 1SD     -0.636800
     15 NAJ        -2.2090   -1.9330    0.0760 n3        1 1SD     -1.022700
     16 HO2        -0.5420    3.2510   -0.6320 ho        1 1SD      0.430000
     17 H2         -0.1340    1.5810    0.9940 h1        1 1SD      0.067700
     18 H3          1.4190    1.7910   -1.7010 h1        1 1SD      0.095700
     19 HO3         2.0900    2.8090    0.8370 ho        1 1SD      0.420000
     20 H4          3.3310    0.6760   -0.5540 h1        1 1SD      0.099700
     21 HO4         1.6720    0.2950    1.6940 ho        1 1SD      0.417000
     22 H5          1.6410   -0.8330   -1.6970 h1        1 1SD      0.083700
     23 H6          3.5470   -1.6650    0.1770 h1        1 1SD      0.047200
     24 H6A         2.0210   -2.3690    0.9100 h1        1 1SD      0.047200
     25 HO6         2.9010   -3.7570   -0.6730 ho        1 1SD      0.408000
     26 H1         -0.6070   -0.0080   -1.6310 h2        1 1SD      0.102700
     27 HNAJ       -1.5860   -2.5570    0.5270 hn        1 1SD      0.457300
     28 HNAA       -2.8400   -2.3950   -0.5320 hn        1 1SD      0.457300
@<TRIPOS>BOND
     1    1    2 1   
     2    1   16 1   
     3    2    3 1   
     4    2   11 1   
     5    2   17 1   
     6    3    4 1   
     7    3    5 1   
     8    3   18 1   
     9    4   19 1   
    10    5    6 1   
    11    5    7 1   
    12    5   20 1   
    13    6   21 1   
    14    7    8 1   
    15    7   10 1   
    16    7   22 1   
    17    8    9 1   
    18    8   23 1   
    19    8   24 1   
    20    9   25 1   
    21   10   11 1   
    22   11   12 1   
    23   11   26 1   
    24   12   13 2   
    25   12   14 2   
    26   12   15 1   
    27   15   27 1   
    28   15   28 1   
@<TRIPOS>SUBSTRUCTURE
     1 1SD         1 TEMP              0 ****  ****    0 ROOT
