@<TRIPOS>MOLECULE
1SD
   29    29     1     0     0
SMALL
bcc


@<TRIPOS>ATOM
      1 O2          0.0040   -0.1900   -0.0660 oh        1 1SD     -0.619800
      2 C2          1.4130   -0.1100   -0.0160 c3        1 1SD      0.143100
      3 C3          1.9490   -0.1750    1.4260 c3        1 1SD      0.079100
      4 O3          1.6840   -1.4980    1.8590 oh        1 1SD     -0.595800
      5 C4          3.4690    0.0840    1.4360 c3        1 1SD      0.092100
      6 O4          4.1660   -0.9500    0.7670 oh        1 1SD     -0.587800
      7 C5          3.7720    1.4030    0.7140 c3        1 1SD      0.157100
      8 C6          5.2660    1.6070    0.4370 c3        1 1SD      0.136400
      9 O6          5.3480    2.6460   -0.5300 oh        1 1SD     -0.633800
     10 O5          3.1850    1.4220   -0.5950 os        1 1SD     -0.412600
     11 C1          1.7780    1.2600   -0.6190 c3        1 1SD     -0.051100
     12 SAI         1.2660    1.4130   -2.2660 s6        1 1SD      1.361900
     13 OAM         1.3560    0.2580   -3.0070 o         1 1SD     -0.536300
     14 OAE         0.2310    2.3140   -2.3850 o         1 1SD     -0.536300
     15 NAJ         2.6670    2.4200   -3.0020 nz        1 1SD     -0.799500
     16 HO2        -0.2560   -0.9930    0.4120 ho        1 1SD      0.466000
     17 H2          1.8810   -0.9410   -0.6190 h1        1 1SD      0.104700
     18 H3          1.4190    0.5770    2.0720 h1        1 1SD      0.073700
     19 HO3         1.7240   -1.5020    2.8250 ho        1 1SD      0.434000
     20 H4          3.8320    0.1520    2.5000 h1        1 1SD      0.071700
     21 HO4         3.8290   -1.7920    1.1110 ho        1 1SD      0.437000
     22 H5          3.3480    2.2600    1.3080 h1        1 1SD      0.070700
     23 H6          5.7180    0.6680    0.0200 h1        1 1SD      0.072700
     24 H6A         5.7760    1.8960    1.3930 h1        1 1SD      0.072700
     25 HO6         6.2620    2.9580   -0.5230 ho        1 1SD      0.430000
     26 H1          1.2830    2.0550    0.0180 h2        1 1SD      0.141700
     27 HNAJ        3.4350    2.5860   -2.3370 hn        1 1SD      0.476133
     28 HNAA        3.0700    1.9340   -3.8040 hn        1 1SD      0.476133
     29 HAJ3        2.3350    3.3300   -3.3210 hn        1 1SD      0.476133
@<TRIPOS>BOND
     1    1    2 1   
     2    1   16 1   
     3    2    3 1   
     4    2   11 1   
     5    2   17 1   
     6    3    4 1   
     7    3    5 1   
     8    3   18 1   
     9    4   19 1   
    10    5    6 1   
    11    5    7 1   
    12    5   20 1   
    13    6   21 1   
    14    7    8 1   
    15    7   10 1   
    16    7   22 1   
    17    8    9 1   
    18    8   23 1   
    19    8   24 1   
    20    9   25 1   
    21   10   11 1   
    22   11   12 1   
    23   11   26 1   
    24   12   13 2   
    25   12   14 2   
    26   12   15 1   
    27   15   27 1   
    28   15   28 1   
    29   15   29 1   
@<TRIPOS>SUBSTRUCTURE
     1 1SD         1 TEMP              0 ****  ****    0 ROOT
