@<TRIPOS>MOLECULE
1SE
   42    44     1     0     0
SMALL
bcc


@<TRIPOS>ATOM
      1 C1          0.2360   -0.5080   -0.1640 ca        1 1SE     -0.102000
      2 C2          1.6210   -0.3800   -0.0840 ca        1 1SE     -0.222300
      3 C3          2.2040   -0.1920    1.1850 ca        1 1SE      0.393200
      4 N4          1.4990   -0.1250    2.3250 nb        1 1SE     -0.660000
      5 C5          0.1510   -0.2510    2.2350 ca        1 1SE      0.348800
      6 C6         -0.5190   -0.4460    1.0100 ca        1 1SE     -0.186300
      7 C7         -0.7100   -0.2120    3.4790 c         1 1SE      0.578600
      8 O8         -1.8530   -0.7070    3.4350 o         1 1SE     -0.598100
      9 N9         -0.1890    0.4110    4.5970 n         1 1SE     -0.446100
     10 C10        -0.8020    0.5200    5.8570 ca        1 1SE      0.045600
     11 C11        -0.0180    0.9480    6.9540 ca        1 1SE     -0.141500
     12 C12        -0.5680    1.0990    8.2190 ca        1 1SE     -0.139500
     13 C13        -1.9320    0.8270    8.4440 ca        1 1SE      0.034600
     14 C14        -2.7170    0.4010    7.3490 ca        1 1SE     -0.139500
     15 C15        -2.1670    0.2490    6.0840 ca        1 1SE     -0.141500
     16 N16        -2.5400    0.9340    9.7090 n         1 1SE     -0.462100
     17 C17        -2.0300    1.5830   10.8220 c         1 1SE      0.681700
     18 O18        -0.9150    2.1340   10.8490 o         1 1SE     -0.575100
     19 C19        -2.9120    1.5850   12.0310 ca        1 1SE     -0.196600
     20 C20        -3.5830    0.4300   12.4530 ca        1 1SE     -0.026000
     21 C21        -4.3670    0.4560   13.5970 ca        1 1SE     -0.239000
     22 C22        -4.4970    1.6450   14.3400 ca        1 1SE      0.212100
     23 C23        -3.8130    2.8110   13.9180 ca        1 1SE     -0.224200
     24 C24        -3.0130    2.7670   12.7640 ca        1 1SE      0.015000
     25 N25        -3.9190    4.0810   14.6780 no        1 1SE      0.326200
     26 O26        -4.5210    4.0990   15.7140 o         1 1SE     -0.196500
     27 O27        -3.3920    5.0630   14.2230 o         1 1SE     -0.196500
     28 O28        -5.2670    1.7210   15.4620 oh        1 1SE     -0.444100
     29 H1         -0.2600   -0.6580   -1.1340 ha        1 1SE      0.147000
     30 H2          2.2520   -0.4250   -0.9820 ha        1 1SE      0.149000
     31 H3          3.2990   -0.0900    1.2960 h4        1 1SE      0.028100
     32 H4         -1.6150   -0.5550    0.9990 ha        1 1SE      0.172000
     33 H5          0.7610    0.7160    4.5620 hn        1 1SE      0.338500
     34 H6          1.0530    1.1710    6.8210 ha        1 1SE      0.156000
     35 H7          0.0810    1.4390    9.0440 ha        1 1SE      0.152000
     36 H8         -3.7880    0.1800    7.4810 ha        1 1SE      0.152000
     37 H9         -2.8180   -0.0880    5.2600 ha        1 1SE      0.156000
     38 H10        -3.4850    0.6220    9.7560 hn        1 1SE      0.316500
     39 H11        -3.4790   -0.5130   11.8910 ha        1 1SE      0.152000
     40 H12        -4.8910   -0.4510   13.9340 ha        1 1SE      0.152000
     41 H13        -2.4560    3.6670   12.4390 ha        1 1SE      0.195000
     42 H14        -5.6570    0.8470   15.6290 ho        1 1SE      0.432000
@<TRIPOS>BOND
     1    1    2 ar  
     2    1    6 ar  
     3    1   29 1   
     4    2    3 ar  
     5    2   30 1   
     6    3    4 ar  
     7    3   31 1   
     8    4    5 ar  
     9    5    6 ar  
    10    5    7 1   
    11    6   32 1   
    12    7    8 2   
    13    7    9 1   
    14    9   10 1   
    15    9   33 1   
    16   10   11 ar  
    17   10   15 ar  
    18   11   12 ar  
    19   11   34 1   
    20   12   13 ar  
    21   12   35 1   
    22   13   14 ar  
    23   13   16 1   
    24   14   15 ar  
    25   14   36 1   
    26   15   37 1   
    27   16   17 1   
    28   16   38 1   
    29   17   18 2   
    30   17   19 1   
    31   19   20 ar  
    32   19   24 ar  
    33   20   21 ar  
    34   20   39 1   
    35   21   22 ar  
    36   21   40 1   
    37   22   23 ar  
    38   22   28 1   
    39   23   24 ar  
    40   23   25 1   
    41   24   41 1   
    42   25   26 1   
    43   25   27 1   
    44   28   42 1   
@<TRIPOS>SUBSTRUCTURE
     1 1SE         1 TEMP              0 ****  ****    0 ROOT
