@<TRIPOS>MOLECULE
1SE
   42    44     1     0     0
SMALL
bcc


@<TRIPOS>ATOM
      1 C1          0.2320   -0.4950   -0.1670 ca        1 1SE     -0.102000
      2 C2          1.6180   -0.3860   -0.0850 ca        1 1SE     -0.222300
      3 C3          2.2010   -0.2120    1.1870 ca        1 1SE      0.393200
      4 N4          1.4950   -0.1420    2.3260 nb        1 1SE     -0.660000
      5 C5          0.1460   -0.2500    2.2340 ca        1 1SE      0.348800
      6 C6         -0.5250   -0.4290    1.0060 ca        1 1SE     -0.186300
      7 C7         -0.7170   -0.2060    3.4760 c         1 1SE      0.578600
      8 O8         -1.8660   -0.6870    3.4280 o         1 1SE     -0.598100
      9 N9         -0.1890    0.4050    4.5980 ns        1 1SE     -0.446100
     10 C10        -0.8030    0.5160    5.8580 ca        1 1SE      0.045600
     11 C11        -0.0150    0.9300    6.9570 ca        1 1SE     -0.141500
     12 C12        -0.5650    1.0820    8.2220 ca        1 1SE     -0.139500
     13 C13        -1.9330    0.8260    8.4440 ca        1 1SE      0.034600
     14 C14        -2.7220    0.4130    7.3460 ca        1 1SE     -0.139500
     15 C15        -2.1710    0.2610    6.0810 ca        1 1SE     -0.141500
     16 N16        -2.5420    0.9350    9.7080 ns        1 1SE     -0.462100
     17 C17        -2.0260    1.5740   10.8250 c         1 1SE      0.681700
     18 O18        -0.9060    2.1140   10.8540 o         1 1SE     -0.575100
     19 C19        -2.9100    1.5820   12.0320 ca        1 1SE     -0.196600
     20 C20        -3.5930    0.4330   12.4500 ca        1 1SE     -0.026000
     21 C21        -4.3790    0.4640   13.5930 ca        1 1SE     -0.239000
     22 C22        -4.4970    1.6510   14.3390 ca        1 1SE      0.212100
     23 C23        -3.8000    2.8120   13.9220 ca        1 1SE     -0.224200
     24 C24        -3.0000    2.7630   12.7680 ca        1 1SE      0.015000
     25 N25        -3.8950    4.0800   14.6850 no        1 1SE      0.326200
     26 O26        -4.4990    4.1020   15.7200 o         1 1SE     -0.196500
     27 O27        -3.3580    5.0580   14.2330 o         1 1SE     -0.196500
     28 O28        -5.2680    1.7320   15.4610 oh        1 1SE     -0.444100
     29 H1         -0.2650   -0.6330   -1.1390 ha        1 1SE      0.147000
     30 H2          2.2500   -0.4350   -0.9810 ha        1 1SE      0.149000
     31 H3          3.2970   -0.1250    1.3000 h4        1 1SE      0.028100
     32 H4         -1.6210   -0.5240    0.9930 ha        1 1SE      0.172000
     33 H5          0.7640    0.6980    4.5650 hn        1 1SE      0.338500
     34 H6          1.0580    1.1420    6.8270 ha        1 1SE      0.156000
     35 H7          0.0860    1.4120    9.0490 ha        1 1SE      0.152000
     36 H8         -3.7960    0.2040    7.4750 ha        1 1SE      0.152000
     37 H9         -2.8250   -0.0670    5.2550 ha        1 1SE      0.156000
     38 H10        -3.4900    0.6330    9.7530 hn        1 1SE      0.316500
     39 H11        -3.4980   -0.5090   11.8850 ha        1 1SE      0.152000
     40 H12        -4.9120   -0.4390   13.9260 ha        1 1SE      0.152000
     41 H13        -2.4330    3.6590   12.4470 ha        1 1SE      0.195000
     42 H14        -5.6670    0.8610   15.6240 ho        1 1SE      0.432000
@<TRIPOS>BOND
     1    1    2 ar  
     2    1    6 ar  
     3    1   29 1   
     4    2    3 ar  
     5    2   30 1   
     6    3    4 ar  
     7    3   31 1   
     8    4    5 ar  
     9    5    6 ar  
    10    5    7 1   
    11    6   32 1   
    12    7    8 2   
    13    7    9 1   
    14    9   10 1   
    15    9   33 1   
    16   10   11 ar  
    17   10   15 ar  
    18   11   12 ar  
    19   11   34 1   
    20   12   13 ar  
    21   12   35 1   
    22   13   14 ar  
    23   13   16 1   
    24   14   15 ar  
    25   14   36 1   
    26   15   37 1   
    27   16   17 1   
    28   16   38 1   
    29   17   18 2   
    30   17   19 1   
    31   19   20 ar  
    32   19   24 ar  
    33   20   21 ar  
    34   20   39 1   
    35   21   22 ar  
    36   21   40 1   
    37   22   23 ar  
    38   22   28 1   
    39   23   24 ar  
    40   23   25 1   
    41   24   41 1   
    42   25   26 1   
    43   25   27 1   
    44   28   42 1   
@<TRIPOS>SUBSTRUCTURE
     1 1SE         1 TEMP              0 ****  ****    0 ROOT
