@<TRIPOS>MOLECULE
1SF
   26    27     1     0     0
SMALL
bcc


@<TRIPOS>ATOM
      1 C1         -0.1570    0.4630    0.0740 ca        1 1SF     -0.122000
      2 C2          1.2280    0.4210   -0.0430 ca        1 1SF     -0.085000
      3 C3          2.0280    0.0620    1.0670 ca        1 1SF      0.059600
      4 C4          1.3990   -0.2410    2.2920 ca        1 1SF     -0.116000
      5 C5         -0.0000   -0.2060    2.3750 ca        1 1SF     -0.157200
      6 C6         -0.7910    0.1470    1.2740 ca        1 1SF     -0.080000
      7 N7         -0.6540   -0.5470    3.6680 no        1 1SF      0.313200
      8 O8          0.0340   -0.8750    4.5990 o         1 1SF     -0.206500
      9 O9         -1.8510   -0.4900    3.7470 o         1 1SF     -0.206500
     10 N10         3.4350   -0.0340    0.9410 n         1 1SF     -0.379000
     11 C11         4.1510   -0.8800    1.8750 c3        1 1SF      0.088000
     12 C12         5.5310   -1.2950    1.3770 c3        1 1SF     -0.167400
     13 C13         6.2980   -0.1480    0.7640 c         1 1SF      0.705500
     14 O14         7.5360   -0.1190    0.7040 o         1 1SF     -0.592500
     15 N15         5.5580    0.9040    0.2250 ns        1 1SF     -0.595500
     16 C16         4.1500    0.9630    0.2350 c         1 1SF      0.817500
     17 O17         3.5850    1.8740   -0.4060 o         1 1SF     -0.631500
     18 H1         -0.7650    0.7510   -0.7990 ha        1 1SF      0.155000
     19 H2          1.7010    0.6910   -1.0030 ha        1 1SF      0.174000
     20 H3          1.9850   -0.5030    3.1910 ha        1 1SF      0.171000
     21 H4         -1.8910    0.1760    1.3570 ha        1 1SF      0.174000
     22 H5          4.2660   -0.3450    2.8640 h1        1 1SF      0.064200
     23 H6          3.5370   -1.8100    2.0520 h1        1 1SF      0.064200
     24 H7          5.4470   -2.1000    0.5990 hc        1 1SF      0.097700
     25 H8          6.1220   -1.7060    2.2380 hc        1 1SF      0.097700
     26 H9          6.0290    1.6480   -0.2470 hn        1 1SF      0.355500
@<TRIPOS>BOND
     1    1    2 ar  
     2    1    6 ar  
     3    1   18 1   
     4    2    3 ar  
     5    2   19 1   
     6    3    4 ar  
     7    3   10 1   
     8    4    5 ar  
     9    4   20 1   
    10    5    6 ar  
    11    5    7 1   
    12    6   21 1   
    13    7    8 1   
    14    7    9 1   
    15   10   11 1   
    16   10   16 1   
    17   11   12 1   
    18   11   22 1   
    19   11   23 1   
    20   12   13 1   
    21   12   24 1   
    22   12   25 1   
    23   13   14 2   
    24   13   15 1   
    25   15   16 1   
    26   15   26 1   
    27   16   17 2   
@<TRIPOS>SUBSTRUCTURE
     1 1SF         1 TEMP              0 ****  ****    0 ROOT
