@<TRIPOS>MOLECULE
1SF
   26    27     1     0     0
SMALL
bcc


@<TRIPOS>ATOM
      1 C1         -0.1510    0.4610    0.0640 ca        1 1SF     -0.122000
      2 C2          1.2340    0.4170   -0.0490 ca        1 1SF     -0.085000
      3 C3          2.0310    0.0580    1.0640 ca        1 1SF      0.059600
      4 C4          1.3990   -0.2430    2.2870 ca        1 1SF     -0.116000
      5 C5         -0.0010   -0.2060    2.3660 ca        1 1SF     -0.157200
      6 C6         -0.7890    0.1470    1.2620 ca        1 1SF     -0.080000
      7 N7         -0.6590   -0.5460    3.6580 no        1 1SF      0.313200
      8 O8          0.0260   -0.8740    4.5900 o         1 1SF     -0.206500
      9 O9         -1.8560   -0.4870    3.7330 o         1 1SF     -0.206500
     10 N10         3.4380   -0.0400    0.9410 n         1 1SF     -0.379000
     11 C11         4.1510   -0.8860    1.8780 c3        1 1SF      0.088000
     12 C12         5.5310   -1.3030    1.3840 c3        1 1SF     -0.167400
     13 C13         6.3010   -0.1580    0.7730 c         1 1SF      0.705500
     14 O14         7.5400   -0.1310    0.7160 o         1 1SF     -0.592500
     15 N15         5.5640    0.8950    0.2300 n         1 1SF     -0.595500
     16 C16         4.1560    0.9560    0.2360 c         1 1SF      0.817500
     17 O17         3.5940    1.8670   -0.4070 o         1 1SF     -0.631500
     18 H1         -0.7560    0.7490   -0.8110 ha        1 1SF      0.155000
     19 H2          1.7100    0.6850   -1.0080 ha        1 1SF      0.174000
     20 H3          1.9810   -0.5060    3.1880 ha        1 1SF      0.171000
     21 H4         -1.8890    0.1770    1.3430 ha        1 1SF      0.174000
     22 H5          3.5350   -1.8150    2.0540 h1        1 1SF      0.064200
     23 H6          4.2630   -0.3500    2.8670 h1        1 1SF      0.064200
     24 H7          5.4490   -2.1090    0.6060 hc        1 1SF      0.097700
     25 H8          6.1200   -1.7140    2.2470 hc        1 1SF      0.097700
     26 H9          6.0380    1.6370   -0.2410 hn        1 1SF      0.355500
@<TRIPOS>BOND
     1    1    2 ar  
     2    1    6 ar  
     3    1   18 1   
     4    2    3 ar  
     5    2   19 1   
     6    3    4 ar  
     7    3   10 1   
     8    4    5 ar  
     9    4   20 1   
    10    5    6 ar  
    11    5    7 1   
    12    6   21 1   
    13    7    8 1   
    14    7    9 1   
    15   10   11 1   
    16   10   16 1   
    17   11   12 1   
    18   11   22 1   
    19   11   23 1   
    20   12   13 1   
    21   12   24 1   
    22   12   25 1   
    23   13   14 2   
    24   13   15 1   
    25   15   16 1   
    26   15   26 1   
    27   16   17 2   
@<TRIPOS>SUBSTRUCTURE
     1 1SF         1 TEMP              0 ****  ****    0 ROOT
