@<TRIPOS>MOLECULE
1SG
   53    56     1     0     0
SMALL
bcc


@<TRIPOS>ATOM
      1 C1          0.0250    0.0080   -0.1870 c3        1 1SG      0.111700
      2 O2          1.4350   -0.1660   -0.1120 os        1 1SG     -0.319900
      3 C3          2.0030   -0.0320    1.1400 ca        1 1SG      0.123100
      4 C4          3.4030   -0.1790    1.1640 ca        1 1SG     -0.106000
      5 C5          4.0870   -0.0460    2.3740 ca        1 1SG     -0.001800
      6 C6          3.3680    0.2130    3.5540 ca        1 1SG     -0.118000
      7 C7          1.9810    0.3450    3.5150 ca        1 1SG     -0.111600
      8 C8          1.2820    0.2310    2.3090 ca        1 1SG     -0.183000
      9 C9          1.2720    0.6460    4.7980 c         1 1SG      0.678700
     10 O10         1.7170    1.4960    5.5910 o         1 1SG     -0.586100
     11 N11         0.1160   -0.0840    5.0300 n         1 1SG     -0.463100
     12 C12        -0.7070   -0.0300    6.1700 ca        1 1SG      0.039600
     13 C13        -0.6230    0.9890    7.1380 ca        1 1SG     -0.143000
     14 C14        -1.4780    1.0060    8.2340 ca        1 1SG     -0.141000
     15 C15        -2.4540    0.0060    8.4090 ca        1 1SG      0.041600
     16 C16        -2.5380   -1.0190    7.4360 ca        1 1SG     -0.141000
     17 C17        -1.6860   -1.0370    6.3440 ca        1 1SG     -0.143000
     18 N18        -3.3630   -0.0180    9.4820 n         1 1SG     -0.446100
     19 C19        -3.3070    0.7520   10.6280 c         1 1SG      0.577600
     20 O20        -2.4560    1.6420   10.8210 o         1 1SG     -0.594100
     21 C21        -4.3700    0.5190   11.6800 ca        1 1SG      0.349800
     22 C22        -4.5700    1.5580   12.6130 ca        1 1SG     -0.186300
     23 C23        -5.5270    1.3820   13.6170 ca        1 1SG     -0.102000
     24 C24        -6.2460    0.1900   13.6630 ca        1 1SG     -0.223300
     25 C25        -5.9760   -0.7930   12.6900 ca        1 1SG      0.392200
     26 N26        -5.0650   -0.6450   11.7160 nb        1 1SG     -0.661000
     27 C27         5.5390   -0.1470    2.4270 cc        1 1SG     -0.215400
     28 C28         6.2700    0.6530    3.2670 cd        1 1SG      0.064600
     29 N29         7.6390    0.5720    3.3530 n         1 1SG     -0.465100
     30 C30         8.3640   -0.3560    2.5680 c         1 1SG      0.801500
     31 O31         9.6070   -0.4200    2.6640 o         1 1SG     -0.630500
     32 N32         7.6400   -1.1800    1.6980 n         1 1SG     -0.584500
     33 C33         6.2390   -1.1230    1.5670 c         1 1SG      0.724700
     34 O34         5.7050   -1.8880    0.7480 o         1 1SG     -0.603500
     35 H1         -0.1940   -0.1300   -1.2770 h1        1 1SG      0.046700
     36 H2         -0.5010   -0.7670    0.4210 h1        1 1SG      0.046700
     37 H3         -0.2660    1.0340    0.1460 h1        1 1SG      0.046700
     38 H4          3.9390   -0.4130    0.2300 ha        1 1SG      0.177000
     39 H5          3.8910    0.3120    4.5180 ha        1 1SG      0.148000
     40 H6          0.1920    0.3650    2.2820 ha        1 1SG      0.145000
     41 H7         -0.1040   -0.8020    4.3750 hn        1 1SG      0.318500
     42 H8          0.1300    1.7910    7.0450 ha        1 1SG      0.151500
     43 H9         -1.3710    1.8230    8.9690 ha        1 1SG      0.154500
     44 H10        -3.2850   -1.8230    7.5350 ha        1 1SG      0.154500
     45 H11        -1.7850   -1.8540    5.6130 ha        1 1SG      0.151500
     46 H12        -4.0400   -0.7500    9.4450 hn        1 1SG      0.335500
     47 H13        -3.9670    2.4770   12.5440 ha        1 1SG      0.173000
     48 H14        -5.7040    2.1760   14.3580 ha        1 1SG      0.147000
     49 H15        -7.0060    0.0110   14.4360 ha        1 1SG      0.149000
     50 H16        -6.5200   -1.7550   12.6910 h4        1 1SG      0.027100
     51 H17         5.7900    1.4100    3.9190 h4        1 1SG      0.176000
     52 H18         8.1590    1.1620    3.9620 hn        1 1SG      0.359500
     53 H19         8.1590   -1.8310    1.1470 hn        1 1SG      0.356500
@<TRIPOS>BOND
     1    1    2 1   
     2    1   35 1   
     3    1   36 1   
     4    1   37 1   
     5    2    3 1   
     6    3    4 ar  
     7    3    8 ar  
     8    4    5 ar  
     9    4   38 1   
    10    5    6 ar  
    11    5   27 1   
    12    6    7 ar  
    13    6   39 1   
    14    7    8 ar  
    15    7    9 1   
    16    8   40 1   
    17    9   10 2   
    18    9   11 1   
    19   11   12 1   
    20   11   41 1   
    21   12   13 ar  
    22   12   17 ar  
    23   13   14 ar  
    24   13   42 1   
    25   14   15 ar  
    26   14   43 1   
    27   15   16 ar  
    28   15   18 1   
    29   16   17 ar  
    30   16   44 1   
    31   17   45 1   
    32   18   19 1   
    33   18   46 1   
    34   19   20 2   
    35   19   21 1   
    36   21   22 ar  
    37   21   26 ar  
    38   22   23 ar  
    39   22   47 1   
    40   23   24 ar  
    41   23   48 1   
    42   24   25 ar  
    43   24   49 1   
    44   25   26 ar  
    45   25   50 1   
    46   27   28 2   
    47   27   33 1   
    48   28   29 1   
    49   28   51 1   
    50   29   30 1   
    51   29   52 1   
    52   30   31 2   
    53   30   32 1   
    54   32   33 1   
    55   32   53 1   
    56   33   34 2   
@<TRIPOS>SUBSTRUCTURE
     1 1SG         1 TEMP              0 ****  ****    0 ROOT
