@<TRIPOS>MOLECULE
1SG
   53    56     1     0     0
SMALL
bcc


@<TRIPOS>ATOM
      1 C1          0.0220   -0.0330   -0.1860 c3        1 1SG      0.111700
      2 O2          1.4330   -0.1990   -0.1110 os        1 1SG     -0.319900
      3 C3          2.0010   -0.0530    1.1400 ca        1 1SG      0.123100
      4 C4          3.4020   -0.1930    1.1640 ca        1 1SG     -0.106000
      5 C5          4.0860   -0.0480    2.3730 ca        1 1SG     -0.001800
      6 C6          3.3660    0.2140    3.5520 ca        1 1SG     -0.118000
      7 C7          1.9790    0.3390    3.5130 ca        1 1SG     -0.111600
      8 C8          1.2790    0.2130    2.3080 ca        1 1SG     -0.183000
      9 C9          1.2680    0.6430    4.7950 c         1 1SG      0.678700
     10 O10         1.7100    1.5010    5.5810 o         1 1SG     -0.586100
     11 N11         0.1160   -0.0910    5.0320 ns        1 1SG     -0.463100
     12 C12        -0.7060   -0.0340    6.1710 ca        1 1SG      0.039600
     13 C13        -0.6270    0.9910    7.1330 ca        1 1SG     -0.143000
     14 C14        -1.4810    1.0110    8.2300 ca        1 1SG     -0.141000
     15 C15        -2.4520    0.0070    8.4110 ca        1 1SG      0.041600
     16 C16        -2.5320   -1.0250    7.4440 ca        1 1SG     -0.141000
     17 C17        -1.6800   -1.0450    6.3520 ca        1 1SG     -0.143000
     18 N18        -3.3610   -0.0150    9.4840 ns        1 1SG     -0.446100
     19 C19        -3.3070    0.7610   10.6260 c         1 1SG      0.577600
     20 O20        -2.4590    1.6540   10.8150 o         1 1SG     -0.594100
     21 C21        -4.3690    0.5290   11.6800 ca        1 1SG      0.349800
     22 C22        -4.5720    1.5720   12.6080 ca        1 1SG     -0.186300
     23 C23        -5.5280    1.3980   13.6130 ca        1 1SG     -0.102000
     24 C24        -6.2420    0.2030   13.6660 ca        1 1SG     -0.223300
     25 C25        -5.9690   -0.7840   12.6980 ca        1 1SG      0.392200
     26 N26        -5.0590   -0.6380   11.7230 nb        1 1SG     -0.661000
     27 C27         5.5380   -0.1400    2.4260 cc        1 1SG     -0.215400
     28 C28         6.2650    0.6690    3.2600 cd        1 1SG      0.064600
     29 N29         7.6350    0.5970    3.3450 ns        1 1SG     -0.465100
     30 C30         8.3640   -0.3320    2.5660 c         1 1SG      0.801500
     31 O31         9.6080   -0.3880    2.6620 o         1 1SG     -0.630500
     32 N32         7.6450   -1.1660    1.7020 ns        1 1SG     -0.584500
     33 C33         6.2430   -1.1170    1.5720 c         1 1SG      0.724700
     34 O34         5.7130   -1.8910    0.7580 o         1 1SG     -0.603500
     35 H1         -0.1960   -0.1800   -1.2750 h1        1 1SG      0.046700
     36 H2         -0.5000   -0.8070    0.4270 h1        1 1SG      0.046700
     37 H3         -0.2740    0.9930    0.1410 h1        1 1SG      0.046700
     38 H4          3.9390   -0.4300    0.2310 ha        1 1SG      0.177000
     39 H5          3.8890    0.3230    4.5150 ha        1 1SG      0.148000
     40 H6          0.1880    0.3410    2.2810 ha        1 1SG      0.145000
     41 H7         -0.1010   -0.8140    4.3810 hn        1 1SG      0.318500
     42 H8          0.1210    1.7960    7.0350 ha        1 1SG      0.151500
     43 H9         -1.3790    1.8320    8.9590 ha        1 1SG      0.154500
     44 H10        -3.2750   -1.8320    7.5480 ha        1 1SG      0.154500
     45 H11        -1.7750   -1.8670    5.6260 ha        1 1SG      0.151500
     46 H12        -4.0350   -0.7500    9.4510 hn        1 1SG      0.335500
     47 H13        -3.9730    2.4930   12.5340 ha        1 1SG      0.173000
     48 H14        -5.7070    2.1940   14.3500 ha        1 1SG      0.147000
     49 H15        -7.0010    0.0240   14.4400 ha        1 1SG      0.149000
     50 H16        -6.5090   -1.7480   12.7050 h4        1 1SG      0.027100
     51 H17         5.7810    1.4280    3.9080 h4        1 1SG      0.176000
     52 H18         8.1520    1.1940    3.9510 hn        1 1SG      0.359500
     53 H19         8.1670   -1.8170    1.1540 hn        1 1SG      0.356500
@<TRIPOS>BOND
     1    1    2 1   
     2    1   35 1   
     3    1   36 1   
     4    1   37 1   
     5    2    3 1   
     6    3    4 ar  
     7    3    8 ar  
     8    4    5 ar  
     9    4   38 1   
    10    5    6 ar  
    11    5   27 1   
    12    6    7 ar  
    13    6   39 1   
    14    7    8 ar  
    15    7    9 1   
    16    8   40 1   
    17    9   10 2   
    18    9   11 1   
    19   11   12 1   
    20   11   41 1   
    21   12   13 ar  
    22   12   17 ar  
    23   13   14 ar  
    24   13   42 1   
    25   14   15 ar  
    26   14   43 1   
    27   15   16 ar  
    28   15   18 1   
    29   16   17 ar  
    30   16   44 1   
    31   17   45 1   
    32   18   19 1   
    33   18   46 1   
    34   19   20 2   
    35   19   21 1   
    36   21   22 ar  
    37   21   26 ar  
    38   22   23 ar  
    39   22   47 1   
    40   23   24 ar  
    41   23   48 1   
    42   24   25 ar  
    43   24   49 1   
    44   25   26 ar  
    45   25   50 1   
    46   27   28 2   
    47   27   33 1   
    48   28   29 1   
    49   28   51 1   
    50   29   30 1   
    51   29   52 1   
    52   30   31 2   
    53   30   32 1   
    54   32   33 1   
    55   32   53 1   
    56   33   34 2   
@<TRIPOS>SUBSTRUCTURE
     1 1SG         1 TEMP              0 ****  ****    0 ROOT
