@<TRIPOS>MOLECULE
1SG
   53    56     1     0     0
SMALL
bcc


@<TRIPOS>ATOM
      1 C1          0.0250   -0.0220   -0.1870 c3        1 1SG      0.111700
      2 O2          1.4360   -0.1900   -0.1100 os        1 1SG     -0.319900
      3 C3          2.0030   -0.0470    1.1410 ca        1 1SG      0.123100
      4 C4          3.4040   -0.1890    1.1650 ca        1 1SG     -0.106000
      5 C5          4.0880   -0.0470    2.3740 ca        1 1SG     -0.001800
      6 C6          3.3670    0.2140    3.5540 ca        1 1SG     -0.118000
      7 C7          1.9800    0.3410    3.5140 ca        1 1SG     -0.111600
      8 C8          1.2820    0.2180    2.3090 ca        1 1SG     -0.183000
      9 C9          1.2690    0.6440    4.7960 c         1 1SG      0.678700
     10 O10         1.7120    1.5000    5.5840 o         1 1SG     -0.586100
     11 N11         0.1170   -0.0900    5.0320 n         1 1SG     -0.463100
     12 C12        -0.7060   -0.0340    6.1700 ca        1 1SG      0.039600
     13 C13        -0.6260    0.9890    7.1350 ca        1 1SG     -0.143000
     14 C14        -1.4810    1.0090    8.2310 ca        1 1SG     -0.141000
     15 C15        -2.4540    0.0060    8.4090 ca        1 1SG      0.041600
     16 C16        -2.5340   -1.0240    7.4410 ca        1 1SG     -0.141000
     17 C17        -1.6820   -1.0430    6.3490 ca        1 1SG     -0.143000
     18 N18        -3.3630   -0.0160    9.4820 n         1 1SG     -0.446100
     19 C19        -3.3090    0.7580   10.6250 c         1 1SG      0.577600
     20 O20        -2.4600    1.6500   10.8160 o         1 1SG     -0.594100
     21 C21        -4.3720    0.5260   11.6780 ca        1 1SG      0.349800
     22 C22        -4.5730    1.5670   12.6080 ca        1 1SG     -0.186300
     23 C23        -5.5300    1.3930   13.6120 ca        1 1SG     -0.102000
     24 C24        -6.2470    0.1990   13.6630 ca        1 1SG     -0.223300
     25 C25        -5.9750   -0.7860   12.6920 ca        1 1SG      0.392200
     26 N26        -5.0640   -0.6400   11.7170 nb        1 1SG     -0.661000
     27 C27         5.5400   -0.1410    2.4280 cc        1 1SG     -0.215400
     28 C28         6.2670    0.6660    3.2640 cd        1 1SG      0.064600
     29 N29         7.6370    0.5920    3.3500 n         1 1SG     -0.465100
     30 C30         8.3660   -0.3370    2.5700 c         1 1SG      0.801500
     31 O31         9.6090   -0.3950    2.6660 o         1 1SG     -0.630500
     32 N32         7.6460   -1.1680    1.7030 n         1 1SG     -0.584500
     33 C33         6.2440   -1.1180    1.5730 c         1 1SG      0.724700
     34 O34         5.7140   -1.8890    0.7570 o         1 1SG     -0.603500
     35 H1         -0.1930   -0.1670   -1.2760 h1        1 1SG      0.046700
     36 H2         -0.4980   -0.7970    0.4250 h1        1 1SG      0.046700
     37 H3         -0.2700    1.0040    0.1420 h1        1 1SG      0.046700
     38 H4          3.9410   -0.4250    0.2320 ha        1 1SG      0.177000
     39 H5          3.8900    0.3210    4.5170 ha        1 1SG      0.148000
     40 H6          0.1910    0.3470    2.2810 ha        1 1SG      0.145000
     41 H7         -0.1000   -0.8120    4.3800 hn        1 1SG      0.318500
     42 H8          0.1240    1.7930    7.0390 ha        1 1SG      0.151500
     43 H9         -1.3770    1.8290    8.9620 ha        1 1SG      0.154500
     44 H10        -3.2790   -1.8290    7.5420 ha        1 1SG      0.154500
     45 H11        -1.7780   -1.8630    5.6210 ha        1 1SG      0.151500
     46 H12        -4.0380   -0.7500    9.4480 hn        1 1SG      0.335500
     47 H13        -3.9720    2.4870   12.5360 ha        1 1SG      0.173000
     48 H14        -5.7080    2.1880   14.3510 ha        1 1SG      0.147000
     49 H15        -7.0060    0.0210   14.4360 ha        1 1SG      0.149000
     50 H16        -6.5180   -1.7490   12.6960 h4        1 1SG      0.027100
     51 H17         5.7840    1.4240    3.9130 h4        1 1SG      0.176000
     52 H18         8.1550    1.1870    3.9570 hn        1 1SG      0.359500
     53 H19         8.1670   -1.8190    1.1550 hn        1 1SG      0.356500
@<TRIPOS>BOND
     1    1    2 1   
     2    1   35 1   
     3    1   36 1   
     4    1   37 1   
     5    2    3 1   
     6    3    4 ar  
     7    3    8 ar  
     8    4    5 ar  
     9    4   38 1   
    10    5    6 ar  
    11    5   27 1   
    12    6    7 ar  
    13    6   39 1   
    14    7    8 ar  
    15    7    9 1   
    16    8   40 1   
    17    9   10 2   
    18    9   11 1   
    19   11   12 1   
    20   11   41 1   
    21   12   13 ar  
    22   12   17 ar  
    23   13   14 ar  
    24   13   42 1   
    25   14   15 ar  
    26   14   43 1   
    27   15   16 ar  
    28   15   18 1   
    29   16   17 ar  
    30   16   44 1   
    31   17   45 1   
    32   18   19 1   
    33   18   46 1   
    34   19   20 2   
    35   19   21 1   
    36   21   22 ar  
    37   21   26 ar  
    38   22   23 ar  
    39   22   47 1   
    40   23   24 ar  
    41   23   48 1   
    42   24   25 ar  
    43   24   49 1   
    44   25   26 ar  
    45   25   50 1   
    46   27   28 2   
    47   27   33 1   
    48   28   29 1   
    49   28   51 1   
    50   29   30 1   
    51   29   52 1   
    52   30   31 2   
    53   30   32 1   
    54   32   33 1   
    55   32   53 1   
    56   33   34 2   
@<TRIPOS>SUBSTRUCTURE
     1 1SG         1 TEMP              0 ****  ****    0 ROOT
