@<TRIPOS>MOLECULE
1SH
   17    16     1     0     0
SMALL
bcc


@<TRIPOS>ATOM
      1 O4          0.6170    0.7900    1.1700 o         1 1SH     -0.934167
      2 P1          1.3670    0.3510   -0.0600 p5        1 1SH      1.312900
      3 O1          2.8620    0.2610    0.1060 o         1 1SH     -0.934167
      4 O3          0.7130   -0.6930   -0.9200 o         1 1SH     -0.934167
      5 O2          1.2480    1.7790   -1.0640 os        1 1SH     -0.567200
      6 C1          1.7750    2.8950   -0.4740 c3        1 1SH      0.213400
      7 C2          3.0610    3.3710   -1.1960 c3        1 1SH      0.099800
      8 N1          2.9980    3.4160   -2.6490 n3        1 1SH     -0.819200
      9 C3          2.0010    4.3290   -3.1510 c3        1 1SH      0.157100
     10 H3          2.0280    2.7080    0.6080 h1        1 1SH     -0.018300
     11 H4          1.0260    3.7460   -0.5230 h1        1 1SH     -0.018300
     12 H5          3.8830    2.6470   -0.9320 h1        1 1SH      0.028200
     13 H6          3.3390    4.3940   -0.8210 h1        1 1SH      0.028200
     14 H7          2.7570    2.4830   -2.9550 hn        1 1SH      0.377800
     15 H9          2.0260    4.3120   -4.2730 h1        1 1SH      0.002367
     16 H10         2.2450    5.3700   -2.8080 h1        1 1SH      0.002367
     17 H11         0.9540    4.0900   -2.8170 h1        1 1SH      0.002367
@<TRIPOS>BOND
     1    1    2 1   
     2    2    3 1   
     3    2    4 1   
     4    2    5 1   
     5    5    6 1   
     6    6    7 1   
     7    6   10 1   
     8    6   11 1   
     9    7    8 1   
    10    7   12 1   
    11    7   13 1   
    12    8    9 1   
    13    8   14 1   
    14    9   15 1   
    15    9   16 1   
    16    9   17 1   
@<TRIPOS>SUBSTRUCTURE
     1 1SH         1 TEMP              0 ****  ****    0 ROOT
