@<TRIPOS>MOLECULE
1SH
   17    15     1     0     0
SMALL
bcc


@<TRIPOS>ATOM
      1 O4         -3.5960   -2.1580    1.1420 o         1 1SH     -1.253667
      2 P1         -2.0860   -2.1580    1.1420 p3        1 1SH      2.505000
      3 O1         -1.5830   -2.1580    2.5650 o         1 1SH     -1.253667
      4 O3         -1.5830   -3.3910    0.4300 o         1 1SH     -1.253667
      5 O2         -1.5590   -0.8670    0.3970 o         1 1SH     -0.720000
      6 C1         -0.1680   -0.6670    0.3030 c3        1 1SH      0.071000
      7 C2          0.1070    0.6070   -0.4650 c3        1 1SH     -0.147000
      8 N1          1.5110    0.8420   -0.5070 n3        1 1SH     -0.307000
      9 C3          1.7550    2.2110   -0.8210 c3        1 1SH     -0.117000
     10 H3          0.2380   -1.4220   -0.1630 h1        1 1SH      0.017000
     11 H4          0.2120   -0.5950    1.1990 h1        1 1SH      0.017000
     12 H5         -0.2350    0.5190   -1.3750 h1        1 1SH      0.089000
     13 H6         -0.3350    1.3560   -0.0220 h1        1 1SH      0.089000
     14 H7          1.8900    0.3110   -1.1450 hn        1 1SH      0.139000
     15 H9          1.2780    2.4470   -1.6400 h1        1 1SH      0.041667
     16 H10         1.4410    2.7740   -0.0880 h1        1 1SH      0.041667
     17 H11         2.7120    2.3490   -0.9510 h1        1 1SH      0.041667
@<TRIPOS>BOND
     1    1    2 1   
     2    2    3 1   
     3    2    4 1   
     4    5    6 1   
     5    6    7 1   
     6    6   10 1   
     7    6   11 1   
     8    7    8 1   
     9    7   12 1   
    10    7   13 1   
    11    8    9 1   
    12    8   14 1   
    13    9   15 1   
    14    9   16 1   
    15    9   17 1   
@<TRIPOS>SUBSTRUCTURE
     1 1SH         1 TEMP              0 ****  ****    0 ROOT
