@<TRIPOS>MOLECULE
1SH
   17    16     1     0     0
SMALL
bcc


@<TRIPOS>ATOM
      1 O4          1.4760    1.3610    1.3750 o         1 1SH     -0.934167
      2 P1          1.2370    0.1550    0.5050 p5        1 1SH      1.312900
      3 O1          1.2850    0.4210   -0.9770 o         1 1SH     -0.934167
      4 O3          1.8070   -1.1510    0.9820 o         1 1SH     -0.934167
      5 O2         -0.4810   -0.0940    0.7250 os        1 1SH     -0.567200
      6 C1         -1.2300    0.9930    0.3660 c3        1 1SH      0.213400
      7 C2         -2.0800    0.7090   -0.8990 c3        1 1SH      0.099800
      8 N1         -2.7890   -0.5610   -0.9210 n3        1 1SH     -0.819200
      9 C3         -3.7560   -0.6940    0.1420 c3        1 1SH      0.157100
     10 H3         -1.9500    1.2570    1.2030 h1        1 1SH     -0.018300
     11 H4         -0.5820    1.8900    0.1600 h1        1 1SH     -0.018300
     12 H5         -2.8290    1.5370   -1.0350 h1        1 1SH      0.028200
     13 H6         -1.3780    0.7010   -1.7810 h1        1 1SH      0.028200
     14 H7         -2.0900   -1.2820   -0.8070 hn        1 1SH      0.377800
     15 H9         -3.3130   -0.6210    1.1730 h1        1 1SH      0.002367
     16 H10        -4.5330    0.1090    0.0400 h1        1 1SH      0.002367
     17 H11        -4.2630   -1.6910    0.0460 h1        1 1SH      0.002367
@<TRIPOS>BOND
     1    1    2 1   
     2    2    3 1   
     3    2    4 1   
     4    2    5 1   
     5    5    6 1   
     6    6    7 1   
     7    6   10 1   
     8    6   11 1   
     9    7    8 1   
    10    7   12 1   
    11    7   13 1   
    12    8    9 1   
    13    8   14 1   
    14    9   15 1   
    15    9   16 1   
    16    9   17 1   
@<TRIPOS>SUBSTRUCTURE
     1 1SH         1 TEMP              0 ****  ****    0 ROOT
