@<TRIPOS>MOLECULE
1SJ
   51    51     1     0     0
SMALL
bcc


@<TRIPOS>ATOM
      1 CAA        -0.0410    0.0240    0.1970 c3        1 1SJ     -0.097600
      2 CAJ         1.4390    0.2910    0.1250 c3        1 1SJ     -0.105400
      3 CAT         2.1180    0.1100    1.4790 c3        1 1SJ      0.142100
      4 CAK         3.6340    0.0440    1.3470 c3        1 1SJ     -0.105400
      5 CAB         4.3190   -0.4240    2.6030 c3        1 1SJ     -0.097600
      6 OAO         1.7830    1.2960    2.2540 os        1 1SJ     -0.469600
      7 CAV         1.4070    1.0500    3.5970 c3        1 1SJ      0.151100
      8 CAL        -0.0690    0.6980    3.7080 c3        1 1SJ     -0.102200
      9 CAS        -0.4180    0.5630    5.1430 ce        1 1SJ     -0.072400
     10 CAR        -1.3920   -0.5210    5.4670 c         1 1SJ      0.615300
     11 OAH        -2.4010   -0.3060    6.3460 oh        1 1SJ     -0.519100
     12 OAG        -1.3350   -1.6490    4.9870 o         1 1SJ     -0.406000
     13 CAI         0.1950    1.2800    6.0950 c2        1 1SJ     -0.250200
     14 CAU         1.2770    2.2920    5.8410 c3        1 1SJ      0.191700
     15 NAM         0.8420    3.6210    6.4220 n4        1 1SJ     -0.829000
     16 CAQ         1.6330    4.0120    7.7260 c2        1 1SJ      0.717100
     17 NAE         2.3550    5.0580    7.7890 n2        1 1SJ     -0.695100
     18 NAD         1.4370    3.0300    8.7270 nh        1 1SJ     -0.885800
     19 CAW         1.6620    2.4110    4.3360 c3        1 1SJ      0.090500
     20 NAN         3.0960    2.8170    4.0990 n4        1 1SJ     -0.706800
     21 CAP         3.3440    4.3120    3.9830 c         1 1SJ      0.608100
     22 OAF         2.7380    5.0060    4.7900 o         1 1SJ     -0.503100
     23 CAC         4.2830    4.7360    2.9130 c3        1 1SJ     -0.198100
     24 H1         -0.5280    0.7030    0.9390 hc        1 1SJ      0.041367
     25 H2         -0.5100    0.1980   -0.8030 hc        1 1SJ      0.041367
     26 H3         -0.2440   -1.0340    0.4970 hc        1 1SJ      0.041367
     27 H4          1.9160   -0.4190   -0.6030 hc        1 1SJ      0.074200
     28 H5          1.6250    1.3330   -0.2440 hc        1 1SJ      0.074200
     29 H6          1.7230   -0.8070    1.9950 h1        1 1SJ      0.074700
     30 H7          3.8780   -0.6700    0.5120 hc        1 1SJ      0.074200
     31 H8          4.0220    1.0510    1.0420 hc        1 1SJ      0.074200
     32 H9          4.1730    0.3090    3.4370 hc        1 1SJ      0.041367
     33 H10         5.4170   -0.5360    2.4260 hc        1 1SJ      0.041367
     34 H11         3.9190   -1.4140    2.9340 hc        1 1SJ      0.041367
     35 H12         2.0390    0.2350    4.0530 h1        1 1SJ      0.088700
     36 H13        -0.2530   -0.2750    3.1600 hc        1 1SJ      0.127700
     37 H14        -0.7110    1.4710    3.2040 hc        1 1SJ      0.127700
     38 H17        -0.0220    1.1080    7.1670 ha        1 1SJ      0.188000
     39 H19         2.1830    1.9460    6.4340 hx        1 1SJ      0.129700
     40 H20        -0.1550    3.5640    6.6680 hn        1 1SJ      0.458300
     41 H21         2.5280    5.6740    7.0240 hn        1 1SJ      0.482400
     42 H22         0.5650    3.1370    9.2150 hn        1 1SJ      0.450300
     43 H23         2.2160    2.9620    9.3610 hn        1 1SJ      0.450300
     44 H24         1.0200    3.1830    3.8100 hx        1 1SJ      0.130700
     45 H25         3.6990    2.4290    4.8340 hn        1 1SJ      0.485800
     46 H26         5.2500    4.1700    2.9560 hc        1 1SJ      0.139367
     47 H27         3.8160    4.5830    1.9020 hc        1 1SJ      0.139367
     48 H28         4.5020    5.8330    3.0390 hc        1 1SJ      0.139367
     49 HAM2        0.9460    4.3690    5.7290 hn        1 1SJ      0.458300
     50 HAD3       -2.4350    0.6230    6.6150 ho        1 1SJ      0.429000
     51 HAN2        3.3790    2.3760    3.1940 hn        1 1SJ      0.485800
@<TRIPOS>BOND
     1    1    2 1   
     2    1   24 1   
     3    1   25 1   
     4    1   26 1   
     5    2    3 1   
     6    2   27 1   
     7    2   28 1   
     8    3    4 1   
     9    3    6 1   
    10    3   29 1   
    11    4    5 1   
    12    4   30 1   
    13    4   31 1   
    14    5   32 1   
    15    5   33 1   
    16    5   34 1   
    17    6    7 1   
    18    7    8 1   
    19    7   19 1   
    20    7   35 1   
    21    8    9 1   
    22    8   36 1   
    23    8   37 1   
    24    9   10 1   
    25    9   13 2   
    26   10   11 1   
    27   10   12 2   
    28   11   50 1   
    29   13   14 1   
    30   13   38 1   
    31   14   15 1   
    32   14   19 1   
    33   14   39 1   
    34   15   16 1   
    35   15   40 1   
    36   15   49 1   
    37   16   17 2   
    38   16   18 1   
    39   17   41 1   
    40   18   42 1   
    41   18   43 1   
    42   19   20 1   
    43   19   44 1   
    44   20   21 1   
    45   20   45 1   
    46   20   51 1   
    47   21   22 2   
    48   21   23 1   
    49   23   46 1   
    50   23   47 1   
    51   23   48 1   
@<TRIPOS>SUBSTRUCTURE
     1 1SJ         1 TEMP              0 ****  ****    0 ROOT
