@<TRIPOS>MOLECULE
1SJ
   51    51     1     0     0
SMALL
bcc


@<TRIPOS>ATOM
      1 CAA        -0.1070    0.0730    0.2060 c3        1 1SJ     -0.097600
      2 CAJ         1.3770    0.3120    0.1220 c3        1 1SJ     -0.105400
      3 CAT         2.0650    0.1130    1.4690 c3        1 1SJ      0.142100
      4 CAK         3.5790    0.0190    1.3220 c3        1 1SJ     -0.105400
      5 CAB         4.2660   -0.4670    2.5690 c3        1 1SJ     -0.097600
      6 OAO         1.7600    1.3020    2.2520 os        1 1SJ     -0.469600
      7 CAV         1.3920    1.0570    3.5970 c3        1 1SJ      0.151100
      8 CAL        -0.0890    0.7320    3.7200 c3        1 1SJ     -0.102200
      9 CAS        -0.4280    0.5980    5.1580 ce        1 1SJ     -0.072400
     10 CAR        -1.4190   -0.4700    5.4860 c         1 1SJ      0.615300
     11 OAH        -2.4160   -0.2390    6.3750 oh        1 1SJ     -0.519100
     12 OAG        -1.3880   -1.5960    5.0010 o         1 1SJ     -0.406000
     13 CAI         0.2070    1.2990    6.1070 c2        1 1SJ     -0.250200
     14 CAU         1.3060    2.2910    5.8470 c3        1 1SJ      0.191700
     15 NAM         0.9020    3.6250    6.4390 ny        1 1SJ     -0.829000
     16 CAQ         1.7130    3.9950    7.7360 c2        1 1SJ      0.717100
     17 NAE         2.4550    5.0280    7.7970 n2        1 1SJ     -0.695100
     18 NAD         1.5080    3.0120    8.7350 nv        1 1SJ     -0.885800
     19 CAW         1.6790    2.4090    4.3390 c3        1 1SJ      0.090500
     20 NAN         3.1180    2.7900    4.0900 ny        1 1SJ     -0.706800
     21 CAP         3.3930    4.2800    3.9780 c         1 1SJ      0.608100
     22 OAF         2.8080    4.9820    4.7950 o         1 1SJ     -0.503100
     23 CAC         4.3290    4.6920    2.9010 c3        1 1SJ     -0.198100
     24 H1         -0.3270   -0.9820    0.5040 hc        1 1SJ      0.041367
     25 H2         -0.5810    0.2600   -0.7890 hc        1 1SJ      0.041367
     26 H3         -0.5740    0.7580    0.9560 hc        1 1SJ      0.041367
     27 H4          1.5790    1.3530   -0.2450 hc        1 1SJ      0.074200
     28 H5          1.8340   -0.4030   -0.6140 hc        1 1SJ      0.074200
     29 H6          1.6580   -0.7990    1.9850 h1        1 1SJ      0.074700
     30 H7          3.9830    1.0200    1.0170 hc        1 1SJ      0.074200
     31 H8          3.8010   -0.6960    0.4820 hc        1 1SJ      0.074200
     32 H9          3.8510   -1.4500    2.9000 hc        1 1SJ      0.041367
     33 H10         5.3610   -0.5990    2.3810 hc        1 1SJ      0.041367
     34 H11         4.1420    0.2650    3.4070 hc        1 1SJ      0.041367
     35 H12         2.0130    0.2290    4.0440 h1        1 1SJ      0.088700
     36 H13        -0.7210    1.5190    3.2250 hc        1 1SJ      0.127700
     37 H14        -0.2970   -0.2350    3.1700 hc        1 1SJ      0.127700
     38 H17        -0.0030    1.1260    7.1800 ha        1 1SJ      0.188000
     39 H19         2.2120    1.9250    6.4300 hx        1 1SJ      0.129700
     40 H20        -0.0930    3.5860    6.6930 hn        1 1SJ      0.458300
     41 H21         2.6320    5.6430    7.0330 hn        1 1SJ      0.482400
     42 H22        -2.4300    0.6890    6.6480 ho        1 1SJ      0.429000
     43 H23         2.2920    2.9270    9.3610 hn        1 1SJ      0.450300
     44 H24         1.0460    3.1950    3.8220 hx        1 1SJ      0.130700
     45 H25         3.7200    2.3880    4.8180 hn        1 1SJ      0.485800
     46 H26         5.2860    4.1070    2.9320 hc        1 1SJ      0.139367
     47 H27         4.5700    5.7840    3.0290 hc        1 1SJ      0.139367
     48 H28         3.8490    4.5510    1.8940 hc        1 1SJ      0.139367
     49 HAM2        1.0130    4.3750    5.7480 hn        1 1SJ      0.458300
     50 HAD3        0.6440    3.1330    9.2310 hn        1 1SJ      0.450300
     51 HAN2        3.3850    2.3470    3.1810 hn        1 1SJ      0.485800
@<TRIPOS>BOND
     1    1    2 1   
     2    1   24 1   
     3    1   25 1   
     4    1   26 1   
     5    2    3 1   
     6    2   27 1   
     7    2   28 1   
     8    3    4 1   
     9    3    6 1   
    10    3   29 1   
    11    4    5 1   
    12    4   30 1   
    13    4   31 1   
    14    5   32 1   
    15    5   33 1   
    16    5   34 1   
    17    6    7 1   
    18    7    8 1   
    19    7   19 1   
    20    7   35 1   
    21    8    9 1   
    22    8   36 1   
    23    8   37 1   
    24    9   10 1   
    25    9   13 2   
    26   10   11 1   
    27   10   12 2   
    28   11   42 1   
    29   13   14 1   
    30   13   38 1   
    31   14   15 1   
    32   14   19 1   
    33   14   39 1   
    34   15   16 1   
    35   15   40 1   
    36   15   49 1   
    37   16   17 2   
    38   16   18 1   
    39   17   41 1   
    40   18   43 1   
    41   18   50 1   
    42   19   20 1   
    43   19   44 1   
    44   20   21 1   
    45   20   45 1   
    46   20   51 1   
    47   21   22 2   
    48   21   23 1   
    49   23   46 1   
    50   23   47 1   
    51   23   48 1   
@<TRIPOS>SUBSTRUCTURE
     1 1SJ         1 TEMP              0 ****  ****    0 ROOT
