@<TRIPOS>MOLECULE
1SJ
   48    48     1     0     0
SMALL
bcc


@<TRIPOS>ATOM
      1 CAA         4.2700    0.8660    1.3730 c3        1 1SJ     -0.096100
      2 CAJ         4.3510   -0.4360    0.6200 c3        1 1SJ     -0.091900
      3 CAT         3.2820   -0.5260   -0.4700 c3        1 1SJ      0.141100
      4 CAK         3.6460   -1.6150   -1.4800 c3        1 1SJ     -0.091900
      5 CAB         2.7580   -1.5960   -2.6950 c3        1 1SJ     -0.096100
      6 OAO         2.0550   -0.8800    0.1770 os        1 1SJ     -0.434600
      7 CAV         0.9250   -0.1130   -0.2550 c3        1 1SJ      0.126100
      8 CAL         0.9270    1.2730    0.3800 c3        1 1SJ     -0.072200
      9 CAS        -0.3380    1.9880    0.0870 ce        1 1SJ     -0.132400
     10 CAR        -0.2900    3.5080    0.2050 c         1 1SJ      0.905800
     11 OAH         0.8310    4.0690    0.0510 o         1 1SJ     -0.826800
     12 OAG        -1.3700    4.1150    0.4470 o         1 1SJ     -0.826800
     13 CAI        -1.4550    1.3500   -0.2820 c2        1 1SJ     -0.264200
     14 CAU        -1.5740   -0.1330   -0.4740 c3        1 1SJ      0.215700
     15 NAM        -2.8280   -0.7370   -0.0280 nh        1 1SJ     -0.828200
     16 CAQ        -4.0120    0.0700   -0.3020 c2        1 1SJ      0.745100
     17 NAE        -4.6910   -0.0250   -1.4160 n2        1 1SJ     -0.863100
     18 NAD        -4.4960    0.8970    0.7620 nh        1 1SJ     -0.903800
     19 CAW        -0.3550   -0.8600    0.2030 c3        1 1SJ      0.099700
     20 NAN        -0.3280   -2.2730   -0.0910 n         1 1SJ     -0.545900
     21 CAP        -0.9050   -3.2070    0.7410 c         1 1SJ      0.663100
     22 OAF        -1.5800   -2.8780    1.7400 o         1 1SJ     -0.626100
     23 CAC        -0.7150   -4.6620    0.3790 c3        1 1SJ     -0.173100
     24 H1          3.2490    0.9960    1.8110 hc        1 1SJ      0.036700
     25 H2          5.0210    0.8840    2.1990 hc        1 1SJ      0.036700
     26 H3          4.4660    1.7320    0.6950 hc        1 1SJ      0.036700
     27 H4          5.3620   -0.5380    0.1450 hc        1 1SJ      0.039450
     28 H5          4.2160   -1.2950    1.3280 hc        1 1SJ      0.039450
     29 H6          3.1890    0.4650   -0.9960 h1        1 1SJ      0.061700
     30 H7          4.7120   -1.4660   -1.7950 hc        1 1SJ      0.039450
     31 H8          3.5770   -2.6130   -0.9740 hc        1 1SJ      0.039450
     32 H9          1.7030   -1.8320   -2.4120 hc        1 1SJ      0.036700
     33 H10         2.7720   -0.5910   -3.1820 hc        1 1SJ      0.036700
     34 H11         3.1010   -2.3540   -3.4390 hc        1 1SJ      0.036700
     35 H12         0.9370   -0.0290   -1.3780 h1        1 1SJ      0.042700
     36 H13         1.0570    1.1800    1.4920 hc        1 1SJ      0.074700
     37 H14         1.7910    1.8820   -0.0040 hc        1 1SJ      0.074700
     38 H17        -2.3480    1.9510   -0.5230 ha        1 1SJ      0.145000
     39 H19        -1.5260   -0.3290   -1.5910 h1        1 1SJ      0.049700
     40 H20        -2.7780   -1.0040    0.9420 hn        1 1SJ      0.399800
     41 H21        -4.3380   -0.6910   -2.0680 hn        1 1SJ      0.390400
     42 H22        -3.7600    1.4010    1.2170 hn        1 1SJ      0.397300
     43 H23        -5.2390    1.5040    0.4850 hn        1 1SJ      0.397300
     44 H24        -0.4470   -0.7370    1.3250 h1        1 1SJ      0.086700
     45 H25         0.3180   -2.5750   -0.7810 hn        1 1SJ      0.305500
     46 H26         0.3700   -4.9220    0.3460 hc        1 1SJ      0.057033
     47 H27        -1.2180   -5.2920    1.1510 hc        1 1SJ      0.057033
     48 H28        -1.1720   -4.8750   -0.6170 hc        1 1SJ      0.057033
@<TRIPOS>BOND
     1    1    2 1   
     2    1   24 1   
     3    1   25 1   
     4    1   26 1   
     5    2    3 1   
     6    2   27 1   
     7    2   28 1   
     8    3    4 1   
     9    3    6 1   
    10    3   29 1   
    11    4    5 1   
    12    4   30 1   
    13    4   31 1   
    14    5   32 1   
    15    5   33 1   
    16    5   34 1   
    17    6    7 1   
    18    7    8 1   
    19    7   19 1   
    20    7   35 1   
    21    8    9 1   
    22    8   36 1   
    23    8   37 1   
    24    9   10 1   
    25    9   13 2   
    26   10   11 1   
    27   10   12 1   
    28   13   14 1   
    29   13   38 1   
    30   14   15 1   
    31   14   19 1   
    32   14   39 1   
    33   15   16 1   
    34   15   40 1   
    35   16   17 2   
    36   16   18 1   
    37   17   41 1   
    38   18   42 1   
    39   18   43 1   
    40   19   20 1   
    41   19   44 1   
    42   20   21 1   
    43   20   45 1   
    44   21   22 2   
    45   21   23 1   
    46   23   46 1   
    47   23   47 1   
    48   23   48 1   
@<TRIPOS>SUBSTRUCTURE
     1 1SJ         1 TEMP              0 ****  ****    0 ROOT
