@<TRIPOS>MOLECULE
1SJ
   48    45     1     0     0
SMALL
bcc


@<TRIPOS>ATOM
      1 CAA        -4.0110    1.5000   -1.7770 c3        1 1SJ     -0.212000
      2 CAJ        -2.4910    1.5350   -1.6750 c3        1 1SJ     -0.169500
      3 CAT        -2.0800    1.5850   -0.1980 c3        1 1SJ      0.028000
      4 CAK        -2.4230    2.9860    0.3870 c3        1 1SJ     -0.169500
      5 CAB        -3.4390    2.8300    1.5410 c3        1 1SJ     -0.212000
      6 OAO        -0.6480    1.3490   -0.0860 os        1 1SJ     -0.291000
      7 CAV        -0.2760   -0.1120    0.0770 c3        1 1SJ      0.015000
      8 CAL        -0.9640   -0.6740    1.5280 c3        1 1SJ     -0.153000
      9 CAS        -0.4990   -2.0530    1.8670 c2        1 1SJ     -0.108000
     10 CAR        -1.1760   -2.8290    3.0010 c2        1 1SJ      0.356000
     11 OAH        -1.9870   -3.7490    2.7340 o         1 1SJ     -0.562000
     12 OAG        -0.8690   -2.5820    4.2140 o         1 1SJ     -0.562000
     13 CAI         1.1200   -2.4370    1.4110 c1        1 1SJ     -0.259000
     14 CAU         1.6240   -1.7790    0.1910 c2        1 1SJ      0.014000
     15 NAM         3.0530   -1.7820    0.1450 n3        1 1SJ     -0.312000
     16 CAQ         3.7640   -3.0070    0.2860 c1        1 1SJ      0.154000
     17 NAE         3.4370   -4.0430   -0.4510 n1        1 1SJ     -0.332000
     18 NAD         4.8260   -3.1090    1.2250 n2        1 1SJ     -0.342000
     19 CAW         0.9900   -0.2100   -0.0070 c3        1 1SJ      0.024000
     20 NAN         1.4150    0.3010   -1.3670 n         1 1SJ     -0.355000
     21 CAP         2.4540    1.3020   -1.4680 c2        1 1SJ      0.308000
     22 OAF         2.9800    1.7280   -0.4680 o         1 1SJ     -0.386000
     23 CAC         2.9110    1.7910   -2.8370 c3        1 1SJ     -0.241000
     24 H1         -4.3660    0.8690   -1.1200 hc        1 1SJ      0.075000
     25 H2         -4.2750    1.2110   -2.6900 hc        1 1SJ      0.075000
     26 H3         -4.3660    2.3840   -1.6020 hc        1 1SJ      0.075000
     27 H4         -2.1530    2.3270   -2.1340 hc        1 1SJ      0.079750
     28 H5         -2.1190    0.7350   -2.0890 hc        1 1SJ      0.079750
     29 H6         -2.5600    0.9020    0.2950 h1        1 1SJ      0.101000
     30 H7         -1.6080    3.4060    0.7250 hc        1 1SJ      0.079750
     31 H8         -2.8090    3.5410   -0.3100 hc        1 1SJ      0.079750
     32 H9         -2.9680    2.5610    2.3570 hc        1 1SJ      0.075000
     33 H10        -3.8930    3.6840    1.6930 hc        1 1SJ      0.075000
     34 H11        -4.1000    2.1460    1.3040 hc        1 1SJ      0.075000
     35 H12        -0.6730   -0.6170   -0.6680 h1        1 1SJ      0.080000
     36 H13        -0.9150   -0.1450    2.3530 hc        1 1SJ      0.114000
     37 H14        -1.9210   -0.6420    1.3610 hc        1 1SJ      0.114000
     38 H17         1.5340   -3.2700    1.7260 ha        1 1SJ      0.145000
     39 H19         1.4140   -2.3270   -0.5960 h4        1 1SJ      0.088000
     40 H20         3.5020   -1.0150   -0.0430 hn        1 1SJ      0.196000
     41 H21         2.7450   -3.9760   -1.0610 DU        1 1SJ      0.146000
     42 H22         5.1770   -3.9380    1.4390 hn        1 1SJ      0.191500
     43 H23         5.1570   -2.3490    1.6310 hn        1 1SJ      0.191500
     44 H24         1.3830    0.3620    0.6690 h1        1 1SJ      0.128000
     45 H25         1.0800   -0.0830   -2.1220 hn        1 1SJ      0.218000
     46 H26         3.6870    2.3770   -2.7320 hc        1 1SJ      0.096333
     47 H27         2.1810    2.2880   -3.2680 hc        1 1SJ      0.096333
     48 H28         3.1540    1.0270   -3.3900 hc        1 1SJ      0.096333
@<TRIPOS>BOND
     1    1    2 1   
     2    1   24 1   
     3    1   25 1   
     4    1   26 1   
     5    2    3 1   
     6    2   27 1   
     7    2   28 1   
     8    3    4 1   
     9    3    6 1   
    10    3   29 1   
    11    4    5 1   
    12    4   30 1   
    13    4   31 1   
    14    5   32 1   
    15    5   33 1   
    16    5   34 1   
    17    6    7 1   
    18    7    8 1   
    19    7   19 1   
    20    7   35 1   
    21    8    9 1   
    22    8   36 1   
    23    8   37 1   
    24    9   10 1   
    25    9   13 1   
    26   10   11 1   
    27   10   12 1   
    28   13   38 1   
    29   14   15 1   
    30   14   19 1   
    31   14   39 1   
    32   15   16 1   
    33   15   40 1   
    34   16   17 1   
    35   18   42 1   
    36   18   43 1   
    37   19   20 1   
    38   19   44 1   
    39   20   21 1   
    40   20   45 1   
    41   21   22 1   
    42   21   23 1   
    43   23   46 1   
    44   23   47 1   
    45   23   48 1   
@<TRIPOS>SUBSTRUCTURE
     1 1SJ         1 TEMP              0 ****  ****    0 ROOT
