@<TRIPOS>MOLECULE
1SJ
   51    51     1     0     0
SMALL
bcc


@<TRIPOS>ATOM
      1 CAA        -0.0690    0.0170    0.2120 c3        1 1SJ     -0.097600
      2 CAJ         1.4120    0.2770    0.1320 c3        1 1SJ     -0.105400
      3 CAT         2.0970    0.0990    1.4840 c3        1 1SJ      0.142100
      4 CAK         3.6120    0.0260    1.3430 c3        1 1SJ     -0.105400
      5 CAB         4.3010   -0.4390    2.5980 c3        1 1SJ     -0.097600
      6 OAO         1.7710    1.2900    2.2550 os        1 1SJ     -0.469600
      7 CAV         1.4010    1.0510    3.6010 c3        1 1SJ      0.151100
      8 CAL        -0.0760    0.7060    3.7210 c3        1 1SJ     -0.102200
      9 CAS        -0.4180    0.5800    5.1580 ce        1 1SJ     -0.072400
     10 CAR        -1.3950   -0.4990    5.4920 c         1 1SJ      0.615300
     11 OAH        -2.4000   -0.2740    6.3750 oh        1 1SJ     -0.519100
     12 OAG        -1.3470   -1.6280    5.0170 o         1 1SJ     -0.406000
     13 CAI         0.2030    1.2970    6.1040 c2        1 1SJ     -0.250200
     14 CAU         1.2890    2.3030    5.8400 c3        1 1SJ      0.191700
     15 NAM         0.8650    3.6360    6.4200 n4        1 1SJ     -0.829000
     16 CAQ         1.6660    4.0270    7.7170 c2        1 1SJ      0.717100
     17 NAE         2.3930    5.0710    7.7720 n2        1 1SJ     -0.695100
     18 NAD         1.4720    3.0500    8.7220 nh        1 1SJ     -0.885800
     19 CAW         1.6660    2.4140    4.3320 c3        1 1SJ      0.090500
     20 NAN         3.1000    2.8130    4.0860 n4        1 1SJ     -0.706800
     21 CAP         3.3530    4.3060    3.9620 c         1 1SJ      0.608100
     22 OAF         2.7560    5.0060    4.7700 o         1 1SJ     -0.503100
     23 CAC         4.2870    4.7220    2.8840 c3        1 1SJ     -0.198100
     24 H1         -0.2750   -1.0380    0.5180 hc        1 1SJ      0.041367
     25 H2         -0.5490    0.7010    0.9540 hc        1 1SJ      0.041367
     26 H3         -0.5420    0.1890   -0.7860 hc        1 1SJ      0.041367
     27 H4          1.8820   -0.4380   -0.5950 hc        1 1SJ      0.074200
     28 H5          1.6000    1.3170   -0.2430 hc        1 1SJ      0.074200
     29 H6          1.7000   -0.8140    2.0060 h1        1 1SJ      0.074700
     30 H7          3.8480   -0.6930    0.5110 hc        1 1SJ      0.074200
     31 H8          4.0030    1.0300    1.0320 hc        1 1SJ      0.074200
     32 H9          4.1630    0.2980    3.4290 hc        1 1SJ      0.041367
     33 H10         3.8990   -1.4260    2.9360 hc        1 1SJ      0.041367
     34 H11         5.3980   -0.5580    2.4160 hc        1 1SJ      0.041367
     35 H12         2.0320    0.2360    4.0570 h1        1 1SJ      0.088700
     36 H13        -0.7170    1.4800    3.2170 hc        1 1SJ      0.127700
     37 H14        -0.2670   -0.2680    3.1780 hc        1 1SJ      0.127700
     38 H17        -0.0090    1.1310    7.1780 ha        1 1SJ      0.188000
     39 H19         2.1970    1.9540    6.4290 hx        1 1SJ      0.129700
     40 H20         0.9680    4.3810    5.7230 hn        1 1SJ      0.458300
     41 H21         2.5640    5.6830    7.0030 hn        1 1SJ      0.482400
     42 H22        -2.4280    0.6560    6.6390 ho        1 1SJ      0.429000
     43 H23         0.6040    3.1620    9.2150 hn        1 1SJ      0.450300
     44 H24         1.0240    3.1860    3.8070 hx        1 1SJ      0.130700
     45 H25         3.3770    2.3660    3.1820 hn        1 1SJ      0.485800
     46 H26         3.8120    4.5660    1.8760 hc        1 1SJ      0.139367
     47 H27         5.2520    4.1530    2.9230 hc        1 1SJ      0.139367
     48 H28         4.5110    5.8190    3.0020 hc        1 1SJ      0.139367
     49 HAM2       -0.1310    3.5840    6.6710 hn        1 1SJ      0.458300
     50 HAD3        2.2550    2.9810    9.3520 hn        1 1SJ      0.450300
     51 HAN2        3.7050    2.4260    4.8200 hn        1 1SJ      0.485800
@<TRIPOS>BOND
     1    1    2 1   
     2    1   24 1   
     3    1   25 1   
     4    1   26 1   
     5    2    3 1   
     6    2   27 1   
     7    2   28 1   
     8    3    4 1   
     9    3    6 1   
    10    3   29 1   
    11    4    5 1   
    12    4   30 1   
    13    4   31 1   
    14    5   32 1   
    15    5   33 1   
    16    5   34 1   
    17    6    7 1   
    18    7    8 1   
    19    7   19 1   
    20    7   35 1   
    21    8    9 1   
    22    8   36 1   
    23    8   37 1   
    24    9   10 1   
    25    9   13 2   
    26   10   11 1   
    27   10   12 2   
    28   11   42 1   
    29   13   14 1   
    30   13   38 1   
    31   14   15 1   
    32   14   19 1   
    33   14   39 1   
    34   15   16 1   
    35   15   40 1   
    36   15   49 1   
    37   16   17 2   
    38   16   18 1   
    39   17   41 1   
    40   18   43 1   
    41   18   50 1   
    42   19   20 1   
    43   19   44 1   
    44   20   21 1   
    45   20   45 1   
    46   20   51 1   
    47   21   22 2   
    48   21   23 1   
    49   23   46 1   
    50   23   47 1   
    51   23   48 1   
@<TRIPOS>SUBSTRUCTURE
     1 1SJ         1 TEMP              0 ****  ****    0 ROOT
