@<TRIPOS>MOLECULE
1SL
   58    59     1     0     0
SMALL
bcc


@<TRIPOS>ATOM
      1 CAA         0.2160   -0.4490   -0.0400 c3        1 1SL     -0.095600
      2 CAK         1.6870   -0.1360    0.0480 c3        1 1SL     -0.097900
      3 CAX         2.1880   -0.1670    1.4900 c3        1 1SL      0.144100
      4 CAL         3.7070   -0.3240    1.5350 c3        1 1SL     -0.097900
      5 CAB         4.2360   -0.4940    2.9340 c3        1 1SL     -0.095600
      6 OAS         1.8420    1.1020    2.0760 os        1 1SL     -0.470600
      7 CAZ         1.2600    1.0090    3.3780 c3        1 1SL      0.131100
      8 CBA         1.3470    2.4320    3.9940 c3        1 1SL      0.095500
      9 NAR         2.7200    3.0210    3.8180 n4        1 1SL     -0.669800
     10 CAT         2.7600    4.5080    3.5470 c         1 1SL      0.570100
     11 CAC         4.0700    5.1630    3.8410 c3        1 1SL     -0.188100
     12 OAD         1.7520    5.0380    3.1080 o         1 1SL     -0.412100
     13 CAO        -0.2110    0.6190    3.3260 c3        1 1SL     -0.084200
     14 CAV        -0.8380    0.7720    4.6580 ce        1 1SL     -0.103400
     15 CAU        -2.1100   -0.0690    4.8990 c         1 1SL      0.913800
     16 OAG        -2.2250   -1.1030    4.1920 o         1 1SL     -0.789800
     17 OAE        -2.9050    0.3490    5.7750 o         1 1SL     -0.789800
     18 CAH        -0.3370    1.5500    5.6240 c2        1 1SL     -0.282200
     19 CAY         0.9320    2.3330    5.4980 c3        1 1SL      0.120200
     20 NBB         0.8440    3.6600    6.1040 na        1 1SL      0.037400
     21 CAI        -0.2840    4.2390    6.6950 cc        1 1SL     -0.161600
     22 NAQ         1.9010    4.5050    6.2220 nc        1 1SL     -0.291800
     23 NAP         1.5490    5.5660    6.8270 nd        1 1SL     -0.331000
     24 CAW         0.1800    5.4860    7.1720 cd        1 1SL      0.256600
     25 CAN        -0.5830    6.5320    7.8780 c3        1 1SL     -0.094700
     26 CAM         0.0350    6.8830    9.2170 c3        1 1SL     -0.081400
     27 CAJ        -0.8300    7.9020    9.9400 c3        1 1SL      0.131400
     28 OAF        -0.1600    8.2280   11.1480 oh        1 1SL     -0.599800
     29 H1         -0.1330   -0.3650   -1.0970 hc        1 1SL      0.038867
     30 H2          0.0060   -1.4850    0.3220 hc        1 1SL      0.038867
     31 H3         -0.3730    0.2640    0.5890 hc        1 1SL      0.038867
     32 H4          2.2710   -0.8850   -0.5490 hc        1 1SL      0.052450
     33 H5          1.8890    0.8790   -0.3850 hc        1 1SL      0.052450
     34 H6          1.6940   -1.0070    2.0540 h1        1 1SL      0.074700
     35 H7          4.1810    0.5700    1.0520 hc        1 1SL      0.052450
     36 H8          3.9810   -1.2240    0.9230 hc        1 1SL      0.052450
     37 H9          4.0560    0.4290    3.5380 hc        1 1SL      0.038867
     38 H10         3.7350   -1.3500    3.4480 hc        1 1SL      0.038867
     39 H11         5.3350   -0.6900    2.9130 hc        1 1SL      0.038867
     40 H12         1.8420    0.2790    4.0060 h1        1 1SL      0.060700
     41 H13         0.6190    3.0980    3.4360 hx        1 1SL      0.145700
     42 H14         3.1510    2.5470    3.0060 hn        1 1SL      0.462300
     43 H15         4.0960    6.1520    3.3140 hc        1 1SL      0.106367
     44 H16         4.9360    4.5450    3.5030 hc        1 1SL      0.106367
     45 H17         4.1540    5.3490    4.9450 hc        1 1SL      0.106367
     46 H18        -0.7560    1.2510    2.5740 hc        1 1SL      0.102200
     47 H19        -0.3200   -0.4530    2.9940 hc        1 1SL      0.102200
     48 H22        -0.8490    1.5940    6.6010 ha        1 1SL      0.178000
     49 H24         1.7460    1.7680    6.0570 h1        1 1SL      0.068700
     50 H25        -1.2630    3.7560    6.7240 h4        1 1SL      0.229000
     51 H26        -1.6350    6.1660    8.0290 hc        1 1SL      0.058700
     52 H27        -0.6340    7.4530    7.2350 hc        1 1SL      0.058700
     53 H28         1.0640    7.3040    9.0740 hc        1 1SL      0.065200
     54 H29         0.1360    5.9660    9.8530 hc        1 1SL      0.065200
     55 H30        -0.9600    8.8260    9.3150 h1        1 1SL      0.021200
     56 H31        -1.8430    7.4720   10.1650 h1        1 1SL      0.021200
     57 H32        -0.7370    8.8340   11.6260 ho        1 1SL      0.401000
     58 HAR2        3.2860    2.8250    4.6490 hn        1 1SL      0.462300
@<TRIPOS>BOND
     1    1    2 1   
     2    1   29 1   
     3    1   30 1   
     4    1   31 1   
     5    2    3 1   
     6    2   32 1   
     7    2   33 1   
     8    3    4 1   
     9    3    6 1   
    10    3   34 1   
    11    4    5 1   
    12    4   35 1   
    13    4   36 1   
    14    5   37 1   
    15    5   38 1   
    16    5   39 1   
    17    6    7 1   
    18    7    8 1   
    19    7   13 1   
    20    7   40 1   
    21    8    9 1   
    22    8   19 1   
    23    8   41 1   
    24    9   10 1   
    25    9   42 1   
    26    9   58 1   
    27   10   11 1   
    28   10   12 2   
    29   11   43 1   
    30   11   44 1   
    31   11   45 1   
    32   13   14 1   
    33   13   46 1   
    34   13   47 1   
    35   14   15 1   
    36   14   18 2   
    37   15   16 1   
    38   15   17 1   
    39   18   19 1   
    40   18   48 1   
    41   19   20 1   
    42   19   49 1   
    43   20   21 1   
    44   20   22 1   
    45   21   24 2   
    46   21   50 1   
    47   22   23 2   
    48   23   24 1   
    49   24   25 1   
    50   25   26 1   
    51   25   51 1   
    52   25   52 1   
    53   26   27 1   
    54   26   53 1   
    55   26   54 1   
    56   27   28 1   
    57   27   55 1   
    58   27   56 1   
    59   28   57 1   
@<TRIPOS>SUBSTRUCTURE
     1 1SL         1 TEMP              0 ****  ****    0 ROOT
