@<TRIPOS>MOLECULE
1SL
   57    54     1     0     0
SMALL
bcc


@<TRIPOS>ATOM
      1 CAA        -3.7270   -3.2890   -0.7820 c3        1 1SL     -0.207000
      2 CAK        -2.3830   -2.7450   -0.3080 c3        1 1SL     -0.179000
      3 CAX        -2.2770   -1.2840   -0.6660 c3        1 1SL      0.040000
      4 CAL        -3.1000   -0.4560    0.3240 c3        1 1SL     -0.179000
      5 CAB        -4.2640    0.1870   -0.4010 c3        1 1SL     -0.207000
      6 OAS        -0.9320   -0.8850   -0.6050 os        1 1SL     -0.277000
      7 CAZ        -0.2900   -0.6180   -1.9960 c3        1 1SL      0.029000
      8 CBA         0.2730    0.4150   -1.9440 c3        1 1SL      0.002000
      9 NAR         0.7960    0.7530   -3.3770 n3        1 1SL     -0.357000
     10 CAT         0.6200    2.1000   -3.9210 c1        1 1SL      0.297000
     11 CAC         1.1220    2.4300   -5.3290 c2        1 1SL     -0.243000
     12 OAD         0.0640    2.9590   -3.2540 o         1 1SL     -0.398000
     13 CAO         0.6610   -1.9510   -2.3950 c3        1 1SL     -0.168000
     14 CAV         1.8710   -2.0570   -1.5530 c2        1 1SL     -0.084000
     15 CAU         2.7220   -3.3480   -1.5740 c2        1 1SL      0.351000
     16 OAG         3.2390   -3.7840   -0.4960 o         1 1SL     -0.557000
     17 OAE         2.9800   -3.9170   -2.6740 o         1 1SL     -0.557000
     18 CAH         2.5590   -0.5860   -1.0220 c1        1 1SL     -0.238000
     19 CAY         1.6280    0.4980   -0.8370 c2        1 1SL      0.069000
     20 NBB         1.1690    0.5760    0.5080 n3        1 1SL     -0.127000
     21 CAI         1.4210    1.5780    1.3670 c1        1 1SL     -0.146000
     22 NAQ         0.5730   -0.4300    1.2040 n2        1 1SL      0.045000
     23 NAP         0.4600   -0.0350    2.5070 n2        1 1SL     -0.120000
     24 CAW         0.9770    1.1940    2.6150 c1        1 1SL     -0.190000
     25 CAN         0.9560    2.0780    3.8810 c2        1 1SL     -0.064000
     26 CAM         2.0850    1.6330    4.8420 c3        1 1SL     -0.160000
     27 CAJ         1.9360    2.3730    6.1880 c3        1 1SL     -0.021000
     28 OAF         3.0830    2.1270    6.9970 oh        1 1SL     -0.328000
     29 H1         -3.9630   -2.8740   -1.6380 hc        1 1SL      0.067167
     30 H2         -4.4200   -3.0800   -0.1130 hc        1 1SL      0.067167
     31 H3         -3.6640   -4.2630   -0.8960 hc        1 1SL      0.067167
     32 H4         -1.6560   -3.2420   -0.7430 hc        1 1SL      0.098500
     33 H5         -2.3130   -2.8490    0.6640 hc        1 1SL      0.098500
     34 H6         -2.6180   -1.1450   -1.5710 h1        1 1SL      0.068000
     35 H7         -3.4370   -1.0360    1.0300 hc        1 1SL      0.098500
     36 H8         -2.5310    0.2460    0.7190 hc        1 1SL      0.098500
     37 H9         -4.1280    0.1130   -1.3670 hc        1 1SL      0.067167
     38 H10        -4.3230    1.1380   -0.1490 hc        1 1SL      0.067167
     39 H11        -5.0920   -0.2660   -0.1530 hc        1 1SL      0.067167
     40 H12        -1.0150   -0.5430   -2.6650 h1        1 1SL      0.081000
     41 H13        -0.3760    1.1020   -1.6830 h1        1 1SL      0.126000
     42 H14         1.2310    0.1160   -3.8670 hn        1 1SL      0.243000
     43 H15         1.1120    3.4120   -5.4620 ha        1 1SL      0.102333
     44 H16         2.0280    2.0980   -5.4350 ha        1 1SL      0.102333
     45 H17         0.5390    2.0050   -5.9910 ha        1 1SL      0.102333
     46 H18         1.0000   -2.0180   -3.3050 hc        1 1SL      0.124500
     47 H19         0.0670   -2.7380   -2.3590 hc        1 1SL      0.124500
     48 H22         3.3630   -0.6220   -0.4570 ha        1 1SL      0.156000
     49 H24         2.0940    1.3560   -0.9220 h4        1 1SL      0.095000
     50 H25         1.8450    2.4290    1.1460 DU        1 1SL      0.185000
     51 H26         1.0930    3.0130    3.6270 ha        1 1SL      0.081000
     52 H27         0.0920    1.9850    4.3280 ha        1 1SL      0.081000
     53 H28         2.0240    0.6570    4.9940 hc        1 1SL      0.105000
     54 H29         2.9590    1.8480    4.4450 hc        1 1SL      0.105000
     55 H30         1.8540    3.3270    6.0260 h1        1 1SL      0.053500
     56 H31         1.1360    2.0510    6.6510 h1        1 1SL      0.053500
     57 H32         2.8790    2.2600    7.8490 ho        1 1SL      0.188000
@<TRIPOS>BOND
     1    1    2 1   
     2    1   29 1   
     3    1   30 1   
     4    1   31 1   
     5    2    3 1   
     6    2   32 1   
     7    2   33 1   
     8    3    4 1   
     9    3    6 1   
    10    3   34 1   
    11    4    5 1   
    12    4   35 1   
    13    4   36 1   
    14    5   37 1   
    15    5   38 1   
    16    5   39 1   
    17    6    7 1   
    18    7    8 1   
    19    7   13 1   
    20    7   40 1   
    21    8    9 1   
    22    8   19 1   
    23    8   41 1   
    24    9   10 1   
    25    9   42 1   
    26   10   12 1   
    27   11   43 1   
    28   11   44 1   
    29   11   45 1   
    30   13   14 1   
    31   13   46 1   
    32   13   47 1   
    33   14   15 1   
    34   14   18 1   
    35   15   16 1   
    36   15   17 1   
    37   18   48 1   
    38   19   20 1   
    39   19   49 1   
    40   20   21 1   
    41   20   22 1   
    42   21   24 1   
    43   22   23 1   
    44   23   24 1   
    45   25   26 1   
    46   25   51 1   
    47   25   52 1   
    48   26   27 1   
    49   26   53 1   
    50   26   54 1   
    51   27   28 1   
    52   27   55 1   
    53   27   56 1   
    54   28   57 1   
@<TRIPOS>SUBSTRUCTURE
     1 1SL         1 TEMP              0 ****  ****    0 ROOT
