@<TRIPOS>MOLECULE
1SL
   57    58     1     0     0
SMALL
bcc


@<TRIPOS>ATOM
      1 CAA         5.4630    0.8650    1.8810 c3        1 1SL     -0.094600
      2 CAK         5.4950   -0.4880    1.2220 c3        1 1SL     -0.091400
      3 CAX         4.5910   -0.5380   -0.0120 c3        1 1SL      0.140100
      4 CAL         4.9850   -1.7130   -0.9080 c3        1 1SL     -0.091400
      5 CAB         4.2650   -1.6980   -2.2300 c3        1 1SL     -0.094600
      6 OAS         3.2540   -0.7370    0.4610 os        1 1SL     -0.418600
      7 CAZ         2.2820    0.0980   -0.1740 c3        1 1SL      0.126100
      8 CBA         0.8820   -0.5260    0.0860 c3        1 1SL      0.092700
      9 NAR         0.7970   -1.9290   -0.2140 n         1 1SL     -0.552900
     10 CAT         0.4720   -2.8900    0.7200 c         1 1SL      0.672100
     11 CAC         0.4190   -4.3210    0.2340 c3        1 1SL     -0.174100
     12 OAD         0.2210   -2.6060    1.9090 o         1 1SL     -0.618100
     13 CAO         2.3120    1.5020    0.4210 c3        1 1SL     -0.080200
     14 CAV         1.1620    2.3170   -0.0340 ce        1 1SL     -0.113400
     15 CAU         1.3240    3.8330    0.0910 c         1 1SL      0.905800
     16 OAG         2.5000    4.2910    0.0530 o         1 1SL     -0.820300
     17 OAE         0.2800    4.5280    0.2170 o         1 1SL     -0.820300
     18 CAH         0.0480    1.7790   -0.5450 c2        1 1SL     -0.260200
     19 CAY        -0.1240    0.3110   -0.7870 c3        1 1SL      0.095200
     20 NBB        -1.5060   -0.1260   -0.5710 na        1 1SL      0.074400
     21 CAI        -2.4300    0.5010    0.2690 cc        1 1SL     -0.191600
     22 NAQ        -2.0620   -1.2340   -1.1140 nc        1 1SL     -0.198800
     23 NAP        -3.2600   -1.3660   -0.7070 nd        1 1SL     -0.372000
     24 CAW        -3.5830   -0.3090    0.1780 cd        1 1SL      0.224600
     25 CAN        -4.8720   -0.1390    0.8690 c3        1 1SL     -0.080700
     26 CAM        -6.0360   -0.0550   -0.0980 c3        1 1SL     -0.080400
     27 CAJ        -7.3260    0.1920    0.6660 c3        1 1SL      0.129400
     28 OAF        -8.3830    0.2130   -0.2820 oh        1 1SL     -0.601800
     29 H1          4.4120    1.1390    2.1490 hc        1 1SL      0.035867
     30 H2          6.0810    0.8590    2.8100 hc        1 1SL      0.035867
     31 H3          5.8610    1.6520    1.1950 hc        1 1SL      0.035867
     32 H4          6.5430   -0.7370    0.9130 hc        1 1SL      0.041450
     33 H5          5.1540   -1.2730    1.9470 hc        1 1SL      0.041450
     34 H6          4.6760    0.4240   -0.5870 h1        1 1SL      0.056700
     35 H7          6.0920   -1.6690   -1.0850 hc        1 1SL      0.041450
     36 H8          4.7620   -2.6690   -0.3660 hc        1 1SL      0.041450
     37 H9          3.1660   -1.8290   -2.0750 hc        1 1SL      0.035867
     38 H10         4.4300   -0.7290   -2.7620 hc        1 1SL      0.035867
     39 H11         4.6320   -2.5270   -2.8820 hc        1 1SL      0.035867
     40 H12         2.4820    0.1360   -1.2820 h1        1 1SL      0.035700
     41 H13         0.6380   -0.3850    1.1810 h1        1 1SL      0.111700
     42 H14         1.0000   -2.2080   -1.1420 hn        1 1SL      0.303500
     43 H15         1.3930   -4.6210   -0.2200 hc        1 1SL      0.059033
     44 H16         0.2030   -4.9860    1.1050 hc        1 1SL      0.059033
     45 H17        -0.3920   -4.4390   -0.5240 hc        1 1SL      0.059033
     46 H18         2.2910    1.4340    1.5430 hc        1 1SL      0.079200
     47 H19         3.2670    2.0260    0.1400 hc        1 1SL      0.079200
     48 H22        -0.7790    2.4380   -0.8590 ha        1 1SL      0.156000
     49 H24         0.1090    0.1120   -1.8800 h1        1 1SL      0.064700
     50 H25        -2.2080    1.4170    0.8170 h4        1 1SL      0.211000
     51 H26        -5.0330   -1.0000    1.5740 hc        1 1SL      0.045700
     52 H27        -4.8250    0.7980    1.4870 hc        1 1SL      0.045700
     53 H28        -5.8740    0.7740   -0.8330 hc        1 1SL      0.064200
     54 H29        -6.1250   -1.0060   -0.6830 hc        1 1SL      0.064200
     55 H30        -7.5070   -0.6260    1.4140 h1        1 1SL      0.016200
     56 H31        -7.2820    1.1740    1.2100 h1        1 1SL      0.016200
     57 H32        -9.1860    0.4170    0.2100 ho        1 1SL      0.390000
@<TRIPOS>BOND
     1    1    2 1   
     2    1   29 1   
     3    1   30 1   
     4    1   31 1   
     5    2    3 1   
     6    2   32 1   
     7    2   33 1   
     8    3    4 1   
     9    3    6 1   
    10    3   34 1   
    11    4    5 1   
    12    4   35 1   
    13    4   36 1   
    14    5   37 1   
    15    5   38 1   
    16    5   39 1   
    17    6    7 1   
    18    7    8 1   
    19    7   13 1   
    20    7   40 1   
    21    8    9 1   
    22    8   19 1   
    23    8   41 1   
    24    9   10 1   
    25    9   42 1   
    26   10   11 1   
    27   10   12 2   
    28   11   43 1   
    29   11   44 1   
    30   11   45 1   
    31   13   14 1   
    32   13   46 1   
    33   13   47 1   
    34   14   15 1   
    35   14   18 2   
    36   15   16 1   
    37   15   17 1   
    38   18   19 1   
    39   18   48 1   
    40   19   20 1   
    41   19   49 1   
    42   20   21 1   
    43   20   22 1   
    44   21   24 2   
    45   21   50 1   
    46   22   23 2   
    47   23   24 1   
    48   24   25 1   
    49   25   26 1   
    50   25   51 1   
    51   25   52 1   
    52   26   27 1   
    53   26   53 1   
    54   26   54 1   
    55   27   28 1   
    56   27   55 1   
    57   27   56 1   
    58   28   57 1   
@<TRIPOS>SUBSTRUCTURE
     1 1SL         1 TEMP              0 ****  ****    0 ROOT
