@<TRIPOS>MOLECULE
1SL
   58    59     1     0     0
SMALL
bcc


@<TRIPOS>ATOM
      1 CAA         0.2430   -0.4210   -0.0630 c3        1 1SL     -0.095600
      2 CAK         1.7140   -0.1160    0.0380 c3        1 1SL     -0.097900
      3 CAX         2.2030   -0.1570    1.4850 c3        1 1SL      0.144100
      4 CAL         3.7200   -0.3220    1.5420 c3        1 1SL     -0.097900
      5 CAB         4.2360   -0.5010    2.9440 c3        1 1SL     -0.095600
      6 OAS         1.8570    1.1110    2.0740 os        1 1SL     -0.470600
      7 CAZ         1.2640    1.0150    3.3700 c3        1 1SL      0.131100
      8 CBA         1.3520    2.4340    3.9940 c3        1 1SL      0.095500
      9 NAR         2.7300    3.0170    3.8320 ny        1 1SL     -0.669800
     10 CAT         2.7800    4.5050    3.5680 c         1 1SL      0.570100
     11 CAC         4.0900    5.1530    3.8770 c3        1 1SL     -0.188100
     12 OAD         1.7780    5.0420    3.1240 o         1 1SL     -0.412100
     13 CAO        -0.2080    0.6320    3.3040 c3        1 1SL     -0.084200
     14 CAV        -0.8460    0.7810    4.6310 ce        1 1SL     -0.103400
     15 CAU        -2.1230   -0.0550    4.8570 c         1 1SL      0.913800
     16 OAG        -2.2370   -1.0850    4.1450 o         1 1SL     -0.789800
     17 OAE        -2.9240    0.3630    5.7290 o         1 1SL     -0.789800
     18 CAH        -0.3490    1.5520    5.6050 c2        1 1SL     -0.282200
     19 CAY         0.9250    2.3300    5.4940 c3        1 1SL      0.120200
     20 NBB         0.8380    3.6550    6.1050 na        1 1SL      0.037400
     21 CAI        -0.2930    4.2360    6.6890 cc        1 1SL     -0.161600
     22 NAQ         1.8980    4.4940    6.2360 nc        1 1SL     -0.291800
     23 NAP         1.5460    5.5540    6.8430 nd        1 1SL     -0.331000
     24 CAW         0.1730    5.4790    7.1760 cd        1 1SL      0.256600
     25 CAN        -0.5910    6.5250    7.8810 c3        1 1SL     -0.094700
     26 CAM         0.0170    6.8650    9.2270 c3        1 1SL     -0.081400
     27 CAJ        -0.8500    7.8850    9.9480 c3        1 1SL      0.131400
     28 OAF        -0.1890    8.2020   11.1630 oh        1 1SL     -0.599800
     29 H1         -0.0970   -0.3300   -1.1230 hc        1 1SL      0.038867
     30 H2         -0.3480    0.2920    0.5640 hc        1 1SL      0.038867
     31 H3          0.0240   -1.4570    0.2910 hc        1 1SL      0.038867
     32 H4          2.2990   -0.8650   -0.5570 hc        1 1SL      0.052450
     33 H5          1.9250    0.8990   -0.3880 hc        1 1SL      0.052450
     34 H6          1.7000   -0.9970    2.0400 h1        1 1SL      0.074700
     35 H7          4.2030    0.5720    1.0670 hc        1 1SL      0.052450
     36 H8          3.9950   -1.2200    0.9280 hc        1 1SL      0.052450
     37 H9          5.3350   -0.7020    2.9320 hc        1 1SL      0.038867
     38 H10         3.7260   -1.3570    3.4500 hc        1 1SL      0.038867
     39 H11         4.0560    0.4200    3.5510 hc        1 1SL      0.038867
     40 H12         1.8370    0.2790    4.0000 h1        1 1SL      0.060700
     41 H13         0.6330    3.1060    3.4330 hx        1 1SL      0.145700
     42 H14         3.2880    2.8150    4.6680 hn        1 1SL      0.462300
     43 H15         4.9560    4.5320    3.5430 hc        1 1SL      0.106367
     44 H16         4.1650    5.3330    4.9820 hc        1 1SL      0.106367
     45 H17         4.1250    6.1440    3.3550 hc        1 1SL      0.106367
     46 H18        -0.3200   -0.4380    2.9650 hc        1 1SL      0.102200
     47 H19        -0.7440    1.2700    2.5510 hc        1 1SL      0.102200
     48 H22        -0.8690    1.5940    6.5780 ha        1 1SL      0.178000
     49 H24         1.7310    1.7590    6.0570 h1        1 1SL      0.068700
     50 H25        -1.2750    3.7570    6.7080 h4        1 1SL      0.229000
     51 H26        -1.6460    6.1630    8.0200 hc        1 1SL      0.058700
     52 H27        -0.6320    7.4500    7.2420 hc        1 1SL      0.058700
     53 H28         0.1080    5.9450    9.8590 hc        1 1SL      0.065200
     54 H29         1.0490    7.2820    9.0960 hc        1 1SL      0.065200
     55 H30        -0.9690    8.8140    9.3260 h1        1 1SL      0.021200
     56 H31        -1.8670    7.4600   10.1610 h1        1 1SL      0.021200
     57 H32        -0.7670    8.8090   11.6390 ho        1 1SL      0.401000
     58 HAR2        3.1660    2.5450    3.0220 hn        1 1SL      0.462300
@<TRIPOS>BOND
     1    1    2 1   
     2    1   29 1   
     3    1   30 1   
     4    1   31 1   
     5    2    3 1   
     6    2   32 1   
     7    2   33 1   
     8    3    4 1   
     9    3    6 1   
    10    3   34 1   
    11    4    5 1   
    12    4   35 1   
    13    4   36 1   
    14    5   37 1   
    15    5   38 1   
    16    5   39 1   
    17    6    7 1   
    18    7    8 1   
    19    7   13 1   
    20    7   40 1   
    21    8    9 1   
    22    8   19 1   
    23    8   41 1   
    24    9   10 1   
    25    9   42 1   
    26    9   58 1   
    27   10   11 1   
    28   10   12 2   
    29   11   43 1   
    30   11   44 1   
    31   11   45 1   
    32   13   14 1   
    33   13   46 1   
    34   13   47 1   
    35   14   15 1   
    36   14   18 2   
    37   15   16 1   
    38   15   17 1   
    39   18   19 1   
    40   18   48 1   
    41   19   20 1   
    42   19   49 1   
    43   20   21 1   
    44   20   22 1   
    45   21   24 2   
    46   21   50 1   
    47   22   23 2   
    48   23   24 1   
    49   24   25 1   
    50   25   26 1   
    51   25   51 1   
    52   25   52 1   
    53   26   27 1   
    54   26   53 1   
    55   26   54 1   
    56   27   28 1   
    57   27   55 1   
    58   27   56 1   
    59   28   57 1   
@<TRIPOS>SUBSTRUCTURE
     1 1SL         1 TEMP              0 ****  ****    0 ROOT
