@<TRIPOS>MOLECULE
1SL
   58    59     1     0     0
SMALL
bcc


@<TRIPOS>ATOM
      1 CAA         0.2210   -0.4470   -0.0420 c3        1 1SL     -0.095600
      2 CAK         1.6920   -0.1390    0.0500 c3        1 1SL     -0.097900
      3 CAX         2.1900   -0.1710    1.4940 c3        1 1SL      0.144100
      4 CAL         3.7070   -0.3330    1.5420 c3        1 1SL     -0.097900
      5 CAB         4.2320   -0.5040    2.9430 c3        1 1SL     -0.095600
      6 OAS         1.8460    1.1000    2.0780 os        1 1SL     -0.470600
      7 CAZ         1.2600    1.0100    3.3770 c3        1 1SL      0.131100
      8 CBA         1.3500    2.4320    3.9940 c3        1 1SL      0.095500
      9 NAR         2.7250    3.0160    3.8210 n4        1 1SL     -0.669800
     10 CAT         2.7720    4.5030    3.5490 c         1 1SL      0.570100
     11 CAC         4.0820    5.1540    3.8460 c3        1 1SL     -0.188100
     12 OAD         1.7670    5.0360    3.1080 o         1 1SL     -0.412100
     13 CAO        -0.2130    0.6240    3.3220 c3        1 1SL     -0.084200
     14 CAV        -0.8430    0.7800    4.6520 ce        1 1SL     -0.103400
     15 CAU        -2.1180   -0.0560    4.8890 c         1 1SL      0.913800
     16 OAG        -2.2350   -1.0900    4.1830 o         1 1SL     -0.789800
     17 OAE        -2.9140    0.3650    5.7630 o         1 1SL     -0.789800
     18 CAH        -0.3420    1.5570    5.6190 c2        1 1SL     -0.282200
     19 CAY         0.9310    2.3350    5.4960 c3        1 1SL      0.120200
     20 NBB         0.8460    3.6630    6.1010 na        1 1SL      0.037400
     21 CAI        -0.2820    4.2470    6.6890 cc        1 1SL     -0.161600
     22 NAQ         1.9050    4.5040    6.2220 nc        1 1SL     -0.291800
     23 NAP         1.5560    5.5660    6.8260 nd        1 1SL     -0.331000
     24 CAW         0.1850    5.4920    7.1670 cd        1 1SL      0.256600
     25 CAN        -0.5760    6.5400    7.8710 c3        1 1SL     -0.094700
     26 CAM         0.0370    6.8850    9.2140 c3        1 1SL     -0.082400
     27 CAJ        -0.8260    7.9070    9.9340 c3        1 1SL      0.131400
     28 OAF        -0.1620    8.2270   11.1470 oh        1 1SL     -0.599800
     29 H1         -0.1250   -0.3620   -1.1000 hc        1 1SL      0.038867
     30 H2          0.0060   -1.4820    0.3190 hc        1 1SL      0.038867
     31 H3         -0.3680    0.2680    0.5850 hc        1 1SL      0.038867
     32 H4          2.2750   -0.8900   -0.5450 hc        1 1SL      0.052450
     33 H5          1.8990    0.8750   -0.3840 hc        1 1SL      0.052450
     34 H6          1.6910   -1.0090    2.0560 h1        1 1SL      0.074700
     35 H7          4.1860    0.5590    1.0600 hc        1 1SL      0.052450
     36 H8          3.9810   -1.2340    0.9320 hc        1 1SL      0.052450
     37 H9          5.3310   -0.7030    2.9250 hc        1 1SL      0.038867
     38 H10         3.7260   -1.3590    3.4570 hc        1 1SL      0.038867
     39 H11         4.0530    0.4200    3.5460 hc        1 1SL      0.038867
     40 H12         1.8380    0.2770    4.0080 h1        1 1SL      0.060700
     41 H13         0.6260    3.1000    3.4330 hx        1 1SL      0.145700
     42 H14         3.1570    2.5410    3.0110 hn        1 1SL      0.462300
     43 H15         4.1640    5.3400    4.9510 hc        1 1SL      0.106367
     44 H16         4.1140    6.1430    3.3200 hc        1 1SL      0.106367
     45 H17         4.9480    4.5330    3.5110 hc        1 1SL      0.106367
     46 H18        -0.3240   -0.4480    2.9900 hc        1 1SL      0.102200
     47 H19        -0.7530    1.2580    2.5680 hc        1 1SL      0.102200
     48 H22        -0.8560    1.6030    6.5950 ha        1 1SL      0.178000
     49 H24         1.7410    1.7680    6.0580 h1        1 1SL      0.068700
     50 H25        -1.2630    3.7660    6.7150 h4        1 1SL      0.229000
     51 H26        -1.6310    6.1800    8.0150 hc        1 1SL      0.058700
     52 H27        -0.6190    7.4630    7.2300 hc        1 1SL      0.058700
     53 H28         0.1290    5.9660    9.8490 hc        1 1SL      0.065200
     54 H29         1.0690    7.3010    9.0780 hc        1 1SL      0.065200
     55 H30        -0.9470    8.8340    9.3110 h1        1 1SL      0.021200
     56 H31        -1.8430    7.4840   10.1520 h1        1 1SL      0.021200
     57 H32        -0.7380    8.8350   11.6230 ho        1 1SL      0.401000
     58 HAR2        3.2890    2.8190    4.6540 hn        1 1SL      0.462300
@<TRIPOS>BOND
     1    1    2 1   
     2    1   29 1   
     3    1   30 1   
     4    1   31 1   
     5    2    3 1   
     6    2   32 1   
     7    2   33 1   
     8    3    4 1   
     9    3    6 1   
    10    3   34 1   
    11    4    5 1   
    12    4   35 1   
    13    4   36 1   
    14    5   37 1   
    15    5   38 1   
    16    5   39 1   
    17    6    7 1   
    18    7    8 1   
    19    7   13 1   
    20    7   40 1   
    21    8    9 1   
    22    8   19 1   
    23    8   41 1   
    24    9   10 1   
    25    9   42 1   
    26    9   58 1   
    27   10   11 1   
    28   10   12 2   
    29   11   43 1   
    30   11   44 1   
    31   11   45 1   
    32   13   14 1   
    33   13   46 1   
    34   13   47 1   
    35   14   15 1   
    36   14   18 2   
    37   15   16 1   
    38   15   17 1   
    39   18   19 1   
    40   18   48 1   
    41   19   20 1   
    42   19   49 1   
    43   20   21 1   
    44   20   22 1   
    45   21   24 2   
    46   21   50 1   
    47   22   23 2   
    48   23   24 1   
    49   24   25 1   
    50   25   26 1   
    51   25   51 1   
    52   25   52 1   
    53   26   27 1   
    54   26   53 1   
    55   26   54 1   
    56   27   28 1   
    57   27   55 1   
    58   27   56 1   
    59   28   57 1   
@<TRIPOS>SUBSTRUCTURE
     1 1SL         1 TEMP              0 ****  ****    0 ROOT
