@<TRIPOS>MOLECULE
1SM
   43    44     1     0     0
SMALL
bcc


@<TRIPOS>ATOM
      1 C4         -0.8890    1.7080    0.2730 ca        1 1SM     -0.084000
      2 C5          0.1260    2.5260   -0.1890 ca        1 1SM     -0.048000
      3 C6          1.3550    2.6020    0.5090 ca        1 1SM      0.005000
      4 C1          1.5040    1.8430    1.6490 ca        1 1SM     -0.098000
      5 C2          0.4670    0.9850    2.1530 ca        1 1SM     -0.884000
      6 C3         -0.7220    0.9360    1.4460 ca        1 1SM      0.056000
      7 S7          0.8620    0.2020    3.5530 s6        1 1SM      2.078700
      8 N8          0.8510   -4.0130    4.4860 n         1 1SM     -0.594000
      9 C9         -0.4620   -3.8570    4.7680 c         1 1SM      0.666100
     10 N10        -1.1840   -4.9090    5.6170 n4        1 1SM     -0.642500
     11 C2'        -1.3260   -6.2200    4.9130 ca        1 1SM      0.711900
     12 N1'        -0.1610   -6.8460    4.5590 nb        1 1SM     -0.698000
     13 C6'        -0.3120   -8.0560    3.9570 ca        1 1SM      0.499100
     14 C5'        -1.5960   -8.5990    3.7170 ca        1 1SM     -0.317600
     15 C4'        -2.7350   -7.8620    4.1130 ca        1 1SM      0.499100
     16 N3'        -2.6080   -6.6490    4.7220 nb        1 1SM     -0.698000
     17 O7A         0.3450    0.7190    4.6910 o         1 1SM     -0.534200
     18 O7B         1.1770   -1.1190    3.4260 o         1 1SM     -0.577800
     19 O9         -1.1810   -2.8910    4.4680 o         1 1SM     -0.541100
     20 C11         2.6720    1.7740    2.5270 c2        1 1SM      0.515200
     21 O12         3.7860    2.4360    2.3760 os        1 1SM     -0.228900
     22 C13         4.8510    2.2700    3.3620 c3        1 1SM      0.120700
     23 O11         2.5340    0.9610    3.5450 os        1 1SM     -0.391800
     24 C8'        -4.0990   -8.4200    3.8830 c3        1 1SM     -0.174900
     25 C7'         0.8940   -8.8370    3.5550 c3        1 1SM     -0.174900
     26 H4         -1.8510    1.6520   -0.2700 ha        1 1SM      0.192000
     27 H5         -0.0100    3.1310   -1.1050 ha        1 1SM      0.196000
     28 H6          2.1660    3.2580    0.1430 ha        1 1SM      0.196000
     29 H3         -1.5610    0.3000    1.7840 ha        1 1SM      0.173000
     30 HN8         1.3600   -4.8470    4.6760 hn        1 1SM      0.378000
     31 H10        -0.6840   -5.0670    6.5010 hn        1 1SM      0.490300
     32 H5'        -1.7040   -9.5810    3.2310 ha        1 1SM      0.197000
     33 H131        5.6340    2.9670    2.9620 h1        1 1SM      0.105033
     34 H132        5.1830    1.2050    3.3580 h1        1 1SM      0.105033
     35 H133        4.4700    2.5830    4.3630 h1        1 1SM      0.105033
     36 H8'1       -4.4560   -8.9240    4.8190 hc        1 1SM      0.088033
     37 H8'2       -4.0680   -9.1750    3.0580 hc        1 1SM      0.088033
     38 H8'3       -4.8360   -7.6220    3.6150 hc        1 1SM      0.088033
     39 H7'1        1.0460   -9.6730    4.2870 hc        1 1SM      0.088033
     40 H7'2        0.7320   -9.2790    2.5390 hc        1 1SM      0.088033
     41 H7'3        1.8230   -8.2160    3.5320 hc        1 1SM      0.088033
     42 H82         1.2740   -3.3040    3.9160 hn        1 1SM      0.378000
     43 H102       -2.1260   -4.5280    5.8230 hn        1 1SM      0.490300
@<TRIPOS>BOND
     1    1    2 ar  
     2    1    6 ar  
     3    1   26 1   
     4    2    3 ar  
     5    2   27 1   
     6    3    4 ar  
     7    3   28 1   
     8    4    5 ar  
     9    4   20 2   
    10    5    6 ar  
    11    5    7 2   
    12    6   29 1   
    13    7   17 1   
    14    7   18 2   
    15    7   23 1   
    16    8    9 1   
    17    8   30 1   
    18    8   42 1   
    19    9   10 1   
    20    9   19 2   
    21   10   11 1   
    22   10   31 1   
    23   10   43 1   
    24   11   12 ar  
    25   11   16 ar  
    26   12   13 ar  
    27   13   14 ar  
    28   13   25 1   
    29   14   15 ar  
    30   14   32 1   
    31   15   16 ar  
    32   15   24 1   
    33   20   21 1   
    34   20   23 1   
    35   21   22 1   
    36   22   33 1   
    37   22   34 1   
    38   22   35 1   
    39   24   36 1   
    40   24   37 1   
    41   24   38 1   
    42   25   39 1   
    43   25   40 1   
    44   25   41 1   
@<TRIPOS>SUBSTRUCTURE
     1 1SM         1 TEMP              0 ****  ****    0 ROOT
