@<TRIPOS>MOLECULE
1SM
   41    42     1     0     0
SMALL
bcc


@<TRIPOS>ATOM
      1 C4         -2.9610   -0.4700   -2.7400 ca        1 1SM     -0.129000
      2 C5         -2.4940   -1.6170   -3.3750 ca        1 1SM     -0.078000
      3 C6         -1.1190   -1.8350   -3.4920 ca        1 1SM     -0.109000
      4 C1         -0.2180   -0.9060   -2.9700 ca        1 1SM     -0.007600
      5 C2         -0.6710    0.2730   -2.3520 ca        1 1SM     -0.326500
      6 C3         -2.0530    0.4630   -2.2360 ca        1 1SM     -0.017000
      7 S7          0.3380    1.5180   -1.7780 sy        1 1SM      1.516900
      8 N8          0.9570    0.8880   -0.3900 n         1 1SM     -0.676300
      9 C9          0.2950    0.7790    0.8520 c         1 1SM      0.814100
     10 N10         1.0730    0.3860    1.9620 n         1 1SM     -0.541400
     11 C2'         0.4830    0.0610    3.2130 ca        1 1SM      0.773900
     12 N1'        -0.6760   -0.6890    3.2130 nb        1 1SM     -0.718000
     13 C6'        -1.1780   -1.0100    4.4290 ca        1 1SM      0.475100
     14 C5'        -0.5460   -0.6180    5.6280 ca        1 1SM     -0.396600
     15 C4'         0.6450    0.1320    5.5320 ca        1 1SM      0.475100
     16 N3'         1.1720    0.4850    4.3370 nb        1 1SM     -0.718000
     17 O7A         1.4080    1.6800   -2.6780 o         1 1SM     -0.633300
     18 O7B        -0.4340    2.6610   -1.5360 o         1 1SM     -0.633300
     19 O9         -0.9230    1.0310    0.9210 o         1 1SM     -0.573100
     20 C11         1.2280   -1.2180   -3.0560 c         1 1SM      0.644700
     21 O12         1.5970   -1.7890   -4.2390 os        1 1SM     -0.418900
     22 C13         2.9900   -2.0750   -4.4020 c3        1 1SM      0.124700
     23 O11         2.0910   -1.0620   -2.1870 o         1 1SM     -0.553000
     24 C8'         1.3420    0.5610    6.7820 c3        1 1SM     -0.155900
     25 C7'        -2.4410   -1.8080    4.4950 c3        1 1SM     -0.155900
     26 H4         -4.0420   -0.2940   -2.6320 ha        1 1SM      0.149000
     27 H5         -3.2020   -2.3540   -3.7850 ha        1 1SM      0.144000
     28 H6         -0.7410   -2.7380   -3.9980 ha        1 1SM      0.156000
     29 H3         -2.4290    1.3740   -1.7300 ha        1 1SM      0.179000
     30 HN8         1.8480    0.4330   -0.4550 hn        1 1SM      0.358500
     31 H10         2.0350    0.6490    1.9870 hn        1 1SM      0.342500
     32 H5'        -0.9670   -0.8880    6.6030 ha        1 1SM      0.154000
     33 H131        3.0500   -2.4830   -5.4400 h1        1 1SM      0.057367
     34 H132        3.5850   -1.1360   -4.2930 h1        1 1SM      0.057367
     35 H133        3.3110   -2.8270   -3.6430 h1        1 1SM      0.057367
     36 H8'1        1.3380    1.6770    6.8620 hc        1 1SM      0.060200
     37 H8'2        0.8250    0.1350    7.6760 hc        1 1SM      0.060200
     38 H8'3        2.4050    0.2130    6.7810 hc        1 1SM      0.060200
     39 H7'1       -3.2880   -1.2180    4.0630 hc        1 1SM      0.060200
     40 H7'2       -2.3400   -2.7560    3.9110 hc        1 1SM      0.060200
     41 H7'3       -2.6810   -2.0610    5.5560 hc        1 1SM      0.060200
@<TRIPOS>BOND
     1    1    2 ar  
     2    1    6 ar  
     3    1   26 1   
     4    2    3 ar  
     5    2   27 1   
     6    3    4 ar  
     7    3   28 1   
     8    4    5 ar  
     9    4   20 1   
    10    5    6 ar  
    11    5    7 1   
    12    6   29 1   
    13    7    8 1   
    14    7   17 2   
    15    7   18 2   
    16    8    9 1   
    17    8   30 1   
    18    9   10 1   
    19    9   19 2   
    20   10   11 1   
    21   10   31 1   
    22   11   12 ar  
    23   11   16 ar  
    24   12   13 ar  
    25   13   14 ar  
    26   13   25 1   
    27   14   15 ar  
    28   14   32 1   
    29   15   16 ar  
    30   15   24 1   
    31   20   21 1   
    32   20   23 2   
    33   21   22 1   
    34   22   33 1   
    35   22   34 1   
    36   22   35 1   
    37   24   36 1   
    38   24   37 1   
    39   24   38 1   
    40   25   39 1   
    41   25   40 1   
    42   25   41 1   
@<TRIPOS>SUBSTRUCTURE
     1 1SM         1 TEMP              0 ****  ****    0 ROOT
