@<TRIPOS>MOLECULE
1SM
   42    42     1     0     0
SMALL
bcc


@<TRIPOS>ATOM
      1 C4         -0.2220   -0.2480    0.2560 ca        1 1SM     -0.135000
      2 C5          1.1050    0.1090    0.0370 ca        1 1SM      0.001000
      3 C6          1.9400    0.3920    1.1300 ca        1 1SM     -0.103000
      4 C1          1.4400    0.3330    2.4220 ca        1 1SM      0.019400
      5 C2          0.0700    0.0480    2.6730 ca        1 1SM     -0.512500
      6 C3         -0.7270   -0.2850    1.5530 ca        1 1SM      0.045000
      7 S7         -0.6460    0.1370    4.0940 s4        1 1SM      1.651300
      8 N8          0.0330   -1.7980    5.0710 n         1 1SM     -0.718000
      9 C9         -0.4890   -2.9700    4.3490 c         1 1SM      0.744100
     10 N10        -0.3130   -4.2250    4.8940 n         1 1SM     -0.520400
     11 C2'        -0.7370   -5.4130    4.2060 ca        1 1SM      0.738900
     12 N1'        -0.4240   -5.5220    2.8720 nb        1 1SM     -0.706000
     13 C6'        -0.8090   -6.6780    2.2700 ca        1 1SM      0.478600
     14 C5'        -1.4790   -7.6970    2.9790 ca        1 1SM     -0.361600
     15 C4'        -1.7490   -7.4930    4.3500 ca        1 1SM      0.478600
     16 N3'        -1.3870   -6.3490    4.9810 nb        1 1SM     -0.706000
     17 O7A        -0.0550    0.9200    5.0370 o         1 1SM     -0.427400
     18 O7B        -1.9820   -0.1130    4.1350 o         1 1SM     -0.427400
     19 O9         -1.0430   -2.7050    3.2670 o         1 1SM     -0.556100
     20 C11         2.3900    0.4850    3.5540 c         1 1SM      0.631700
     21 O12         3.3400    1.4290    3.3690 os        1 1SM     -0.393900
     22 C13         4.2920    1.6070    4.4330 c3        1 1SM      0.121700
     23 O11         2.3880   -0.1970    4.5870 o         1 1SM     -0.567000
     24 C8'        -2.4530   -8.5560    5.1290 c3        1 1SM     -0.161900
     25 C7'        -0.5100   -6.8680    0.8190 c3        1 1SM     -0.161900
     26 H4         -0.8790   -0.5070   -0.5930 ha        1 1SM      0.181000
     27 H5          1.5100    0.1600   -0.9890 ha        1 1SM      0.177000
     28 H6          3.0000    0.6560    0.9630 ha        1 1SM      0.187000
     29 H3         -1.7820   -0.5900    1.7170 ha        1 1SM      0.190000
     30 HN8        -0.2750   -1.7790    6.0310 hn        1 1SM      0.323000
     31 H10        -0.0990   -4.3350    5.8630 hn        1 1SM      0.356500
     32 H5'        -1.7820   -8.6270    2.4790 ha        1 1SM      0.171000
     33 H131        4.8710    0.6640    4.5780 h1        1 1SM      0.073367
     34 H132        4.9360    2.4380    4.0510 h1        1 1SM      0.073367
     35 H133        3.7580    1.8900    5.3710 h1        1 1SM      0.073367
     36 H8'1       -1.8030   -8.9220    5.9630 hc        1 1SM      0.069700
     37 H8'2       -3.3990   -8.1560    5.5720 hc        1 1SM      0.069700
     38 H8'3       -2.7040   -9.4180    4.4630 hc        1 1SM      0.069700
     39 H7'1        0.5760   -6.7010    0.6120 hc        1 1SM      0.069700
     40 H7'2       -0.7820   -7.9040    0.5030 hc        1 1SM      0.069700
     41 H7'3       -1.1010   -6.1390    0.2080 hc        1 1SM      0.069700
     42 H82         1.0480   -1.7890    5.0540 hn        1 1SM      0.323000
@<TRIPOS>BOND
     1    1    2 ar  
     2    1    6 ar  
     3    1   26 1   
     4    2    3 ar  
     5    2   27 1   
     6    3    4 ar  
     7    3   28 1   
     8    4    5 ar  
     9    4   20 1   
    10    5    6 ar  
    11    5    7 1   
    12    6   29 1   
    13    7   17 1   
    14    7   18 1   
    15    8    9 1   
    16    8   30 1   
    17    8   42 1   
    18    9   10 1   
    19    9   19 2   
    20   10   11 1   
    21   10   31 1   
    22   11   12 ar  
    23   11   16 ar  
    24   12   13 ar  
    25   13   14 ar  
    26   13   25 1   
    27   14   15 ar  
    28   14   32 1   
    29   15   16 ar  
    30   15   24 1   
    31   20   21 1   
    32   20   23 2   
    33   21   22 1   
    34   22   33 1   
    35   22   34 1   
    36   22   35 1   
    37   24   36 1   
    38   24   37 1   
    39   24   38 1   
    40   25   39 1   
    41   25   40 1   
    42   25   41 1   
@<TRIPOS>SUBSTRUCTURE
     1 1SM         1 TEMP              0 ****  ****    0 ROOT
