@<TRIPOS>MOLECULE
1SM
   42    42     1     0     0
SMALL
bcc


@<TRIPOS>ATOM
      1 C4         -0.1680   -0.2610    0.2370 ca        1 1SM     -0.135000
      2 C5          1.1630    0.0920    0.0370 ca        1 1SM      0.001000
      3 C6          1.9820    0.3780    1.1410 ca        1 1SM     -0.103000
      4 C1          1.4620    0.3260    2.4260 ca        1 1SM      0.019400
      5 C2          0.0870    0.0460    2.6570 ca        1 1SM     -0.512500
      6 C3         -0.6930   -0.2890    1.5260 ca        1 1SM      0.045000
      7 S7         -0.6500    0.1440    4.0670 s4        1 1SM      1.651300
      8 N8          0.0080   -1.7890    5.0630 nt        1 1SM     -0.718000
      9 C9         -0.5070   -2.9620    4.3380 c         1 1SM      0.744100
     10 N10        -0.3430   -4.2160    4.8930 ns        1 1SM     -0.520400
     11 C2'        -0.7600   -5.4050    4.2040 ca        1 1SM      0.738900
     12 N1'        -0.4270   -5.5230    2.8760 nb        1 1SM     -0.706000
     13 C6'        -0.8060   -6.6810    2.2740 ca        1 1SM      0.478600
     14 C5'        -1.4900   -7.6940    2.9770 ca        1 1SM     -0.361600
     15 C4'        -1.7810   -7.4820    4.3430 ca        1 1SM      0.478600
     16 N3'        -1.4250   -6.3360    4.9740 nb        1 1SM     -0.706000
     17 O7A        -0.0720    0.9300    5.0150 o         1 1SM     -0.427400
     18 O7B        -1.9870   -0.1030    4.0870 o         1 1SM     -0.427400
     19 O9         -1.0430   -2.7010    3.2460 o         1 1SM     -0.556100
     20 C11         2.3950    0.4810    3.5720 c         1 1SM      0.631700
     21 O12         3.3500    1.4200    3.3970 os        1 1SM     -0.393900
     22 C13         4.2870    1.6010    4.4740 c3        1 1SM      0.121700
     23 O11         2.3740   -0.1970    4.6080 o         1 1SM     -0.567000
     24 C8'        -2.4980   -8.5400    5.1160 c3        1 1SM     -0.161900
     25 C7'        -0.4850   -6.8780    0.8280 c3        1 1SM     -0.161900
     26 H4         -0.8130   -0.5210   -0.6210 ha        1 1SM      0.181000
     27 H5          1.5850    0.1370   -0.9830 ha        1 1SM      0.177000
     28 H6          3.0450    0.6380    0.9900 ha        1 1SM      0.187000
     29 H3         -1.7510   -0.5910    1.6750 ha        1 1SM      0.190000
     30 HN8         1.0230   -1.7830    5.0610 hn        1 1SM      0.323000
     31 H10        -0.1440   -4.3210    5.8650 hn        1 1SM      0.356500
     32 H5'        -1.7890   -8.6240    2.4770 ha        1 1SM      0.171000
     33 H131        4.9390    2.4290    4.0990 h1        1 1SM      0.073367
     34 H132        4.8600    0.6570    4.6330 h1        1 1SM      0.073367
     35 H133        3.7390    1.8900    5.4030 h1        1 1SM      0.073367
     36 H8'1       -1.8400   -8.9360    5.9310 hc        1 1SM      0.069700
     37 H8'2       -2.7830   -9.3830    4.4410 hc        1 1SM      0.069700
     38 H8'3       -3.4250   -8.1250    5.5860 hc        1 1SM      0.069700
     39 H7'1        0.6060   -6.7210    0.6380 hc        1 1SM      0.069700
     40 H7'2       -1.0600   -6.1480    0.2050 hc        1 1SM      0.069700
     41 H7'3       -0.7590   -7.9150    0.5120 hc        1 1SM      0.069700
     42 H82        -0.3140   -1.7640    6.0180 hn        1 1SM      0.323000
@<TRIPOS>BOND
     1    1    2 ar  
     2    1    6 ar  
     3    1   26 1   
     4    2    3 ar  
     5    2   27 1   
     6    3    4 ar  
     7    3   28 1   
     8    4    5 ar  
     9    4   20 1   
    10    5    6 ar  
    11    5    7 1   
    12    6   29 1   
    13    7   17 1   
    14    7   18 1   
    15    8    9 1   
    16    8   30 1   
    17    8   42 1   
    18    9   10 1   
    19    9   19 2   
    20   10   11 1   
    21   10   31 1   
    22   11   12 ar  
    23   11   16 ar  
    24   12   13 ar  
    25   13   14 ar  
    26   13   25 1   
    27   14   15 ar  
    28   14   32 1   
    29   15   16 ar  
    30   15   24 1   
    31   20   21 1   
    32   20   23 2   
    33   21   22 1   
    34   22   33 1   
    35   22   34 1   
    36   22   35 1   
    37   24   36 1   
    38   24   37 1   
    39   24   38 1   
    40   25   39 1   
    41   25   40 1   
    42   25   41 1   
@<TRIPOS>SUBSTRUCTURE
     1 1SM         1 TEMP              0 ****  ****    0 ROOT
