@<TRIPOS>MOLECULE
1SM
   41    36     1     0     0
SMALL
bcc


@<TRIPOS>ATOM
      1 C4          3.8110    3.2370    2.1880 c1        1 1SM     -0.088500
      2 C5          4.1190    4.3830    1.4520 c1        1 1SM     -0.088500
      3 C6          3.3250    4.7500    0.3620 c1        1 1SM     -0.088500
      4 C1          2.2410    3.9870    0.0120 c1        1 1SM      0.052000
      5 C2          1.9270    2.8400    0.7420 c1        1 1SM     -0.782000
      6 C3          2.7230    2.4680    1.8390 c1        1 1SM     -0.088500
      7 S7          0.4880    1.8760    0.3120 s4        1 1SM      2.073800
      8 N8          0.4950    0.4600    1.1250 n2        1 1SM     -0.857000
      9 C9         -0.1260   -0.6930    0.5570 c2        1 1SM      0.433000
     10 N10        -0.8600   -1.6170    1.4130 n         1 1SM     -0.313000
     11 C2'        -1.5040   -2.7440    0.8520 c2        1 1SM      0.165000
     12 N1'        -1.4440   -3.9620    1.5000 n2        1 1SM     -0.220000
     13 C6'        -2.1090   -4.9900    1.0260 c1        1 1SM      0.052000
     14 C5'        -2.8720   -4.8570   -0.1240 c1        1 1SM     -0.265000
     15 C4'        -2.9340   -3.6590   -0.7650 c1        1 1SM      0.053000
     16 N3'        -2.2600   -2.6110   -0.2880 n1        1 1SM     -0.162000
     17 O7A        -0.7560    2.6310    0.5620 o         1 1SM     -0.518400
     18 O7B         0.4060    1.6600   -1.1490 o         1 1SM     -0.518400
     19 O9         -0.0670   -0.8870   -0.6280 o         1 1SM     -0.312000
     20 C11         1.4360    4.3440   -1.2390 c2        1 1SM      0.331000
     21 O12         1.9800    4.1200   -2.5030 os        1 1SM     -0.243000
     22 C13         1.0040    4.0460   -3.5390 c3        1 1SM     -0.063000
     23 O11         0.4310    4.9610   -1.1360 o         1 1SM     -0.323000
     24 C8'        -3.8230   -3.5100   -2.0540 c3        1 1SM     -0.180000
     25 C7'        -1.9520   -6.3580    1.6670 c3        1 1SM     -0.180000
     26 H4          4.3600    2.9850    2.9410 ha        1 1SM      0.147000
     27 H5          4.8520    4.9040    1.6850 ha        1 1SM      0.147000
     28 H6          3.5500    5.5810   -0.1700 ha        1 1SM      0.147000
     29 H3          2.4970    1.6330    2.3740 ha        1 1SM      0.147000
     30 HN8         0.8270    0.4250    1.9520 hn        1 1SM      0.248000
     31 H10        -0.9060   -1.4610    2.3560 hn        1 1SM      0.249000
     32 H5'        -3.3470   -5.5960   -0.4610 ha        1 1SM      0.155000
     33 H131        0.4320    4.8750   -3.5210 h1        1 1SM      0.096000
     34 H132        1.4360    3.9810   -4.3740 h1        1 1SM      0.096000
     35 H133        0.4190    3.2250   -3.3940 h1        1 1SM      0.096000
     36 H8'1       -3.7980   -2.5900   -2.3610 hc        1 1SM      0.101667
     37 H8'2       -3.4750   -4.1050   -2.7630 hc        1 1SM      0.101667
     38 H8'3       -4.7280   -3.7550   -1.8470 hc        1 1SM      0.101667
     39 H7'1       -1.3570   -6.2960    2.4170 hc        1 1SM      0.099333
     40 H7'2       -2.8650   -6.6910    1.9830 hc        1 1SM      0.099333
     41 H7'3       -1.5790   -6.9930    1.0030 hc        1 1SM      0.099333
@<TRIPOS>BOND
     1    1    6 1   
     2    1   26 1   
     3    2    3 1   
     4    2   27 1   
     5    3   28 1   
     6    4    5 1   
     7    4   20 1   
     8    5    7 1   
     9    6   29 1   
    10    7   17 1   
    11    7   18 1   
    12    8    9 1   
    13    8   30 1   
    14    9   10 1   
    15    9   19 1   
    16   10   11 1   
    17   10   31 1   
    18   11   12 1   
    19   11   16 1   
    20   12   13 1   
    21   13   25 1   
    22   14   15 1   
    23   14   32 1   
    24   15   24 1   
    25   20   21 1   
    26   20   23 1   
    27   21   22 1   
    28   22   33 1   
    29   22   34 1   
    30   22   35 1   
    31   24   36 1   
    32   24   37 1   
    33   24   38 1   
    34   25   39 1   
    35   25   40 1   
    36   25   41 1   
@<TRIPOS>SUBSTRUCTURE
     1 1SM         1 TEMP              0 ****  ****    0 ROOT
