@<TRIPOS>MOLECULE
1SN
   58    59     1     0     0
SMALL
bcc


@<TRIPOS>ATOM
      1 CAB         0.1840   -0.4590   -0.0130 c3        1 1SN     -0.095600
      2 CAL         1.6570   -0.1560    0.0620 c3        1 1SN     -0.097900
      3 CAX         2.1690   -0.1820    1.5010 c3        1 1SN      0.144100
      4 CAM         3.6860   -0.3530    1.5360 c3        1 1SN     -0.097900
      5 CAC         4.2240   -0.5160    2.9320 c3        1 1SN     -0.095600
      6 OAR         1.8390    1.0960    2.0790 os        1 1SN     -0.470600
      7 CAZ         1.2670    1.0200    3.3860 c3        1 1SN      0.132100
      8 CBA         1.3750    2.4460    3.9900 c3        1 1SN      0.095500
      9 NAQ         2.7520    3.0200    3.7970 n4        1 1SN     -0.670800
     10 CAS         2.8040    4.5060    3.5240 c         1 1SN      0.570100
     11 CAD         4.1260    5.1470    3.7910 c3        1 1SN     -0.188100
     12 OAE         1.7930    5.0470    3.1070 o         1 1SN     -0.414100
     13 CAN        -0.2090    0.6460    3.3480 c3        1 1SN     -0.085200
     14 CAU        -0.8280    0.8230    4.6810 ce        1 1SN     -0.102400
     15 CAT        -2.1140    0.0090    4.9350 c         1 1SN      0.913800
     16 OAG        -2.2480   -1.0330    4.2440 o         1 1SN     -0.788800
     17 OAF        -2.9000    0.4550    5.8060 o         1 1SN     -0.788800
     18 CAI        -0.3090    1.6010    5.6370 c2        1 1SN     -0.285200
     19 CAY         0.9720    2.3620    5.4980 c3        1 1SN      0.119200
     20 NBB         0.9090    3.6940    6.0970 na        1 1SN      0.037400
     21 CAJ        -0.2090    4.3040    6.6730 cc        1 1SN     -0.150600
     22 NAP         1.9840    4.5190    6.2120 nc        1 1SN     -0.292800
     23 NAO         1.6530    5.5920    6.8060 nd        1 1SN     -0.310000
     24 CAV         0.2810    5.5450    7.1400 cd        1 1SN      0.200600
     25 CAW        -0.4630    6.6190    7.8560 c3        1 1SN      0.132800
     26 CAK         0.1030    6.8470    9.2580 c3        1 1SN     -0.070400
     27 CAA        -0.8370    7.6720   10.0970 c3        1 1SN     -0.095100
     28 OAH        -0.3720    7.8610    7.1710 oh        1 1SN     -0.584800
     29 H1         -0.3960    0.2610    0.6160 hc        1 1SN      0.038867
     30 H2         -0.0310   -1.4920    0.3550 hc        1 1SN      0.038867
     31 H3         -0.1730   -0.3790   -1.0680 hc        1 1SN      0.038867
     32 H4          1.8630    0.8540   -0.3800 hc        1 1SN      0.053200
     33 H5          2.2310   -0.9130   -0.5340 hc        1 1SN      0.053200
     34 H6          1.6710   -1.0120    2.0740 h1        1 1SN      0.074700
     35 H7          4.1650    0.5310    1.0410 hc        1 1SN      0.053200
     36 H8          3.9470   -1.2620    0.9300 hc        1 1SN      0.053200
     37 H9          3.7180   -1.3630    3.4580 hc        1 1SN      0.038867
     38 H10         4.0570    0.4140    3.5300 hc        1 1SN      0.038867
     39 H11         5.3210   -0.7230    2.9050 hc        1 1SN      0.038867
     40 H12         1.8460    0.2870    4.0160 h1        1 1SN      0.060700
     41 H13         0.6490    3.1150    3.4330 hx        1 1SN      0.145700
     42 H14         3.3260    2.8180    4.6220 hn        1 1SN      0.462300
     43 H15         4.2260    5.3470    4.8920 hc        1 1SN      0.107033
     44 H16         4.1590    6.1290    3.2510 hc        1 1SN      0.107033
     45 H17         4.9810    4.5130    3.4510 hc        1 1SN      0.107033
     46 H18        -0.3330   -0.4290    3.0300 hc        1 1SN      0.102200
     47 H19        -0.7510    1.2740    2.5910 hc        1 1SN      0.102200
     48 H22        -0.8160    1.6620    6.6170 ha        1 1SN      0.178000
     49 H24         1.7810    1.7880    6.0540 h1        1 1SN      0.069700
     50 H25        -1.1990    3.8400    6.7030 h4        1 1SN      0.230000
     51 H26        -1.5470    6.3080    7.9210 h1        1 1SN      0.048700
     52 H27         1.0920    7.3670    9.1670 hc        1 1SN      0.057200
     53 H28         0.2770    5.8490    9.7380 hc        1 1SN      0.057200
     54 H29        -1.0490    8.6460    9.5940 hc        1 1SN      0.039700
     55 H30        -0.3820    7.8750   11.0960 hc        1 1SN      0.039700
     56 H31        -1.8060    7.1370   10.2520 hc        1 1SN      0.039700
     57 H32        -0.7080    7.7160    6.2780 ho        1 1SN      0.402000
     58 HAQ2        3.1680    2.5410    2.9810 hn        1 1SN      0.462300
@<TRIPOS>BOND
     1    1    2 1   
     2    1   29 1   
     3    1   30 1   
     4    1   31 1   
     5    2    3 1   
     6    2   32 1   
     7    2   33 1   
     8    3    4 1   
     9    3    6 1   
    10    3   34 1   
    11    4    5 1   
    12    4   35 1   
    13    4   36 1   
    14    5   37 1   
    15    5   38 1   
    16    5   39 1   
    17    6    7 1   
    18    7    8 1   
    19    7   13 1   
    20    7   40 1   
    21    8    9 1   
    22    8   19 1   
    23    8   41 1   
    24    9   10 1   
    25    9   42 1   
    26    9   58 1   
    27   10   11 1   
    28   10   12 2   
    29   11   43 1   
    30   11   44 1   
    31   11   45 1   
    32   13   14 1   
    33   13   46 1   
    34   13   47 1   
    35   14   15 1   
    36   14   18 2   
    37   15   16 1   
    38   15   17 1   
    39   18   19 1   
    40   18   48 1   
    41   19   20 1   
    42   19   49 1   
    43   20   21 1   
    44   20   22 1   
    45   21   24 2   
    46   21   50 1   
    47   22   23 2   
    48   23   24 1   
    49   24   25 1   
    50   25   26 1   
    51   25   28 1   
    52   25   51 1   
    53   26   27 1   
    54   26   52 1   
    55   26   53 1   
    56   27   54 1   
    57   27   55 1   
    58   27   56 1   
    59   28   57 1   
@<TRIPOS>SUBSTRUCTURE
     1 1SN         1 TEMP              0 ****  ****    0 ROOT
