@<TRIPOS>MOLECULE
1SN
   57    58     1     0     0
SMALL
bcc


@<TRIPOS>ATOM
      1 CAB         5.2830    0.6260    1.9760 c3        1 1SN     -0.095100
      2 CAL         5.2850   -0.7110    1.2830 c3        1 1SN     -0.091900
      3 CAX         4.4120   -0.6990    0.0270 c3        1 1SN      0.140100
      4 CAM         4.7870   -1.8640   -0.8890 c3        1 1SN     -0.091900
      5 CAC         4.1020   -1.7900   -2.2280 c3        1 1SN     -0.095100
      6 OAR         3.0570   -0.8620    0.4620 os        1 1SN     -0.419600
      7 CAZ         2.1310    0.0240   -0.1730 c3        1 1SN      0.124100
      8 CBA         0.7030   -0.5530    0.0480 c3        1 1SN      0.091700
      9 NAQ         0.5700   -1.9460   -0.2810 n         1 1SN     -0.552900
     10 CAS         0.2540   -2.9190    0.6440 c         1 1SN      0.671100
     11 CAD         0.2090   -4.3450    0.1410 c3        1 1SN     -0.174100
     12 OAE        -0.0080   -2.6490    1.8330 o         1 1SN     -0.613100
     13 CAN         2.2010    1.4140    0.4500 c3        1 1SN     -0.081200
     14 CAU         1.0960    2.2800   -0.0200 ce        1 1SN     -0.111400
     15 CAT         1.3160    3.7870    0.1220 c         1 1SN      0.905800
     16 OAG         0.2980    4.5240    0.2160 o         1 1SN     -0.819300
     17 OAF         2.5110    4.1960    0.1280 o         1 1SN     -0.819300
     18 CAI        -0.0270    1.7930   -0.5610 c2        1 1SN     -0.263200
     19 CAY        -0.2530    0.3370   -0.8270 c3        1 1SN      0.096200
     20 NBB        -1.6560   -0.0450   -0.6430 na        1 1SN      0.076400
     21 CAJ        -2.5650    0.6010    0.2000 cc        1 1SN     -0.172600
     22 NAP        -2.2590   -1.0950   -1.2480 nc        1 1SN     -0.191800
     23 NAO        -3.4750   -1.1690   -0.8800 nd        1 1SN     -0.380000
     24 CAV        -3.7600   -0.1320    0.0380 cd        1 1SN      0.182600
     25 CAW        -5.0840    0.1050    0.6680 c3        1 1SN      0.140800
     26 CAK        -6.1020    0.5550   -0.3830 c3        1 1SN     -0.108400
     27 CAA        -7.3860    1.0090    0.2600 c3        1 1SN     -0.091100
     28 OAH        -5.5580   -1.0330    1.3710 oh        1 1SN     -0.600800
     29 H1          5.7220    1.4160    1.3190 hc        1 1SN      0.035700
     30 H2          4.2360    0.9290    2.2280 hc        1 1SN      0.035700
     31 H3          5.8790    0.5760    2.9180 hc        1 1SN      0.035700
     32 H4          6.3320   -0.9870    0.9940 hc        1 1SN      0.041200
     33 H5          4.9000   -1.5010    1.9790 hc        1 1SN      0.041200
     34 H6          4.5440    0.2750   -0.5220 h1        1 1SN      0.056700
     35 H7          5.8990   -1.8540   -1.0390 hc        1 1SN      0.041200
     36 H8          4.5190   -2.8250   -0.3780 hc        1 1SN      0.041200
     37 H9          4.3130   -0.8150   -2.7300 hc        1 1SN      0.035700
     38 H10         4.4570   -2.6150   -2.8920 hc        1 1SN      0.035700
     39 H11         2.9950   -1.8890   -2.1030 hc        1 1SN      0.035700
     40 H12         2.3540    0.0760   -1.2750 h1        1 1SN      0.035700
     41 H13         0.4420   -0.4230    1.1410 h1        1 1SN      0.112700
     42 H14         0.8320   -2.2200   -1.1960 hn        1 1SN      0.302500
     43 H15         1.1940   -4.6430   -0.2890 hc        1 1SN      0.059033
     44 H16        -0.0330   -5.0180    0.9990 hc        1 1SN      0.059033
     45 H17        -0.5820   -4.4540   -0.6400 hc        1 1SN      0.059033
     46 H18         2.1480    1.3270    1.5690 hc        1 1SN      0.080200
     47 H19         3.1830    1.9040    0.2040 hc        1 1SN      0.080200
     48 H22        -0.8200    2.4890   -0.8840 ha        1 1SN      0.156000
     49 H24        -0.0090    0.1440   -1.9190 h1        1 1SN      0.065700
     50 H25        -2.3040    1.4760    0.7960 h4        1 1SN      0.214000
     51 H26        -4.9800    0.8930    1.4700 h1        1 1SN      0.076700
     52 H27        -5.6550    1.3890   -0.9840 hc        1 1SN      0.050700
     53 H28        -6.3050   -0.2960   -1.0830 hc        1 1SN      0.050700
     54 H29        -7.7860    0.2080    0.9280 hc        1 1SN      0.032033
     55 H30        -7.2160    1.9260    0.8760 hc        1 1SN      0.032033
     56 H31        -8.1500    1.2440   -0.5190 hc        1 1SN      0.032033
     57 H32        -5.5480   -1.7800    0.7600 ho        1 1SN      0.408000
@<TRIPOS>BOND
     1    1    2 1   
     2    1   29 1   
     3    1   30 1   
     4    1   31 1   
     5    2    3 1   
     6    2   32 1   
     7    2   33 1   
     8    3    4 1   
     9    3    6 1   
    10    3   34 1   
    11    4    5 1   
    12    4   35 1   
    13    4   36 1   
    14    5   37 1   
    15    5   38 1   
    16    5   39 1   
    17    6    7 1   
    18    7    8 1   
    19    7   13 1   
    20    7   40 1   
    21    8    9 1   
    22    8   19 1   
    23    8   41 1   
    24    9   10 1   
    25    9   42 1   
    26   10   11 1   
    27   10   12 2   
    28   11   43 1   
    29   11   44 1   
    30   11   45 1   
    31   13   14 1   
    32   13   46 1   
    33   13   47 1   
    34   14   15 1   
    35   14   18 2   
    36   15   16 1   
    37   15   17 1   
    38   18   19 1   
    39   18   48 1   
    40   19   20 1   
    41   19   49 1   
    42   20   21 1   
    43   20   22 1   
    44   21   24 2   
    45   21   50 1   
    46   22   23 2   
    47   23   24 1   
    48   24   25 1   
    49   25   26 1   
    50   25   28 1   
    51   25   51 1   
    52   26   27 1   
    53   26   52 1   
    54   26   53 1   
    55   27   54 1   
    56   27   55 1   
    57   27   56 1   
    58   28   57 1   
@<TRIPOS>SUBSTRUCTURE
     1 1SN         1 TEMP              0 ****  ****    0 ROOT
