@<TRIPOS>MOLECULE
1SN
   58    59     1     0     0
SMALL
bcc


@<TRIPOS>ATOM
      1 CAB         0.1740   -0.5270    0.0280 c3        1 1SN     -0.095600
      2 CAL         1.6420   -0.1910    0.0750 c3        1 1SN     -0.097900
      3 CAX         2.1770   -0.1880    1.5050 c3        1 1SN      0.144100
      4 CAM         3.6980   -0.3300    1.5160 c3        1 1SN     -0.097900
      5 CAC         4.2620   -0.4610    2.9060 c3        1 1SN     -0.095600
      6 OAR         1.8320    1.0890    2.0740 os        1 1SN     -0.470600
      7 CAZ         1.2820    1.0180    3.3900 c3        1 1SN      0.132100
      8 CBA         1.3690    2.4550    3.9740 c3        1 1SN      0.094500
      9 NAQ         2.7310    3.0540    3.7540 n4        1 1SN     -0.670800
     10 CAS         2.7480    4.5410    3.4770 c         1 1SN      0.566100
     11 CAD         4.0620    5.2070    3.7230 c3        1 1SN     -0.188100
     12 OAE         1.7210    5.0600    3.0720 o         1 1SN     -0.407100
     13 CAN        -0.1850    0.6110    3.3830 c3        1 1SN     -0.085200
     14 CAU        -0.7880    0.7960    4.7210 ce        1 1SN     -0.102400
     15 CAT        -2.0490   -0.0460    5.0080 c         1 1SN      0.913800
     16 OAG        -2.1700   -1.0990    4.3310 o         1 1SN     -0.789300
     17 OAF        -2.8290    0.3880    5.8900 o         1 1SN     -0.789300
     18 CAI        -0.2750    1.6030    5.6570 c2        1 1SN     -0.284200
     19 CAY         0.9910    2.3820    5.4880 c3        1 1SN      0.118200
     20 NBB         0.9190    3.7200    6.0720 na        1 1SN      0.037400
     21 CAJ        -0.2110    4.3360    6.6190 cc        1 1SN     -0.146600
     22 NAP         1.9940    4.5400    6.2080 nc        1 1SN     -0.285800
     23 NAO         1.6520    5.6150    6.7930 nd        1 1SN     -0.336000
     24 CAV         0.2730    5.5740    7.0960 cd        1 1SN      0.215600
     25 CAW        -0.4850    6.6610    7.7790 c3        1 1SN      0.129800
     26 CAK        -0.1430    6.6920    9.2690 c3        1 1SN     -0.109400
     27 CAA        -1.0300    7.6580   10.0090 c3        1 1SN     -0.095100
     28 OAH        -0.2590    7.9170    7.1630 oh        1 1SN     -0.584800
     29 H1         -0.0110   -1.5600    0.4110 hc        1 1SN      0.038867
     30 H2         -0.2010   -0.4670   -1.0220 hc        1 1SN      0.038867
     31 H3         -0.4110    0.1870    0.6580 hc        1 1SN      0.038867
     32 H4          2.2230   -0.9420   -0.5220 hc        1 1SN      0.052950
     33 H5          1.8170    0.8190   -0.3810 hc        1 1SN      0.052950
     34 H6          1.7050   -1.0210    2.0970 h1        1 1SN      0.074700
     35 H7          3.9660   -1.2420    0.9200 hc        1 1SN      0.052950
     36 H8          4.1510    0.5560    1.0010 hc        1 1SN      0.052950
     37 H9          5.3630   -0.6470    2.8620 hc        1 1SN      0.038867
     38 H10         3.7820   -1.3100    3.4530 hc        1 1SN      0.038867
     39 H11         4.0880    0.4750    3.4920 hc        1 1SN      0.038867
     40 H12         1.8880    0.3070    4.0200 h1        1 1SN      0.060700
     41 H13         0.6210    3.1010    3.4190 hx        1 1SN      0.146700
     42 H14         3.3240    2.8660    4.5680 hn        1 1SN      0.461800
     43 H15         4.9170    4.6090    3.3240 hc        1 1SN      0.106033
     44 H16         4.0490    6.2100    3.2200 hc        1 1SN      0.106033
     45 H17         4.2000    5.3670    4.8250 hc        1 1SN      0.106033
     46 H18        -0.7530    1.2160    2.6250 hc        1 1SN      0.102700
     47 H19        -0.2900   -0.4710    3.0830 hc        1 1SN      0.102700
     48 H22        -0.7720    1.6750    6.6400 ha        1 1SN      0.179000
     49 H24         1.8170    1.8250    6.0370 h1        1 1SN      0.069700
     50 H25        -1.2040    3.8770    6.6220 h4        1 1SN      0.231000
     51 H26        -1.5910    6.4840    7.6340 h1        1 1SN      0.091700
     52 H27         0.9320    6.9860    9.3940 hc        1 1SN      0.052200
     53 H28        -0.2630    5.6600    9.6900 hc        1 1SN      0.052200
     54 H29        -0.7090    7.7400   11.0750 hc        1 1SN      0.041367
     55 H30        -2.0930    7.3160    9.9840 hc        1 1SN      0.041367
     56 H31        -0.9770    8.6700    9.5380 hc        1 1SN      0.041367
     57 H32         0.6590    8.1650    7.3300 ho        1 1SN      0.406000
     58 HAQ2        3.1410    2.5810    2.9310 hn        1 1SN      0.461800
@<TRIPOS>BOND
     1    1    2 1   
     2    1   29 1   
     3    1   30 1   
     4    1   31 1   
     5    2    3 1   
     6    2   32 1   
     7    2   33 1   
     8    3    4 1   
     9    3    6 1   
    10    3   34 1   
    11    4    5 1   
    12    4   35 1   
    13    4   36 1   
    14    5   37 1   
    15    5   38 1   
    16    5   39 1   
    17    6    7 1   
    18    7    8 1   
    19    7   13 1   
    20    7   40 1   
    21    8    9 1   
    22    8   19 1   
    23    8   41 1   
    24    9   10 1   
    25    9   42 1   
    26    9   58 1   
    27   10   11 1   
    28   10   12 2   
    29   11   43 1   
    30   11   44 1   
    31   11   45 1   
    32   13   14 1   
    33   13   46 1   
    34   13   47 1   
    35   14   15 1   
    36   14   18 2   
    37   15   16 1   
    38   15   17 1   
    39   18   19 1   
    40   18   48 1   
    41   19   20 1   
    42   19   49 1   
    43   20   21 1   
    44   20   22 1   
    45   21   24 2   
    46   21   50 1   
    47   22   23 2   
    48   23   24 1   
    49   24   25 1   
    50   25   26 1   
    51   25   28 1   
    52   25   51 1   
    53   26   27 1   
    54   26   52 1   
    55   26   53 1   
    56   27   54 1   
    57   27   55 1   
    58   27   56 1   
    59   28   57 1   
@<TRIPOS>SUBSTRUCTURE
     1 1SN         1 TEMP              0 ****  ****    0 ROOT
