@<TRIPOS>MOLECULE
1SN
   58    59     1     0     0
SMALL
bcc


@<TRIPOS>ATOM
      1 CAB         0.1820   -0.5320    0.0310 c3        1 1SN     -0.095600
      2 CAL         1.6520   -0.2090    0.0900 c3        1 1SN     -0.097900
      3 CAX         2.1750   -0.2080    1.5260 c3        1 1SN      0.144100
      4 CAM         3.6930   -0.3640    1.5500 c3        1 1SN     -0.097900
      5 CAC         4.2440   -0.4980    2.9450 c3        1 1SN     -0.095600
      6 OAR         1.8370    1.0750    2.0870 os        1 1SN     -0.470600
      7 CAZ         1.2750    1.0120    3.3990 c3        1 1SN      0.132100
      8 CBA         1.3710    2.4500    3.9800 c3        1 1SN      0.094500
      9 NAQ         2.7400    3.0350    3.7710 ny        1 1SN     -0.670800
     10 CAS         2.7760    4.5210    3.4900 c         1 1SN      0.566100
     11 CAD         4.0930    5.1740    3.7460 c3        1 1SN     -0.188100
     12 OAE         1.7570    5.0490    3.0750 o         1 1SN     -0.407100
     13 CAN        -0.1970    0.6200    3.3790 c3        1 1SN     -0.085200
     14 CAU        -0.8100    0.8150    4.7120 ce        1 1SN     -0.102400
     15 CAT        -2.0820   -0.0130    4.9890 c         1 1SN      0.913800
     16 OAG        -2.2090   -1.0650    4.3120 o         1 1SN     -0.789300
     17 OAF        -2.8650    0.4310    5.8640 o         1 1SN     -0.789300
     18 CAI        -0.2980    1.6200    5.6500 c2        1 1SN     -0.284200
     19 CAY         0.9790    2.3850    5.4910 c3        1 1SN      0.118200
     20 NBB         0.9150    3.7250    6.0710 na        1 1SN      0.037400
     21 CAJ        -0.2140    4.3540    6.6060 cc        1 1SN     -0.146600
     22 NAP         1.9980    4.5340    6.2160 nc        1 1SN     -0.285800
     23 NAO         1.6610    5.6140    6.7950 nd        1 1SN     -0.336000
     24 CAV         0.2780    5.5880    7.0840 cd        1 1SN      0.215600
     25 CAW        -0.4740    6.6850    7.7570 c3        1 1SN      0.129800
     26 CAK        -0.1480    6.7130    9.2510 c3        1 1SN     -0.109400
     27 CAA        -1.0330    7.6910    9.9800 c3        1 1SN     -0.095100
     28 OAH        -0.2270    7.9370    7.1430 oh        1 1SN     -0.584800
     29 H1         -0.1840   -0.4700   -1.0220 hc        1 1SN      0.038867
     30 H2         -0.4020    0.1890    0.6550 hc        1 1SN      0.038867
     31 H3         -0.0170   -1.5620    0.4150 hc        1 1SN      0.038867
     32 H4          2.2310   -0.9660   -0.5000 hc        1 1SN      0.052950
     33 H5          1.8410    0.7980   -0.3660 hc        1 1SN      0.052950
     34 H6          1.6890   -1.0340    2.1150 h1        1 1SN      0.074700
     35 H7          4.1600    0.5160    1.0370 hc        1 1SN      0.052950
     36 H8          3.9580   -1.2810    0.9590 hc        1 1SN      0.052950
     37 H9          5.3430   -0.6940    2.9120 hc        1 1SN      0.038867
     38 H10         4.0740    0.4420    3.5270 hc        1 1SN      0.038867
     39 H11         3.7510   -1.3400    3.4900 hc        1 1SN      0.038867
     40 H12         1.8670    0.2970    4.0360 h1        1 1SN      0.060700
     41 H13         0.6350    3.1020    3.4170 hx        1 1SN      0.146700
     42 H14         3.1530    2.5550    2.9530 hn        1 1SN      0.461800
     43 H15         4.2240    5.3350    4.8490 hc        1 1SN      0.106033
     44 H16         4.0950    6.1760    3.2420 hc        1 1SN      0.106033
     45 H17         4.9460    4.5670    3.3570 hc        1 1SN      0.106033
     46 H18        -0.7510    1.2290    2.6140 hc        1 1SN      0.102700
     47 H19        -0.3090   -0.4620    3.0810 hc        1 1SN      0.102700
     48 H22        -0.8030    1.6990    6.6280 ha        1 1SN      0.179000
     49 H24         1.7940    1.8210    6.0490 h1        1 1SN      0.069700
     50 H25        -1.2110    3.9050    6.6010 h4        1 1SN      0.231000
     51 H26        -1.5800    6.5210    7.6000 h1        1 1SN      0.091700
     52 H27        -0.2850    5.6830    9.6720 hc        1 1SN      0.052200
     53 H28         0.9280    6.9950    9.3880 hc        1 1SN      0.052200
     54 H29        -0.9620    8.7020    9.5090 hc        1 1SN      0.041367
     55 H30        -2.0990    7.3610    9.9430 hc        1 1SN      0.041367
     56 H31        -0.7230    7.7690   11.0500 hc        1 1SN      0.041367
     57 H32         0.6920    8.1750    7.3200 ho        1 1SN      0.406000
     58 HAQ2        3.3240    2.8430    4.5910 hn        1 1SN      0.461800
@<TRIPOS>BOND
     1    1    2 1   
     2    1   29 1   
     3    1   30 1   
     4    1   31 1   
     5    2    3 1   
     6    2   32 1   
     7    2   33 1   
     8    3    4 1   
     9    3    6 1   
    10    3   34 1   
    11    4    5 1   
    12    4   35 1   
    13    4   36 1   
    14    5   37 1   
    15    5   38 1   
    16    5   39 1   
    17    6    7 1   
    18    7    8 1   
    19    7   13 1   
    20    7   40 1   
    21    8    9 1   
    22    8   19 1   
    23    8   41 1   
    24    9   10 1   
    25    9   42 1   
    26    9   58 1   
    27   10   11 1   
    28   10   12 2   
    29   11   43 1   
    30   11   44 1   
    31   11   45 1   
    32   13   14 1   
    33   13   46 1   
    34   13   47 1   
    35   14   15 1   
    36   14   18 2   
    37   15   16 1   
    38   15   17 1   
    39   18   19 1   
    40   18   48 1   
    41   19   20 1   
    42   19   49 1   
    43   20   21 1   
    44   20   22 1   
    45   21   24 2   
    46   21   50 1   
    47   22   23 2   
    48   23   24 1   
    49   24   25 1   
    50   25   26 1   
    51   25   28 1   
    52   25   51 1   
    53   26   27 1   
    54   26   52 1   
    55   26   53 1   
    56   27   54 1   
    57   27   55 1   
    58   27   56 1   
    59   28   57 1   
@<TRIPOS>SUBSTRUCTURE
     1 1SN         1 TEMP              0 ****  ****    0 ROOT
