@<TRIPOS>MOLECULE
1SN
   57    54     1     0     0
SMALL
bcc


@<TRIPOS>ATOM
      1 CAB        -4.8860    0.1820   -1.0050 c3        1 1SN     -0.215000
      2 CAL        -4.3300    1.5990   -1.1590 c3        1 1SN     -0.171500
      3 CAX        -3.4110    1.9150    0.0170 c3        1 1SN      0.033000
      4 CAM        -3.8080    3.2640    0.6240 c3        1 1SN     -0.171500
      5 CAC        -5.0260    3.0780    1.5230 c3        1 1SN     -0.215000
      6 OAR        -2.0420    1.9780   -0.4430 os        1 1SN     -0.290000
      7 CAZ        -1.0010    1.3610    0.5620 c3        1 1SN      0.016000
      8 CBA        -0.1660    0.7880   -0.0770 c3        1 1SN      0.047000
      9 NAQ        -0.8570   -0.3140   -0.8780 n         1 1SN     -0.355000
     10 CAS        -1.3200   -1.4750   -0.2260 c2        1 1SN      0.305000
     11 CAD        -2.0220   -2.5560   -1.0160 c3        1 1SN     -0.244000
     12 OAE        -1.1700   -1.5990    0.9740 o         1 1SN     -0.396000
     13 CAN        -0.4490    2.5840    1.5430 c3        1 1SN     -0.163000
     14 CAU         0.6840    2.1570    2.4150 c1        1 1SN     -0.092000
     15 CAT         1.1630    3.0640    3.5380 c1        1 1SN      0.355000
     16 OAG         0.9420    2.7500    4.7380 o         1 1SN     -0.557000
     17 OAF         1.8550    4.0880    3.2700 o         1 1SN     -0.557000
     18 CAI         1.7240    0.9780    1.7750 c1        1 1SN     -0.249000
     19 CAY         1.1200    0.0570    0.8420 c2        1 1SN      0.061000
     20 NBB         2.1020   -0.5470   -0.0120 n3        1 1SN     -0.127000
     21 CAJ         2.8350   -1.6320    0.2770 c1        1 1SN     -0.110000
     22 NAP         2.5350   -0.0540   -1.2030 n2        1 1SN     -0.028000
     23 NAO         3.5470   -0.8510   -1.6470 n2        1 1SN     -0.110000
     24 CAV         3.7370   -1.8200   -0.7450 c1        1 1SN     -0.235000
     25 CAW         4.7390   -2.9610   -0.8530 c2        1 1SN      0.120000
     26 CAK         5.4800   -2.8580   -2.1650 c3        1 1SN     -0.188000
     27 CAA         6.3910   -4.0620   -2.3270 c3        1 1SN     -0.209000
     28 OAH         5.6540   -2.8820    0.2070 oh        1 1SN     -0.330000
     29 H1         -5.5880    0.0310   -1.6760 hc        1 1SN      0.074000
     30 H2         -4.1620   -0.4710   -1.1350 hc        1 1SN      0.074000
     31 H3         -5.2650    0.0750   -0.1050 hc        1 1SN      0.074000
     32 H4         -3.8260    1.6610   -1.9910 hc        1 1SN      0.084500
     33 H5         -5.0720    2.2420   -1.1780 hc        1 1SN      0.084500
     34 H6         -3.4960    1.2200    0.6900 h1        1 1SN      0.096000
     35 H7         -4.0270    3.8970   -0.0970 hc        1 1SN      0.084500
     36 H8         -3.0680    3.6140    1.1490 hc        1 1SN      0.084500
     37 H9         -5.8040    2.8470    0.9750 hc        1 1SN      0.074000
     38 H10        -5.2040    3.9110    2.0090 hc        1 1SN      0.074000
     39 H11        -4.8530    2.3580    2.1630 hc        1 1SN      0.074000
     40 H12        -1.4650    0.7030    1.1220 h1        1 1SN      0.107000
     41 H13         0.2290    1.4230   -0.7040 h1        1 1SN      0.123000
     42 H14        -0.9550   -0.2280   -1.7770 hn        1 1SN      0.232000
     43 H15        -2.6250   -3.0540   -0.4250 hc        1 1SN      0.098333
     44 H16        -2.5390   -2.1470   -1.7420 hc        1 1SN      0.098333
     45 H17        -1.3570   -3.1680   -1.3940 hc        1 1SN      0.098333
     46 H18        -1.1810    2.9510    2.0730 hc        1 1SN      0.115500
     47 H19        -0.1950    3.3630    1.0130 hc        1 1SN      0.115500
     48 H22         2.4840    0.6750    2.3110 ha        1 1SN      0.155000
     49 H24         0.7860   -0.7290    1.3180 h4        1 1SN      0.128000
     50 H25         2.7450   -2.1870    1.0690 DU        1 1SN      0.201000
     51 H26         4.2680   -3.8120   -0.8120 h4        1 1SN      0.118000
     52 H27         6.0160   -2.0400   -2.1730 hc        1 1SN      0.095500
     53 H28         4.8370   -2.8340   -2.9010 hc        1 1SN      0.095500
     54 H29         5.8520   -4.8810   -2.3400 hc        1 1SN      0.071333
     55 H30         6.8880   -3.9850   -3.1660 hc        1 1SN      0.071333
     56 H31         7.0210   -4.0990   -1.5770 hc        1 1SN      0.071333
     57 H32         5.5360   -3.5700    0.7500 ho        1 1SN      0.203000
@<TRIPOS>BOND
     1    1    2 1   
     2    1   29 1   
     3    1   30 1   
     4    1   31 1   
     5    2    3 1   
     6    2   32 1   
     7    2   33 1   
     8    3    4 1   
     9    3    6 1   
    10    3   34 1   
    11    4    5 1   
    12    4   35 1   
    13    4   36 1   
    14    5   37 1   
    15    5   38 1   
    16    5   39 1   
    17    6    7 1   
    18    7    8 1   
    19    7   13 1   
    20    7   40 1   
    21    8    9 1   
    22    8   19 1   
    23    8   41 1   
    24    9   10 1   
    25    9   42 1   
    26   10   11 1   
    27   10   12 1   
    28   11   43 1   
    29   11   44 1   
    30   11   45 1   
    31   13   14 1   
    32   13   46 1   
    33   13   47 1   
    34   14   18 1   
    35   15   16 1   
    36   15   17 1   
    37   18   48 1   
    38   19   20 1   
    39   19   49 1   
    40   20   21 1   
    41   20   22 1   
    42   21   24 1   
    43   22   23 1   
    44   23   24 1   
    45   25   26 1   
    46   25   28 1   
    47   25   51 1   
    48   26   27 1   
    49   26   52 1   
    50   26   53 1   
    51   27   54 1   
    52   27   55 1   
    53   27   56 1   
    54   28   57 1   
@<TRIPOS>SUBSTRUCTURE
     1 1SN         1 TEMP              0 ****  ****    0 ROOT
