@<TRIPOS>MOLECULE
1SO
   58    59     1     0     0
SMALL
bcc


@<TRIPOS>ATOM
      1 CAD        -0.0800    0.7630    0.7840 c3        1 1SO     -0.125600
      2 CBB         1.1350    0.1330    0.1070 c3        1 1SO      0.142500
      3 CAE         2.0960   -0.4190    1.1570 c3        1 1SO     -0.125600
      4 OAI         0.7170   -0.9230   -0.7660 oh        1 1SO     -0.589800
      5 CAV         1.8300    1.1310   -0.7600 cc        1 1SO      0.260600
      6 CAK         3.1960    1.4920   -0.7680 cd        1 1SO     -0.147600
      7 NAO         1.2040    1.8840   -1.7790 nc        1 1SO     -0.313000
      8 NAP         2.0620    2.6290   -2.3470 nd        1 1SO     -0.291800
      9 NBA         3.2880    2.4440   -1.7880 na        1 1SO      0.034400
     10 CAX         4.4790    3.1900   -2.1870 c3        1 1SO      0.119200
     11 CAZ         4.9000    2.8250   -3.6470 c3        1 1SO      0.093500
     12 NAQ         3.8380    3.1750   -4.6520 n4        1 1SO     -0.670800
     13 CAS         2.8930    2.0500   -5.0140 c         1 1SO      0.566100
     14 OAF         3.2650    0.9060   -4.8140 o         1 1SO     -0.407100
     15 CAC         1.5940    2.4870   -5.6060 c3        1 1SO     -0.188100
     16 CAJ         5.6370    2.9800   -1.2630 c2        1 1SO     -0.282200
     17 CAU         6.9080    2.8790   -1.6690 ce        1 1SO     -0.104400
     18 CAT         8.0570    2.7540   -0.6470 c         1 1SO      0.913800
     19 OAH         9.1820    3.1590   -1.0340 o         1 1SO     -0.790300
     20 OAG         7.7640    2.2690    0.4730 o         1 1SO     -0.790300
     21 CAN         7.3170    2.9170   -3.0910 c3        1 1SO     -0.084200
     22 CAY         6.2350    3.5560   -3.9520 c3        1 1SO      0.131100
     23 OAR         6.4790    3.3770   -5.3480 os        1 1SO     -0.470600
     24 CAW         7.4610    4.2750   -5.8990 c3        1 1SO      0.144100
     25 CAM         8.3900    3.4290   -6.7670 c3        1 1SO     -0.097400
     26 CAB         9.4440    2.7350   -5.9450 c3        1 1SO     -0.095600
     27 CAL         6.7400    5.3260   -6.7400 c3        1 1SO     -0.097400
     28 CAA         5.9090    6.2680   -5.9100 c3        1 1SO     -0.095600
     29 H1          0.2300    1.6630    1.3640 hc        1 1SO      0.051200
     30 H2         -0.5490    0.0270    1.4800 hc        1 1SO      0.051200
     31 H3         -0.8340    1.0630    0.0180 hc        1 1SO      0.051200
     32 H4          1.5620   -1.1520    1.8080 hc        1 1SO      0.051200
     33 H5          2.9500   -0.9400    0.6610 hc        1 1SO      0.051200
     34 H6          2.4900    0.4080    1.7930 hc        1 1SO      0.051200
     35 H7          0.2310   -1.5510   -0.2170 ho        1 1SO      0.403000
     36 H8          4.0510    1.1670   -0.1680 h4        1 1SO      0.230000
     37 H9          4.2050    4.2930   -2.1590 h1        1 1SO      0.070700
     38 H10         5.0870    1.7100   -3.7270 hx        1 1SO      0.146700
     39 H11         4.3240    3.4620   -5.5190 hn        1 1SO      0.461800
     40 H12         1.1310    1.6100   -6.1280 hc        1 1SO      0.106700
     41 H13         1.7230    3.3220   -6.3360 hc        1 1SO      0.106700
     42 H14         0.9010    2.8140   -4.7850 hc        1 1SO      0.106700
     43 H15         5.4120    2.9610   -0.1830 ha        1 1SO      0.178000
     44 H18         7.5330    1.8740   -3.4490 hc        1 1SO      0.102200
     45 H19         6.1380    4.6530   -3.7180 h1        1 1SO      0.059700
     46 H20         8.0450    4.7700   -5.0750 h1        1 1SO      0.074700
     47 H21         8.8780    4.0960   -7.5240 hc        1 1SO      0.052700
     48 H22         7.7790    2.6710   -7.3230 hc        1 1SO      0.052700
     49 H23        10.1120    3.4770   -5.4430 hc        1 1SO      0.038867
     50 H24         8.9710    2.1030   -5.1540 hc        1 1SO      0.038867
     51 H25        10.0710    2.0800   -6.5970 hc        1 1SO      0.038867
     52 H26         7.5150    5.9130   -7.3010 hc        1 1SO      0.052700
     53 H27         6.0940    4.8100   -7.4960 hc        1 1SO      0.052700
     54 H28         5.4690    7.0680   -6.5540 hc        1 1SO      0.038867
     55 H29         5.0710    5.7200   -5.4120 hc        1 1SO      0.038867
     56 H30         6.5280    6.7540   -5.1170 hc        1 1SO      0.038867
     57 H16         8.2800    3.4980   -3.1770 hc        1 1SO      0.102200
     58 HAQ2        3.2870    3.9680   -4.3090 hn        1 1SO      0.461800
@<TRIPOS>BOND
     1    1    2 1   
     2    1   29 1   
     3    1   30 1   
     4    1   31 1   
     5    2    3 1   
     6    2    4 1   
     7    2    5 1   
     8    3   32 1   
     9    3   33 1   
    10    3   34 1   
    11    4   35 1   
    12    5    6 2   
    13    5    7 1   
    14    6    9 1   
    15    6   36 1   
    16    7    8 2   
    17    8    9 1   
    18    9   10 1   
    19   10   11 1   
    20   10   16 1   
    21   10   37 1   
    22   11   12 1   
    23   11   22 1   
    24   11   38 1   
    25   12   13 1   
    26   12   39 1   
    27   12   58 1   
    28   13   14 2   
    29   13   15 1   
    30   15   40 1   
    31   15   41 1   
    32   15   42 1   
    33   16   17 2   
    34   16   43 1   
    35   17   18 1   
    36   17   21 1   
    37   18   19 1   
    38   18   20 1   
    39   21   22 1   
    40   21   44 1   
    41   21   57 1   
    42   22   23 1   
    43   22   45 1   
    44   23   24 1   
    45   24   25 1   
    46   24   27 1   
    47   24   46 1   
    48   25   26 1   
    49   25   47 1   
    50   25   48 1   
    51   26   49 1   
    52   26   50 1   
    53   26   51 1   
    54   27   28 1   
    55   27   52 1   
    56   27   53 1   
    57   28   54 1   
    58   28   55 1   
    59   28   56 1   
@<TRIPOS>SUBSTRUCTURE
     1 1SO         1 TEMP              0 ****  ****    0 ROOT
