@<TRIPOS>MOLECULE
1SO
   58    59     1     0     0
SMALL
bcc


@<TRIPOS>ATOM
      1 CAD        -0.0800    0.7580    0.7800 c3        1 1SO     -0.125600
      2 CBB         1.1380    0.1290    0.1060 c3        1 1SO      0.142500
      3 CAE         2.0990   -0.4160    1.1600 c3        1 1SO     -0.125600
      4 OAI         0.7240   -0.9310   -0.7630 oh        1 1SO     -0.589800
      5 CAV         1.8310    1.1260   -0.7620 cc        1 1SO      0.260600
      6 CAK         3.1960    1.4920   -0.7700 cd        1 1SO     -0.147600
      7 NAO         1.2040    1.8730   -1.7850 nc        1 1SO     -0.313000
      8 NAP         2.0600    2.6190   -2.3550 nd        1 1SO     -0.291800
      9 NBA         3.2860    2.4410   -1.7930 na        1 1SO      0.034400
     10 CAX         4.4750    3.1890   -2.1920 c3        1 1SO      0.119200
     11 CAZ         4.9000    2.8210   -3.6500 c3        1 1SO      0.093500
     12 NAQ         3.8380    3.1630   -4.6590 n4        1 1SO     -0.670800
     13 CAS         2.8980    2.0330   -5.0180 c         1 1SO      0.566100
     14 OAF         3.2740    0.8910   -4.8130 o         1 1SO     -0.407100
     15 CAC         1.5990    2.4640   -5.6140 c3        1 1SO     -0.188100
     16 CAJ         5.6330    2.9870   -1.2660 c2        1 1SO     -0.282200
     17 CAU         6.9040    2.8900   -1.6690 ce        1 1SO     -0.104400
     18 CAT         8.0520    2.7720   -0.6450 c         1 1SO      0.913800
     19 OAH         9.1770    3.1800   -1.0320 o         1 1SO     -0.790300
     20 OAG         7.7590    2.2890    0.4760 o         1 1SO     -0.790300
     21 CAN         7.3160    2.9240   -3.0910 c3        1 1SO     -0.084200
     22 CAY         6.2330    3.5560   -3.9550 c3        1 1SO      0.131100
     23 OAR         6.4790    3.3730   -5.3510 os        1 1SO     -0.470600
     24 CAW         7.4590    4.2730   -5.9030 c3        1 1SO      0.144100
     25 CAM         8.3930    3.4270   -6.7670 c3        1 1SO     -0.097400
     26 CAB         9.4490    2.7400   -5.9410 c3        1 1SO     -0.095600
     27 CAL         6.7360    5.3190   -6.7480 c3        1 1SO     -0.097400
     28 CAA         5.8990    6.2600   -5.9240 c3        1 1SO     -0.095600
     29 H1          0.2260    1.6610    1.3580 hc        1 1SO      0.051367
     30 H2         -0.5470    0.0230    1.4780 hc        1 1SO      0.051367
     31 H3         -0.8340    1.0530    0.0120 hc        1 1SO      0.051367
     32 H4          2.9560   -0.9360    0.6670 hc        1 1SO      0.051367
     33 H5          2.4900    0.4140    1.7940 hc        1 1SO      0.051367
     34 H6          1.5670   -1.1490    1.8130 hc        1 1SO      0.051367
     35 H7          0.2390   -1.5580   -0.2130 ho        1 1SO      0.403000
     36 H8          4.0500    1.1720   -0.1670 h4        1 1SO      0.230000
     37 H9          4.1970    4.2920   -2.1680 h1        1 1SO      0.070700
     38 H10         5.0910    1.7060   -3.7260 hx        1 1SO      0.146700
     39 H11         3.2840    3.9560   -4.3190 hn        1 1SO      0.461800
     40 H12         0.9030    2.7910   -4.7960 hc        1 1SO      0.106700
     41 H13         1.7260    3.2960   -6.3470 hc        1 1SO      0.106700
     42 H14         1.1390    1.5830   -6.1330 hc        1 1SO      0.106700
     43 H15         5.4050    2.9710   -0.1860 ha        1 1SO      0.178000
     44 H18         7.5370    1.8810   -3.4450 hc        1 1SO      0.102200
     45 H19         6.1320    4.6540   -3.7260 h1        1 1SO      0.059700
     46 H20         8.0400    4.7730   -5.0790 h1        1 1SO      0.074700
     47 H21         8.8790    4.0940   -7.5260 hc        1 1SO      0.052700
     48 H22         7.7850    2.6650   -7.3210 hc        1 1SO      0.052700
     49 H23        10.0790    2.0850   -6.5890 hc        1 1SO      0.038867
     50 H24         8.9770    2.1100   -5.1480 hc        1 1SO      0.038867
     51 H25        10.1130    3.4870   -5.4410 hc        1 1SO      0.038867
     52 H26         6.0930    4.7970   -7.5040 hc        1 1SO      0.052700
     53 H27         7.5100    5.9070   -7.3110 hc        1 1SO      0.052700
     54 H28         5.0630    5.7100   -5.4250 hc        1 1SO      0.038867
     55 H29         5.4580    7.0560   -6.5710 hc        1 1SO      0.038867
     56 H30         6.5150    6.7500   -5.1300 hc        1 1SO      0.038867
     57 H16         8.2760    3.5090   -3.1770 hc        1 1SO      0.102200
     58 HAQ2        4.3240    3.4490   -5.5250 hn        1 1SO      0.461800
@<TRIPOS>BOND
     1    1    2 1   
     2    1   29 1   
     3    1   30 1   
     4    1   31 1   
     5    2    3 1   
     6    2    4 1   
     7    2    5 1   
     8    3   32 1   
     9    3   33 1   
    10    3   34 1   
    11    4   35 1   
    12    5    6 2   
    13    5    7 1   
    14    6    9 1   
    15    6   36 1   
    16    7    8 2   
    17    8    9 1   
    18    9   10 1   
    19   10   11 1   
    20   10   16 1   
    21   10   37 1   
    22   11   12 1   
    23   11   22 1   
    24   11   38 1   
    25   12   13 1   
    26   12   39 1   
    27   12   58 1   
    28   13   14 2   
    29   13   15 1   
    30   15   40 1   
    31   15   41 1   
    32   15   42 1   
    33   16   17 2   
    34   16   43 1   
    35   17   18 1   
    36   17   21 1   
    37   18   19 1   
    38   18   20 1   
    39   21   22 1   
    40   21   44 1   
    41   21   57 1   
    42   22   23 1   
    43   22   45 1   
    44   23   24 1   
    45   24   25 1   
    46   24   27 1   
    47   24   46 1   
    48   25   26 1   
    49   25   47 1   
    50   25   48 1   
    51   26   49 1   
    52   26   50 1   
    53   26   51 1   
    54   27   28 1   
    55   27   52 1   
    56   27   53 1   
    57   28   54 1   
    58   28   55 1   
    59   28   56 1   
@<TRIPOS>SUBSTRUCTURE
     1 1SO         1 TEMP              0 ****  ****    0 ROOT
