@<TRIPOS>MOLECULE
1SO
   58    59     1     0     0
SMALL
bcc


@<TRIPOS>ATOM
      1 CAD        -0.0890    0.7510    0.7640 c3        1 1SO     -0.125600
      2 CBB         1.1240    0.1210    0.0840 c3        1 1SO      0.142500
      3 CAE         2.0820   -0.4410    1.1310 c3        1 1SO     -0.125600
      4 OAI         0.7030   -0.9280   -0.7960 oh        1 1SO     -0.589800
      5 CAV         1.8230    1.1220   -0.7760 cc        1 1SO      0.260600
      6 CAK         3.1900    1.4780   -0.7800 cd        1 1SO     -0.147600
      7 NAO         1.2000    1.8840   -1.7900 nc        1 1SO     -0.313000
      8 NAP         2.0610    2.6300   -2.3530 nd        1 1SO     -0.291800
      9 NBA         3.2860    2.4370   -1.7940 na        1 1SO      0.034400
     10 CAX         4.4790    3.1810   -2.1870 c3        1 1SO      0.119200
     11 CAZ         4.9010    2.8250   -3.6490 c3        1 1SO      0.093500
     12 NAQ         3.8410    3.1850   -4.6530 ny        1 1SO     -0.670800
     13 CAS         2.8930    2.0650   -5.0230 c         1 1SO      0.566100
     14 OAF         3.2610    0.9180   -4.8300 o         1 1SO     -0.407100
     15 CAC         1.5960    2.5110   -5.6130 c3        1 1SO     -0.188100
     16 CAJ         5.6370    2.9620   -1.2640 c2        1 1SO     -0.282200
     17 CAU         6.9070    2.8600   -1.6690 ce        1 1SO     -0.104400
     18 CAT         8.0550    2.7240   -0.6470 c         1 1SO      0.913800
     19 OAH         9.1820    3.1280   -1.0310 o         1 1SO     -0.790300
     20 OAG         7.7600    2.2320    0.4690 o         1 1SO     -0.790300
     21 CAN         7.3180    2.9050   -3.0900 c3        1 1SO     -0.084200
     22 CAY         6.2390    3.5540   -3.9480 c3        1 1SO      0.131100
     23 OAR         6.4830    3.3840   -5.3450 os        1 1SO     -0.470600
     24 CAW         7.4680    4.2820   -5.8890 c3        1 1SO      0.144100
     25 CAM         8.3960    3.4390   -6.7620 c3        1 1SO     -0.097400
     26 CAB         9.4480    2.7370   -5.9440 c3        1 1SO     -0.095600
     27 CAL         6.7520    5.3420   -6.7230 c3        1 1SO     -0.097400
     28 CAA         5.9220    6.2800   -5.8880 c3        1 1SO     -0.095600
     29 H1          0.2230    1.6460    1.3510 hc        1 1SO      0.051367
     30 H2         -0.8420    1.0580   -0.0010 hc        1 1SO      0.051367
     31 H3         -0.5610    0.0120    1.4550 hc        1 1SO      0.051367
     32 H4          2.9350   -0.9620    0.6330 hc        1 1SO      0.051367
     33 H5          1.5450   -1.1760    1.7770 hc        1 1SO      0.051367
     34 H6          2.4780    0.3810    1.7730 hc        1 1SO      0.051367
     35 H7          0.2140   -1.5570   -0.2520 ho        1 1SO      0.403000
     36 H8          4.0430    1.1470   -0.1820 h4        1 1SO      0.230000
     37 H9          4.2090    4.2850   -2.1520 h1        1 1SO      0.070700
     38 H10         5.0850    1.7100   -3.7370 hx        1 1SO      0.146700
     39 H11         3.2930    3.9780   -4.3050 hn        1 1SO      0.461800
     40 H12         0.9030    2.8340   -4.7910 hc        1 1SO      0.106700
     41 H13         1.1300    1.6380   -6.1410 hc        1 1SO      0.106700
     42 H14         1.7280    3.3500   -6.3380 hc        1 1SO      0.106700
     43 H15         5.4100    2.9360   -0.1830 ha        1 1SO      0.178000
     44 H18         7.5310    1.8650   -3.4560 hc        1 1SO      0.102200
     45 H19         6.1450    4.6500   -3.7070 h1        1 1SO      0.059700
     46 H20         8.0530    4.7700   -5.0610 h1        1 1SO      0.074700
     47 H21         7.7820    2.6860   -7.3230 hc        1 1SO      0.052700
     48 H22         8.8860    4.1100   -7.5150 hc        1 1SO      0.052700
     49 H23         8.9720    2.1010   -5.1570 hc        1 1SO      0.038867
     50 H24        10.0730    2.0840   -6.6000 hc        1 1SO      0.038867
     51 H25        10.1170    3.4740   -5.4370 hc        1 1SO      0.038867
     52 H26         6.1050    4.8320   -7.4840 hc        1 1SO      0.052700
     53 H27         7.5290    5.9300   -7.2800 hc        1 1SO      0.052700
     54 H28         5.0830    5.7310   -5.3940 hc        1 1SO      0.038867
     55 H29         5.4860    7.0860   -6.5260 hc        1 1SO      0.038867
     56 H30         6.5420    6.7580   -5.0900 hc        1 1SO      0.038867
     57 H16         8.2830    3.4840   -3.1720 hc        1 1SO      0.102200
     58 HAQ2        4.3280    3.4760   -5.5170 hn        1 1SO      0.461800
@<TRIPOS>BOND
     1    1    2 1   
     2    1   29 1   
     3    1   30 1   
     4    1   31 1   
     5    2    3 1   
     6    2    4 1   
     7    2    5 1   
     8    3   32 1   
     9    3   33 1   
    10    3   34 1   
    11    4   35 1   
    12    5    6 2   
    13    5    7 1   
    14    6    9 1   
    15    6   36 1   
    16    7    8 2   
    17    8    9 1   
    18    9   10 1   
    19   10   11 1   
    20   10   16 1   
    21   10   37 1   
    22   11   12 1   
    23   11   22 1   
    24   11   38 1   
    25   12   13 1   
    26   12   39 1   
    27   12   58 1   
    28   13   14 2   
    29   13   15 1   
    30   15   40 1   
    31   15   41 1   
    32   15   42 1   
    33   16   17 2   
    34   16   43 1   
    35   17   18 1   
    36   17   21 1   
    37   18   19 1   
    38   18   20 1   
    39   21   22 1   
    40   21   44 1   
    41   21   57 1   
    42   22   23 1   
    43   22   45 1   
    44   23   24 1   
    45   24   25 1   
    46   24   27 1   
    47   24   46 1   
    48   25   26 1   
    49   25   47 1   
    50   25   48 1   
    51   26   49 1   
    52   26   50 1   
    53   26   51 1   
    54   27   28 1   
    55   27   52 1   
    56   27   53 1   
    57   28   54 1   
    58   28   55 1   
    59   28   56 1   
@<TRIPOS>SUBSTRUCTURE
     1 1SO         1 TEMP              0 ****  ****    0 ROOT
