@<TRIPOS>MOLECULE
1SO
   57    53     1     0     0
SMALL
bcc


@<TRIPOS>ATOM
      1 CAD        -3.3490   -2.6910    3.7440 c3        1 1SO     -0.234000
      2 CBB        -2.1810   -3.1150    2.9060 c3        1 1SO      0.173000
      3 CAE        -1.0780   -3.7190    3.8230 c3        1 1SO     -0.234000
      4 OAI        -2.6000   -4.0880    1.9660 oh        1 1SO     -0.330000
      5 CAV        -1.6160   -1.8940    2.1580 c2        1 1SO     -0.194000
      6 CAK        -2.2300   -1.2240    1.1000 c1        1 1SO     -0.105000
      7 NAO        -0.4330   -1.2770    2.4150 n2        1 1SO     -0.123000
      8 NAP        -0.2980   -0.2350    1.5360 n2        1 1SO      0.036000
      9 NBA        -1.4200   -0.2090    0.7220 n2        1 1SO     -0.131000
     10 CAX        -1.7600    0.8380   -0.2150 c2        1 1SO      0.068000
     11 CAZ        -0.7860    0.7710   -1.5540 c3        1 1SO      0.012000
     12 NAQ        -1.4250    1.6180   -2.6410 n3        1 1SO     -0.360000
     13 CAS        -2.0880    0.9870   -3.7340 c1        1 1SO      0.297000
     14 OAF        -2.1410   -0.2390   -3.7920 o         1 1SO     -0.393000
     15 CAC        -2.7230    1.8260   -4.8270 c2        1 1SO     -0.243000
     16 CAJ        -1.7270    2.1310    0.4230 c2        1 1SO     -0.239000
     17 CAU        -0.2320    2.9580    0.3550 c1        1 1SO     -0.084000
     18 CAT        -0.0320    4.2260    1.1550 c1        1 1SO      0.351000
     19 OAH         0.2190    5.3040    0.5650 o         1 1SO     -0.566000
     20 OAG        -0.2560    4.2270    2.3990 os        1 1SO     -0.549000
     21 CAN         0.5800    2.7070   -0.8350 c3        1 1SO     -0.176000
     22 CAY         0.4240    1.1810   -1.3870 c3        1 1SO      0.030000
     23 OAR         1.1080    0.2440   -0.3920 os        1 1SO     -0.281000
     24 CAW         2.5340    0.1040   -0.6040 c3        1 1SO      0.033000
     25 CAM         2.8670   -1.3900   -0.9340 c3        1 1SO     -0.176000
     26 CAB         3.9040   -1.4440   -2.0780 c3        1 1SO     -0.210000
     27 CAL         3.2760    0.5230    0.6520 c3        1 1SO     -0.176000
     28 CAA         4.6170    1.1820    0.2650 c3        1 1SO     -0.210000
     29 H1         -3.0900   -1.9310    4.3030 hc        1 1SO      0.082500
     30 H2         -4.0850   -2.4320    3.1650 hc        1 1SO      0.082500
     31 H3         -3.6270   -3.4300    4.3100 hc        1 1SO      0.082500
     32 H4         -1.4480   -4.5030    4.3180 hc        1 1SO      0.082500
     33 H5         -0.3170   -4.0080    3.2720 hc        1 1SO      0.082500
     34 H6         -0.7780   -3.0380    4.4650 hc        1 1SO      0.082500
     35 H7         -2.9990   -4.7520    2.3890 ho        1 1SO      0.191000
     36 H8         -3.1050   -1.4230    0.7300 DU        1 1SO      0.197000
     37 H9         -2.6680    0.5930   -0.4410 ha        1 1SO      0.097000
     38 H10        -0.7540   -0.1600   -1.8660 h1        1 1SO      0.135000
     39 H11        -1.4570    2.5210   -2.5520 hn        1 1SO      0.243000
     40 H12        -3.3850    2.4300   -4.4310 ha        1 1SO      0.101667
     41 H13        -2.0350    2.3460   -5.2750 ha        1 1SO      0.101667
     42 H14        -3.1570    1.2460   -5.4690 ha        1 1SO      0.101667
     43 H15        -2.3710    2.3470    1.1200 ha        1 1SO      0.156000
     44 H18         0.3510    3.3740   -1.5590 hc        1 1SO      0.122000
     45 H19         0.9020    1.1150   -2.2630 h1        1 1SO      0.076000
     46 H20         2.8050    0.6630   -1.3380 h1        1 1SO      0.091000
     47 H21         2.0600   -1.8480   -1.2080 hc        1 1SO      0.091500
     48 H22         3.2370   -1.8280   -0.1340 hc        1 1SO      0.091500
     49 H23         3.5110   -1.9180   -2.8580 hc        1 1SO      0.069500
     50 H24         4.7080   -1.9270   -1.7720 hc        1 1SO      0.069500
     51 H25         4.1490   -0.5340   -2.3390 hc        1 1SO      0.069500
     52 H26         3.4480   -0.2680    1.2100 hc        1 1SO      0.091500
     53 H27         2.7250    1.1720    1.1590 hc        1 1SO      0.091500
     54 H28         4.9960    1.6420    1.0520 hc        1 1SO      0.069500
     55 H29         5.2510    0.4840   -0.0490 hc        1 1SO      0.069500
     56 H30         4.4640    1.8370   -0.4570 hc        1 1SO      0.069500
     57 H16         1.5130    2.9220   -0.6740 hc        1 1SO      0.122000
@<TRIPOS>BOND
     1    1    2 1   
     2    1   29 1   
     3    1   30 1   
     4    1   31 1   
     5    2    3 1   
     6    2    4 1   
     7    2    5 1   
     8    3   32 1   
     9    3   33 1   
    10    3   34 1   
    11    4   35 1   
    12    5    6 1   
    13    5    7 1   
    14    6    9 1   
    15    7    8 1   
    16    8    9 1   
    17   10   11 1   
    18   10   16 1   
    19   10   37 1   
    20   11   12 1   
    21   11   22 1   
    22   11   38 1   
    23   12   13 1   
    24   12   39 1   
    25   13   14 1   
    26   15   40 1   
    27   15   41 1   
    28   15   42 1   
    29   16   17 1   
    30   16   43 1   
    31   17   21 1   
    32   18   19 1   
    33   21   22 1   
    34   21   44 1   
    35   21   57 1   
    36   22   23 1   
    37   22   45 1   
    38   23   24 1   
    39   24   25 1   
    40   24   27 1   
    41   24   46 1   
    42   25   26 1   
    43   25   47 1   
    44   25   48 1   
    45   26   49 1   
    46   26   50 1   
    47   26   51 1   
    48   27   28 1   
    49   27   52 1   
    50   27   53 1   
    51   28   54 1   
    52   28   55 1   
    53   28   56 1   
@<TRIPOS>SUBSTRUCTURE
     1 1SO         1 TEMP              0 ****  ****    0 ROOT
