@<TRIPOS>MOLECULE
1SO
   57    58     1     0     0
SMALL
bcc


@<TRIPOS>ATOM
      1 CAD        -6.2080   -0.2990    0.6550 c3        1 1SO     -0.101100
      2 CBB        -5.1750   -0.0180   -0.4340 c3        1 1SO      0.153500
      3 CAE        -5.0800   -1.2040   -1.3950 c3        1 1SO     -0.101100
      4 OAI        -5.6700    1.1150   -1.1520 oh        1 1SO     -0.602800
      5 CAV        -3.8380    0.2580    0.1660 cc        1 1SO      0.178600
      6 CAK        -2.6640   -0.5240    0.1110 cd        1 1SO     -0.176600
      7 NAO        -3.5220    1.4030    0.9350 nc        1 1SO     -0.357000
      8 NAP        -2.3070    1.3470    1.3080 nd        1 1SO     -0.196800
      9 NBA        -1.7340    0.2060    0.8550 na        1 1SO      0.075400
     10 CAX        -0.3300   -0.1640    1.0490 c3        1 1SO      0.095200
     11 CAZ         0.6000    0.5780    0.0200 c3        1 1SO      0.090700
     12 NAQ         0.4910    2.0060    0.1440 n         1 1SO     -0.551900
     13 CAS         0.0190    2.8220   -0.8630 c         1 1SO      0.672100
     14 OAF        -0.4060    2.3660   -1.9440 o         1 1SO     -0.619100
     15 CAC         0.0110    4.3090   -0.5880 c3        1 1SO     -0.174100
     16 CAJ        -0.1250   -1.6460    0.9840 c2        1 1SO     -0.261200
     17 CAU         0.9730   -2.2190    0.4760 ce        1 1SO     -0.113400
     18 CAT         1.1750   -3.7340    0.5330 c         1 1SO      0.905800
     19 OAH         0.1470   -4.4630    0.5610 o         1 1SO     -0.819800
     20 OAG         2.3640   -4.1550    0.5530 o         1 1SO     -0.819800
     21 CAN         2.0690   -1.4420   -0.1470 c3        1 1SO     -0.080200
     22 CAY         2.0310    0.0240    0.2710 c3        1 1SO      0.125100
     23 OAR         2.9380    0.7990   -0.5180 os        1 1SO     -0.421600
     24 CAW         4.3080    0.6810   -0.1170 c3        1 1SO      0.140100
     25 CAM         5.1310    0.5050   -1.3940 c3        1 1SO     -0.091900
     26 CAB         5.0940   -0.9170   -1.8880 c3        1 1SO     -0.095100
     27 CAL         4.7290    1.9590    0.6110 c3        1 1SO     -0.091900
     28 CAA         4.1030    2.0790    1.9750 c3        1 1SO     -0.095100
     29 H1         -7.2000   -0.5010    0.1860 hc        1 1SO      0.043700
     30 H2         -5.8910   -1.1850    1.2510 hc        1 1SO      0.043700
     31 H3         -6.3010    0.5870    1.3260 hc        1 1SO      0.043700
     32 H4         -6.0690   -1.3610   -1.8870 hc        1 1SO      0.043700
     33 H5         -4.3160   -1.0030   -2.1830 hc        1 1SO      0.043700
     34 H6         -4.7940   -2.1270   -0.8390 hc        1 1SO      0.043700
     35 H7         -4.9260    1.4920   -1.6360 ho        1 1SO      0.409000
     36 H8         -2.4310   -1.4820   -0.3550 h4        1 1SO      0.213000
     37 H9         -0.0470    0.1810    2.0930 h1        1 1SO      0.066700
     38 H10         0.2950    0.2910   -1.0310 h1        1 1SO      0.110700
     39 H11         0.8720    2.4190    0.9600 hn        1 1SO      0.303500
     40 H12         1.0350    4.6700   -0.3300 hc        1 1SO      0.059700
     41 H13        -0.3430    4.8390   -1.5040 hc        1 1SO      0.059700
     42 H14        -0.6840    4.5390    0.2560 hc        1 1SO      0.059700
     43 H15        -0.9120   -2.2790    1.4280 ha        1 1SO      0.157000
     44 H18         3.0550   -1.9050    0.1360 hc        1 1SO      0.079700
     45 H19         2.2950    0.1290    1.3600 h1        1 1SO      0.036700
     46 H20         4.4550   -0.2070    0.5580 h1        1 1SO      0.057700
     47 H21         4.7230    1.1920   -2.1810 hc        1 1SO      0.041200
     48 H22         6.1900    0.8080   -1.1880 hc        1 1SO      0.041200
     49 H23         4.0370   -1.2420   -2.0530 hc        1 1SO      0.036033
     50 H24         5.6520   -1.0080   -2.8510 hc        1 1SO      0.036033
     51 H25         5.5560   -1.6100   -1.1440 hc        1 1SO      0.036033
     52 H26         5.8460    1.9590    0.7120 hc        1 1SO      0.041200
     53 H27         4.4410    2.8420   -0.0180 hc        1 1SO      0.041200
     54 H28         4.4920    2.9830    2.5020 hc        1 1SO      0.036033
     55 H29         2.9930    2.1720    1.8870 hc        1 1SO      0.036033
     56 H30         4.3310    1.1800    2.5980 hc        1 1SO      0.036033
     57 H16         1.9800   -1.5160   -1.2650 hc        1 1SO      0.079700
@<TRIPOS>BOND
     1    1    2 1   
     2    1   29 1   
     3    1   30 1   
     4    1   31 1   
     5    2    3 1   
     6    2    4 1   
     7    2    5 1   
     8    3   32 1   
     9    3   33 1   
    10    3   34 1   
    11    4   35 1   
    12    5    6 2   
    13    5    7 1   
    14    6    9 1   
    15    6   36 1   
    16    7    8 2   
    17    8    9 1   
    18    9   10 1   
    19   10   11 1   
    20   10   16 1   
    21   10   37 1   
    22   11   12 1   
    23   11   22 1   
    24   11   38 1   
    25   12   13 1   
    26   12   39 1   
    27   13   14 2   
    28   13   15 1   
    29   15   40 1   
    30   15   41 1   
    31   15   42 1   
    32   16   17 2   
    33   16   43 1   
    34   17   18 1   
    35   17   21 1   
    36   18   19 1   
    37   18   20 1   
    38   21   22 1   
    39   21   44 1   
    40   21   57 1   
    41   22   23 1   
    42   22   45 1   
    43   23   24 1   
    44   24   25 1   
    45   24   27 1   
    46   24   46 1   
    47   25   26 1   
    48   25   47 1   
    49   25   48 1   
    50   26   49 1   
    51   26   50 1   
    52   26   51 1   
    53   27   28 1   
    54   27   52 1   
    55   27   53 1   
    56   28   54 1   
    57   28   55 1   
    58   28   56 1   
@<TRIPOS>SUBSTRUCTURE
     1 1SO         1 TEMP              0 ****  ****    0 ROOT
