@<TRIPOS>MOLECULE
1SP
   19    18     1     0     0
SMALL
bcc


@<TRIPOS>ATOM
      1 C3          0.0030    0.0700    0.5530 c3        1 1SP     -0.076400
      2 O2         -0.4840    1.3720   -1.3840 oh        1 1SP     -0.601800
      3 C4          1.5160    0.0700    0.5530 c3        1 1SP     -0.079400
      4 C1         -1.9140   -0.4750   -0.9040 c3        1 1SP      0.090400
      5 O1         -2.4120   -0.4100   -2.2220 oh        1 1SP     -0.612800
      6 C5          2.0200    0.0700    1.9790 c3        1 1SP     -0.092100
      7 C2         -0.5010    0.0610   -0.8720 c3        1 1SP      0.144100
      8 H2         -0.1110    1.3710   -2.1900 ho        1 1SP      0.416000
      9 HA          0.0750   -0.5080   -1.4180 h1        1 1SP      0.045700
     10 H31C       -0.3220    0.8700    1.0080 hc        1 1SP      0.048700
     11 H32C       -0.3220   -0.7240    1.0180 hc        1 1SP      0.048700
     12 H11C       -1.9110   -1.4030   -0.6020 h1        1 1SP      0.034200
     13 H12C       -2.4830    0.0570   -0.3150 h1        1 1SP      0.034200
     14 H41C        1.8420    0.8670    0.0930 hc        1 1SP      0.048200
     15 H42C        1.8420   -0.7270    0.0930 hc        1 1SP      0.048200
     16 H51C        2.9940    0.1340    1.9800 hc        1 1SP      0.032367
     17 H52C        1.7480   -0.7570    2.4210 hc        1 1SP      0.032367
     18 H53C        1.6440    0.8330    2.4580 hc        1 1SP      0.032367
     19 H1         -3.2240   -0.7690   -2.2500 ho        1 1SP      0.407000
@<TRIPOS>BOND
     1    1    3 1   
     2    1    7 1   
     3    1   10 1   
     4    1   11 1   
     5    2    7 1   
     6    2    8 1   
     7    3    6 1   
     8    3   14 1   
     9    3   15 1   
    10    4    5 1   
    11    4    7 1   
    12    4   12 1   
    13    4   13 1   
    14    5   19 1   
    15    6   16 1   
    16    6   17 1   
    17    6   18 1   
    18    7    9 1   
@<TRIPOS>SUBSTRUCTURE
     1 1SP         1 TEMP              0 ****  ****    0 ROOT
