@<TRIPOS>MOLECULE
1SP
   19    18     1     0     0
SMALL
bcc


@<TRIPOS>ATOM
      1 C3         -0.7230    0.4620    0.1550 c3        1 1SP     -0.109400
      2 O2          0.4940   -1.5780    0.7300 oh        1 1SP     -0.593800
      3 C4         -1.9420   -0.2520   -0.3850 c3        1 1SP     -0.080400
      4 C1          1.7820    0.4260    0.3830 c3        1 1SP      0.096400
      5 O1          1.9860    1.4110   -0.6150 oh        1 1SP     -0.597800
      6 C5         -3.2040    0.5280   -0.1210 c3        1 1SP     -0.092100
      7 C2          0.5360   -0.3760   -0.0190 c3        1 1SP      0.136100
      8 HA          0.6370   -0.7160   -1.0890 h1        1 1SP      0.091700
      9 H31C       -0.5740    1.4350   -0.3820 hc        1 1SP      0.051700
     10 H32C       -0.8710    0.6940    1.2430 hc        1 1SP      0.051700
     11 H11C        2.6660   -0.2620    0.4450 h1        1 1SP      0.028700
     12 H12C        1.6290    0.9170    1.3810 h1        1 1SP      0.028700
     13 H41C       -1.8210   -0.4120   -1.4890 hc        1 1SP      0.046200
     14 H42C       -2.0130   -1.2680    0.0890 hc        1 1SP      0.046200
     15 H51C       -3.3620    0.6640    0.9760 hc        1 1SP      0.032700
     16 H52C       -3.1490    1.5380   -0.5940 hc        1 1SP      0.032700
     17 H53C       -4.0870   -0.0110   -0.5400 hc        1 1SP      0.032700
     18 H1          2.8210    1.8440   -0.4050 ho        1 1SP      0.403000
     19 H2          0.2740   -1.3440    1.6390 ho        1 1SP      0.396000
@<TRIPOS>BOND
     1    1    3 1   
     2    1    7 1   
     3    1    9 1   
     4    1   10 1   
     5    2    7 1   
     6    2   19 1   
     7    3    6 1   
     8    3   13 1   
     9    3   14 1   
    10    4    5 1   
    11    4    7 1   
    12    4   11 1   
    13    4   12 1   
    14    5   18 1   
    15    6   15 1   
    16    6   16 1   
    17    6   17 1   
    18    7    8 1   
@<TRIPOS>SUBSTRUCTURE
     1 1SP         1 TEMP              0 ****  ****    0 ROOT
