@<TRIPOS>MOLECULE
1SP
   19    18     1     0     0
SMALL
bcc


@<TRIPOS>ATOM
      1 C3          0.0310    0.0240   -0.0120 c3        1 1SP     -0.076400
      2 O2         -0.1330    1.2330   -2.0500 oh        1 1SP     -0.601800
      3 C4          1.5410   -0.0560    0.0460 c3        1 1SP     -0.079400
      4 C1         -1.9870   -0.2210   -1.4810 c3        1 1SP      0.090400
      5 O1         -2.3610   -0.2140   -2.8500 oh        1 1SP     -0.612800
      6 C5          2.0430    0.0320    1.4640 c3        1 1SP     -0.092100
      7 C2         -0.4680   -0.0110   -1.4510 c3        1 1SP      0.144100
      8 HA          0.0290   -0.8430   -2.0250 h1        1 1SP      0.045700
      9 H31C       -0.3150    0.9730    0.4740 hc        1 1SP      0.048700
     10 H32C       -0.4200   -0.8370    0.5460 hc        1 1SP      0.048700
     11 H11C       -2.5050    0.6080   -0.9320 h1        1 1SP      0.034200
     12 H12C       -2.2540   -1.2060   -1.0160 h1        1 1SP      0.034200
     13 H41C        1.9720    0.7800   -0.5670 hc        1 1SP      0.048200
     14 H42C        1.8840   -1.0190   -0.4170 hc        1 1SP      0.048200
     15 H51C        3.1580   -0.0360    1.4840 hc        1 1SP      0.032367
     16 H52C        1.6280   -0.7990    2.0840 hc        1 1SP      0.032367
     17 H53C        1.7410    1.0010    1.9300 hc        1 1SP      0.032367
     18 H1         -3.3240   -0.2390   -2.8770 ho        1 1SP      0.407000
     19 H2         -0.5280    1.2280   -2.9310 ho        1 1SP      0.416000
@<TRIPOS>BOND
     1    1    3 1   
     2    1    7 1   
     3    1    9 1   
     4    1   10 1   
     5    2    7 1   
     6    2   19 1   
     7    3    6 1   
     8    3   13 1   
     9    3   14 1   
    10    4    5 1   
    11    4    7 1   
    12    4   11 1   
    13    4   12 1   
    14    5   18 1   
    15    6   15 1   
    16    6   16 1   
    17    6   17 1   
    18    7    8 1   
@<TRIPOS>SUBSTRUCTURE
     1 1SP         1 TEMP              0 ****  ****    0 ROOT
