@<TRIPOS>MOLECULE
1SP
   19    18     1     0     0
SMALL
bcc


@<TRIPOS>ATOM
      1 C3          0.0310    0.0290   -0.0120 c3        1 1SP     -0.076400
      2 O2         -0.1180    1.2180   -2.0620 oh        1 1SP     -0.601800
      3 C4          1.5400   -0.0690    0.0470 c3        1 1SP     -0.079400
      4 C1         -1.9900   -0.2080   -1.4780 c3        1 1SP      0.090400
      5 O1         -2.3640   -0.2110   -2.8480 oh        1 1SP     -0.612800
      6 C5          2.0430    0.0290    1.4640 c3        1 1SP     -0.092100
      7 C2         -0.4690   -0.0150   -1.4510 c3        1 1SP      0.144100
      8 HA          0.0190   -0.8590   -2.0150 h1        1 1SP      0.045700
      9 H31C       -0.3030    0.9880    0.4630 hc        1 1SP      0.048700
     10 H32C       -0.4310   -0.8200    0.5550 hc        1 1SP      0.048700
     11 H11C       -2.4980    0.6340   -0.9390 h1        1 1SP      0.034200
     12 H12C       -2.2690   -1.1840   -1.0020 h1        1 1SP      0.034200
     13 H41C        1.9810    0.7550   -0.5750 hc        1 1SP      0.048200
     14 H42C        1.8720   -1.0400   -0.4050 hc        1 1SP      0.048200
     15 H51C        3.1570   -0.0520    1.4850 hc        1 1SP      0.032367
     16 H52C        1.6180   -0.7900    2.0920 hc        1 1SP      0.032367
     17 H53C        1.7530    1.0070    1.9190 hc        1 1SP      0.032367
     18 H1         -3.3270   -0.2250   -2.8740 ho        1 1SP      0.407000
     19 H2         -0.5140    1.2090   -2.9440 ho        1 1SP      0.416000
@<TRIPOS>BOND
     1    1    3 1   
     2    1    7 1   
     3    1    9 1   
     4    1   10 1   
     5    2    7 1   
     6    2   19 1   
     7    3    6 1   
     8    3   13 1   
     9    3   14 1   
    10    4    5 1   
    11    4    7 1   
    12    4   11 1   
    13    4   12 1   
    14    5   18 1   
    15    6   15 1   
    16    6   16 1   
    17    6   17 1   
    18    7    8 1   
@<TRIPOS>SUBSTRUCTURE
     1 1SP         1 TEMP              0 ****  ****    0 ROOT
