@<TRIPOS>MOLECULE
1SQ
   19    20     1     0     0
SMALL
bcc


@<TRIPOS>ATOM
      1 N1         -0.0860    0.0010   -0.0990 nh        1 1SQ     -0.902500
      2 C2          1.3490    0.0010   -0.0240 ca        1 1SQ      0.593200
      3 N3          1.9710   -0.0010    1.1680 nb        1 1SQ     -0.715000
      4 C4          3.3330   -0.0010    1.1930 ca        1 1SQ      0.398200
      5 C5          4.1280    0.0000    0.0620 ca        1 1SQ     -0.235300
      6 C6          3.5010    0.0010   -1.2120 ca        1 1SQ     -0.013000
      7 C7          4.2540    0.0030   -2.4180 ca        1 1SQ     -0.134000
      8 C8          3.6170    0.0040   -3.6340 ca        1 1SQ     -0.107000
      9 C9          2.2030    0.0040   -3.6990 ca        1 1SQ     -0.145000
     10 C10         1.4500    0.0030   -2.5490 ca        1 1SQ     -0.079000
     11 C11         2.0820    0.0020   -1.2770 ca        1 1SQ     -0.132300
     12 HN11       -0.4560    0.8170    0.3560 hn        1 1SQ      0.371800
     13 HN12       -0.4560   -0.8170    0.3540 hn        1 1SQ      0.371800
     14 H4          3.7700   -0.0020    2.2080 h4        1 1SQ      0.022100
     15 H5          5.2230    0.0000    0.1340 ha        1 1SQ      0.144000
     16 H7          5.3520    0.0020   -2.3520 ha        1 1SQ      0.136000
     17 H8          4.1960    0.0040   -4.5700 ha        1 1SQ      0.134000
     18 H9          1.7150    0.0050   -4.6840 ha        1 1SQ      0.135000
     19 H10         0.3500    0.0030   -2.6060 ha        1 1SQ      0.156000
@<TRIPOS>BOND
     1    1    2 1   
     2    1   12 1   
     3    1   13 1   
     4    2    3 ar  
     5    2   11 ar  
     6    3    4 ar  
     7    4    5 ar  
     8    4   14 1   
     9    5    6 ar  
    10    5   15 1   
    11    6    7 ar  
    12    6   11 ar  
    13    7    8 ar  
    14    7   16 1   
    15    8    9 ar  
    16    8   17 1   
    17    9   10 ar  
    18    9   18 1   
    19   10   11 ar  
    20   10   19 1   
@<TRIPOS>SUBSTRUCTURE
     1 1SQ         1 TEMP              0 ****  ****    0 ROOT
