@<TRIPOS>MOLECULE
1SQ
   19    16     1     0     0
SMALL
bcc


@<TRIPOS>ATOM
      1 N1         -2.8610    0.0000    0.6950 n3        1 1SQ     -0.300000
      2 C2         -1.4420    0.0000    0.6950 c2        1 1SQ      0.072000
      3 N3         -1.2340    0.0000    2.0450 n1        1 1SQ     -0.189000
      4 C4          0.0430    0.0000    2.5440 c1        1 1SQ     -0.115250
      5 C5          1.1290    0.0000    1.6760 c1        1 1SQ     -0.115250
      6 C6          0.9200    0.0000    0.3060 c1        1 1SQ     -0.013000
      7 C7          2.0210    0.0000   -0.5780 c2        1 1SQ     -0.134000
      8 C8          1.8110    0.0000   -1.9470 c1        1 1SQ     -0.107000
      9 C9          0.5210    0.0000   -2.4490 c1        1 1SQ     -0.115250
     10 C10        -0.5600    0.0000   -1.5820 c1        1 1SQ     -0.115250
     11 C11        -0.3460    0.0000   -0.1870 c1        1 1SQ     -0.067000
     12 HN11       -3.3170   -0.7900    0.6860 hn        1 1SQ      0.167000
     13 HN12       -3.3170    0.7900    0.6860 hn        1 1SQ      0.167000
     14 H4          0.1890    0.0000    3.5090 ha        1 1SQ      0.148500
     15 H5          2.0380    0.0000    2.0320 ha        1 1SQ      0.148500
     16 H7          2.9310    0.0000   -0.2240 ha        1 1SQ      0.136000
     17 H8          2.5720    0.0000   -2.5580 ha        1 1SQ      0.134000
     18 H9          0.3730    0.0000   -3.4130 ha        1 1SQ      0.148500
     19 H10        -1.4700    0.0000   -1.9360 ha        1 1SQ      0.148500
@<TRIPOS>BOND
     1    1    2 1   
     2    1   12 1   
     3    1   13 1   
     4    2    3 1   
     5    2   11 1   
     6    4    5 1   
     7    4   14 1   
     8    5   15 1   
     9    6    7 1   
    10    6   11 1   
    11    7    8 1   
    12    7   16 1   
    13    8   17 1   
    14    9   10 1   
    15    9   18 1   
    16   10   19 1   
@<TRIPOS>SUBSTRUCTURE
     1 1SQ         1 TEMP              0 ****  ****    0 ROOT
