@<TRIPOS>MOLECULE
1SQ
   20    21     1     0     0
SMALL
bcc


@<TRIPOS>ATOM
      1 N1         -0.0500   -0.0000    0.0800 n4        1 1SQ     -0.818300
      2 C2          1.4300    0.0000    0.0470 ca        1 1SQ      0.441200
      3 N3          2.0530   -0.0010    1.2350 nb        1 1SQ     -0.623000
      4 C4          3.4090   -0.0010    1.2320 ca        1 1SQ      0.393200
      5 C5          4.1690    0.0010    0.0660 ca        1 1SQ     -0.142300
      6 C6          3.5150    0.0020   -1.1900 ca        1 1SQ     -0.016000
      7 C7          4.2400    0.0030   -2.4160 ca        1 1SQ     -0.091000
      8 C8          3.5750    0.0040   -3.6170 ca        1 1SQ     -0.098000
      9 C9          2.1580    0.0040   -3.6500 ca        1 1SQ     -0.054000
     10 C10         1.4280    0.0030   -2.4850 ca        1 1SQ     -0.168000
     11 C11         2.0880    0.0010   -1.2300 ca        1 1SQ     -0.113300
     12 HN11       -0.3880   -0.8380   -0.4060 hn        1 1SQ      0.470467
     13 HN12       -0.3880    0.8380   -0.4040 hn        1 1SQ      0.470467
     14 H4          3.8720   -0.0020    2.2390 h4        1 1SQ      0.067100
     15 H5          5.2710    0.0010    0.1140 ha        1 1SQ      0.182000
     16 H7          5.3420    0.0030   -2.3760 ha        1 1SQ      0.167000
     17 H8          4.1320    0.0050   -4.5690 ha        1 1SQ      0.171000
     18 H9          1.6480    0.0050   -4.6290 ha        1 1SQ      0.166000
     19 H10         0.3300    0.0020   -2.5440 ha        1 1SQ      0.124000
     20 H13        -0.3980   -0.0010    1.0480 hn        1 1SQ      0.470467
@<TRIPOS>BOND
     1    1    2 1   
     2    1   12 1   
     3    1   13 1   
     4    1   20 1   
     5    2    3 ar  
     6    2   11 ar  
     7    3    4 ar  
     8    4    5 ar  
     9    4   14 1   
    10    5    6 ar  
    11    5   15 1   
    12    6    7 ar  
    13    6   11 ar  
    14    7    8 ar  
    15    7   16 1   
    16    8    9 ar  
    17    8   17 1   
    18    9   10 ar  
    19    9   18 1   
    20   10   11 ar  
    21   10   19 1   
@<TRIPOS>SUBSTRUCTURE
     1 1SQ         1 TEMP              0 ****  ****    0 ROOT
