@<TRIPOS>MOLECULE
1SQ
   19    20     1     0     0
SMALL
bcc


@<TRIPOS>ATOM
      1 N1         -0.0370   -0.1650    0.0200 nv        1 1SQ     -0.927500
      2 C2          1.3620   -0.0880    0.0280 ca        1 1SQ      0.653200
      3 N3          2.0070   -0.1540    1.2150 nb        1 1SQ     -0.744000
      4 C4          3.3660   -0.1740    1.2080 ca        1 1SQ      0.431200
      5 C5          4.1460   -0.1050    0.0690 ca        1 1SQ     -0.283300
      6 C6          3.4980   -0.0180   -1.1920 ca        1 1SQ      0.016000
      7 C7          4.2390    0.0610   -2.4030 ca        1 1SQ     -0.133000
      8 C8          3.5920    0.1330   -3.6120 ca        1 1SQ     -0.106000
      9 C9          2.1790    0.1250   -3.6630 ca        1 1SQ     -0.145000
     10 C10         1.4400    0.0520   -2.5050 ca        1 1SQ     -0.095000
     11 C11         2.0800   -0.0140   -1.2410 ca        1 1SQ     -0.178300
     12 HN11       -0.4830   -0.0890    0.9080 hn        1 1SQ      0.406800
     13 HN12       -0.4750    0.3650   -0.6990 hn        1 1SQ      0.406800
     14 H4          3.8190   -0.2430    2.2140 h4        1 1SQ      0.020100
     15 H5          5.2410   -0.1160    0.1230 ha        1 1SQ      0.143000
     16 H7          5.3380    0.0600   -2.3470 ha        1 1SQ      0.137000
     17 H8          4.1620    0.1940   -4.5510 ha        1 1SQ      0.134000
     18 H9          1.6790    0.1740   -4.6410 ha        1 1SQ      0.134000
     19 H10         0.3430    0.0300   -2.5770 ha        1 1SQ      0.130000
@<TRIPOS>BOND
     1    1    2 1   
     2    1   12 1   
     3    1   13 1   
     4    2    3 ar  
     5    2   11 ar  
     6    3    4 ar  
     7    4    5 ar  
     8    4   14 1   
     9    5    6 ar  
    10    5   15 1   
    11    6    7 ar  
    12    6   11 ar  
    13    7    8 ar  
    14    7   16 1   
    15    8    9 ar  
    16    8   17 1   
    17    9   10 ar  
    18    9   18 1   
    19   10   11 ar  
    20   10   19 1   
@<TRIPOS>SUBSTRUCTURE
     1 1SQ         1 TEMP              0 ****  ****    0 ROOT
