@<TRIPOS>MOLECULE
1SQ
   19    20     1     0     0
SMALL
bcc


@<TRIPOS>ATOM
      1 N1         -2.9420    1.5950    3.5980 nh        1 1SQ     -0.927500
      2 C2         -1.6560    2.1240    3.7670 ca        1 1SQ      0.653200
      3 N3         -1.4110    2.9000    4.8470 nb        1 1SQ     -0.744000
      4 C4         -0.1390    3.3310    5.0560 ca        1 1SQ      0.431200
      5 C5          0.9280    3.0550    4.2230 ca        1 1SQ     -0.283300
      6 C6          0.7020    2.2570    3.0700 ca        1 1SQ      0.016000
      7 C7          1.7530    1.9380    2.1690 ca        1 1SQ     -0.133000
      8 C8          1.5140    1.1560    1.0670 ca        1 1SQ     -0.106000
      9 C9          0.2150    0.6550    0.8210 ca        1 1SQ     -0.145000
     10 C10        -0.8210    0.9510    1.6770 ca        1 1SQ     -0.095000
     11 C11        -0.6060    1.7650    2.8180 ca        1 1SQ     -0.178300
     12 HN11       -3.6480    1.9670    4.1950 hn        1 1SQ      0.406800
     13 HN12       -3.2250    1.4960    2.6500 hn        1 1SQ      0.406800
     14 H4         -0.0170    3.9470    5.9660 h4        1 1SQ      0.020100
     15 H5          1.9340    3.4380    4.4350 ha        1 1SQ      0.143000
     16 H7          2.7600    2.3320    2.3770 ha        1 1SQ      0.137000
     17 H8          2.3250    0.9070    0.3670 ha        1 1SQ      0.134000
     18 H9          0.0440    0.0220   -0.0620 ha        1 1SQ      0.134000
     19 H10        -1.8170    0.5320    1.4690 ha        1 1SQ      0.130000
@<TRIPOS>BOND
     1    1    2 1   
     2    1   12 1   
     3    1   13 1   
     4    2    3 ar  
     5    2   11 ar  
     6    3    4 ar  
     7    4    5 ar  
     8    4   14 1   
     9    5    6 ar  
    10    5   15 1   
    11    6    7 ar  
    12    6   11 ar  
    13    7    8 ar  
    14    7   16 1   
    15    8    9 ar  
    16    8   17 1   
    17    9   10 ar  
    18    9   18 1   
    19   10   11 ar  
    20   10   19 1   
@<TRIPOS>SUBSTRUCTURE
     1 1SQ         1 TEMP              0 ****  ****    0 ROOT
