@<TRIPOS>MOLECULE
1SS
   41    42     1     0     0
SMALL
bcc


@<TRIPOS>ATOM
      1 C1          2.6780    0.8560   -0.7660 c3        1 1SS      0.114800
      2 C2          3.0120   -0.6250   -0.8550 c3        1 1SS     -0.105400
      3 C3          1.7650   -1.4710   -0.9750 c3        1 1SS     -0.096400
      4 C4          0.7470   -1.1740    0.1300 c3        1 1SS     -0.058000
      5 C5          0.4280    0.3440    0.1180 c3        1 1SS      0.136500
      6 C6         -0.5570   -1.9090   -0.2040 c3        1 1SS     -0.074400
      7 C7         -1.7040   -1.5340    0.7070 c3        1 1SS     -0.085400
      8 C8         -1.9640   -0.0360    0.7580 c3        1 1SS     -0.018500
      9 C9         -0.6710    0.6930    1.1240 c3        1 1SS     -0.094400
     10 C11         1.2820   -1.6570    1.4670 c3        1 1SS     -0.107100
     11 C12        -2.6110    0.5400   -0.4640 c2        1 1SS     -0.148400
     12 C13        -2.8360    2.0110   -0.4290 c3        1 1SS     -0.062900
     13 C14        -3.0420   -0.1840   -1.5010 c2        1 1SS     -0.194000
     14 N1          1.6910    1.1580    0.3250 n4        1 1SS     -0.683400
     15 H1          3.6130    1.4510   -0.5600 hx        1 1SS      0.098700
     16 H2          2.2280    1.2110   -1.7360 hx        1 1SS      0.098700
     17 H3          3.6580   -0.7700   -1.7640 hc        1 1SS      0.085700
     18 H4          3.6190   -0.9410    0.0340 hc        1 1SS      0.085700
     19 H5          1.2890   -1.2940   -1.9760 hc        1 1SS      0.076200
     20 H6          2.0480   -2.5560   -0.9270 hc        1 1SS      0.076200
     21 H7          0.0510    0.6140   -0.9170 hx        1 1SS      0.107700
     22 H8         -0.8360   -1.6850   -1.2690 hc        1 1SS      0.065700
     23 H9         -0.3690   -3.0130   -0.1310 hc        1 1SS      0.065700
     24 H10        -2.6320   -2.0670    0.3700 hc        1 1SS      0.066200
     25 H11        -1.4850   -1.8920    1.7490 hc        1 1SS      0.066200
     26 H12        -2.6890    0.1490    1.6100 hc        1 1SS      0.083700
     27 H13        -0.3620    0.3960    2.1600 hc        1 1SS      0.063200
     28 H14        -0.8710    1.7960    1.1300 hc        1 1SS      0.063200
     29 H18         2.2730   -1.2040    1.7100 hc        1 1SS      0.052700
     30 H19         0.5720   -1.4290    2.2970 hc        1 1SS      0.052700
     31 H20         1.4190   -2.7670    1.4310 hc        1 1SS      0.052700
     32 H21        -1.8950    2.5550   -0.6990 hc        1 1SS      0.044367
     33 H22        -3.6290    2.3150   -1.1580 hc        1 1SS      0.044367
     34 H23        -3.1570    2.3410    0.5900 hc        1 1SS      0.044367
     35 H24        -3.5620    0.2800   -2.3530 ha        1 1SS      0.126000
     36 H25        -2.9320   -1.2740   -1.5760 ha        1 1SS      0.126000
     37 H26         2.1020    0.8620    1.2200 hn        1 1SS      0.444800
     38 C10         1.4220    2.6140    0.3820 c3        1 1SS      0.084100
     39 H15         0.7450    2.9060   -0.4650 hx        1 1SS      0.101367
     40 H16         0.9310    2.8690    1.3590 hx        1 1SS      0.101367
     41 H17         2.3890    3.1790    0.3000 hx        1 1SS      0.101367
@<TRIPOS>BOND
     1    1    2 1   
     2    1   14 1   
     3    1   15 1   
     4    1   16 1   
     5    2    3 1   
     6    2   17 1   
     7    2   18 1   
     8    3    4 1   
     9    3   19 1   
    10    3   20 1   
    11    4    5 1   
    12    4    6 1   
    13    4   10 1   
    14    5    9 1   
    15    5   14 1   
    16    5   21 1   
    17    6    7 1   
    18    6   22 1   
    19    6   23 1   
    20    7    8 1   
    21    7   24 1   
    22    7   25 1   
    23    8    9 1   
    24    8   11 1   
    25    8   26 1   
    26    9   27 1   
    27    9   28 1   
    28   10   29 1   
    29   10   30 1   
    30   10   31 1   
    31   11   12 1   
    32   11   13 2   
    33   12   32 1   
    34   12   33 1   
    35   12   34 1   
    36   13   35 1   
    37   13   36 1   
    38   14   37 1   
    39   14   38 1   
    40   38   39 1   
    41   38   40 1   
    42   38   41 1   
@<TRIPOS>SUBSTRUCTURE
     1 1SS         1 TEMP              0 ****  ****    0 ROOT
