@<TRIPOS>MOLECULE
1SS
   41    41     1     0     0
SMALL
bcc


@<TRIPOS>ATOM
      1 C1          0.2140    0.5410   -2.6960 c3        1 1SS     -0.124000
      2 C2          1.7170    0.5410   -2.6960 c3        1 1SS     -0.177000
      3 C3          2.1890    0.5410   -1.3110 c3        1 1SS     -0.173000
      4 C4          0.9810    0.5410   -0.3770 c3        1 1SS     -0.047000
      5 C5          0.1350   -0.6880   -0.6430 c3        1 1SS     -0.062000
      6 C6          1.4480    0.5220    1.0370 c3        1 1SS     -0.159000
      7 C7          0.5690   -0.4060    1.8240 c3        1 1SS     -0.165000
      8 C8         -0.6710    0.0970    1.6520 c3        1 1SS     -0.062000
      9 C9         -1.0920   -0.5020    0.2550 c3        1 1SS     -0.175000
     10 C10         0.2640   -1.7320   -2.7190 c3        1 1SS     -0.193000
     11 C11         0.1360    1.8160   -0.6240 c3        1 1SS     -0.223000
     12 C12        -1.5730   -0.3210    2.8100 c2        1 1SS     -0.120000
     13 C13        -2.3950    0.7340    3.5620 c3        1 1SS     -0.186000
     14 C14        -1.6490   -1.6350    3.1780 c1        1 1SS     -0.204000
     15 N1         -0.2660   -0.6220   -2.0180 n4        1 1SS     -0.001000
     16 H1         -0.1100    0.5370   -3.6160 hx        1 1SS      0.138500
     17 H2         -0.1110    1.3400   -2.2400 hx        1 1SS      0.138500
     18 H3          2.0450   -0.2570   -3.1530 hc        1 1SS      0.121000
     19 H4          2.0440    1.3380   -3.1530 hc        1 1SS      0.121000
     20 H5          2.7280   -0.2570   -1.1490 hc        1 1SS      0.113500
     21 H6          2.7280    1.3380   -1.1490 hc        1 1SS      0.113500
     22 H7          0.6160   -1.5130   -0.4400 hx        1 1SS      0.141000
     23 H8          2.3720    0.2070    1.0720 hc        1 1SS      0.105500
     24 H9          1.3950    1.4220    1.4120 hc        1 1SS      0.105500
     25 H10         0.8150   -0.3910    2.7690 hc        1 1SS      0.104000
     26 H11         0.6230   -1.3130    1.4690 hc        1 1SS      0.104000
     27 H12        -0.7050    1.0720    1.6800 hc        1 1SS      0.108000
     28 H13        -1.5240   -1.3670    0.3930 hc        1 1SS      0.102500
     29 H14        -1.7200    0.1050   -0.1790 hc        1 1SS      0.102500
     30 H15         0.2710   -1.5390   -3.6760 hx        1 1SS      0.140667
     31 H16        -0.2880   -2.5180   -2.5490 hx        1 1SS      0.140667
     32 H17         1.1760   -1.9020   -2.4150 hx        1 1SS      0.140667
     33 H18        -0.7520    1.5620   -0.9400 hc        1 1SS      0.091667
     34 H19         0.0540    2.3190    0.2090 hc        1 1SS      0.091667
     35 H20         0.5740    2.3720   -1.2970 hc        1 1SS      0.091667
     36 H21        -3.0120    1.1680    2.9430 hc        1 1SS      0.091333
     37 H22        -2.9010    0.3030    4.2780 hc        1 1SS      0.091333
     38 H23        -1.7950    1.4020    3.9450 hc        1 1SS      0.091333
     39 H24        -1.1260   -2.3070    2.7000 DU        1 1SS      0.106000
     40 H25        -2.2260   -1.9020    3.9190 ha        1 1SS      0.136000
     41 H26        -1.1770   -0.6430   -2.0670 hn        1 1SS      0.238000
@<TRIPOS>BOND
     1    1    2 1   
     2    1   15 1   
     3    1   16 1   
     4    1   17 1   
     5    2    3 1   
     6    2   18 1   
     7    2   19 1   
     8    3    4 1   
     9    3   20 1   
    10    3   21 1   
    11    4    5 1   
    12    4    6 1   
    13    4   11 1   
    14    5    9 1   
    15    5   15 1   
    16    5   22 1   
    17    6    7 1   
    18    6   23 1   
    19    6   24 1   
    20    7    8 1   
    21    7   25 1   
    22    7   26 1   
    23    8    9 1   
    24    8   12 1   
    25    8   27 1   
    26    9   28 1   
    27    9   29 1   
    28   10   15 1   
    29   10   30 1   
    30   10   31 1   
    31   10   32 1   
    32   11   33 1   
    33   11   34 1   
    34   11   35 1   
    35   12   13 1   
    36   12   14 1   
    37   13   36 1   
    38   13   37 1   
    39   13   38 1   
    40   14   40 1   
    41   15   41 1   
@<TRIPOS>SUBSTRUCTURE
     1 1SS         1 TEMP              0 ****  ****    0 ROOT
