@<TRIPOS>MOLECULE
1SS
   41    42     1     0     0
SMALL
bcc


@<TRIPOS>ATOM
      1 C1          0.0810   -0.0640   -0.0640 c3        1 1SS      0.114800
      2 C2          1.6020   -0.0360   -0.0590 c3        1 1SS     -0.105400
      3 C3          2.1510    0.1220    1.3410 c3        1 1SS     -0.096400
      4 C4          1.5480    1.3230    2.0760 c3        1 1SS     -0.058000
      5 C5          0.0030    1.1880    2.0650 c3        1 1SS      0.136500
      6 C6          1.9940    1.2650    3.5420 c3        1 1SS     -0.074400
      7 C7          1.3000    2.2860    4.4160 c3        1 1SS     -0.085400
      8 C8         -0.2170    2.2070    4.3430 c3        1 1SS     -0.018500
      9 C9         -0.6600    2.2980    2.8830 c3        1 1SS     -0.094400
     10 C10        -1.9980    1.0500    0.5850 c3        1 1SS      0.084100
     11 C11         2.0360    2.6130    1.4400 c3        1 1SS     -0.107100
     12 C12        -0.8290    1.0360    5.0480 c2        1 1SS     -0.148400
     13 C13        -2.3110    0.9380    4.9490 c3        1 1SS     -0.062900
     14 C14        -0.1430    0.1590    5.7880 c2        1 1SS     -0.194000
     15 N1         -0.5180    1.1180    0.6420 n4        1 1SS     -0.683400
     16 H1         -0.3010   -0.0640   -1.1240 hx        1 1SS      0.098700
     17 H2         -0.2910   -0.9930    0.4560 hx        1 1SS      0.098700
     18 H3          1.9590   -1.0070   -0.4990 hc        1 1SS      0.085700
     19 H4          1.9780    0.7860   -0.7240 hc        1 1SS      0.085700
     20 H5          3.2650    0.2490    1.2900 hc        1 1SS      0.076200
     21 H6          1.9490   -0.8130    1.9290 hc        1 1SS      0.076200
     22 H7         -0.2650    0.1960    2.5430 hx        1 1SS      0.107700
     23 H8          3.1030    1.4330    3.5820 hc        1 1SS      0.065700
     24 H9          1.7950    0.2340    3.9410 hc        1 1SS      0.065700
     25 H10         1.6180    3.3190    4.1080 hc        1 1SS      0.066200
     26 H11         1.6340    2.1490    5.4790 hc        1 1SS      0.066200
     27 H12        -0.6250    3.1290    4.8610 hc        1 1SS      0.083700
     28 H13        -1.7780    2.2090    2.8410 hc        1 1SS      0.063200
     29 H14        -0.3830    3.3050    2.4760 hc        1 1SS      0.063200
     30 H15        -2.3210    0.7670   -0.4520 hx        1 1SS      0.101367
     31 H16        -2.4310    2.0540    0.8420 hx        1 1SS      0.101367
     32 H17        -2.3690    0.2830    1.3160 hx        1 1SS      0.101367
     33 H18         1.8010    2.6570    0.3490 hc        1 1SS      0.052700
     34 H19         3.1480    2.6820    1.5480 hc        1 1SS      0.052700
     35 H20         1.5900    3.5070    1.9380 hc        1 1SS      0.052700
     36 H21        -2.7290    0.3030    5.7690 hc        1 1SS      0.044367
     37 H22        -2.7810    1.9500    5.0190 hc        1 1SS      0.044367
     38 H23        -2.6060    0.4760    3.9730 hc        1 1SS      0.044367
     39 H24         0.9460    0.1910    5.9240 ha        1 1SS      0.126000
     40 H25        -0.6450   -0.6540    6.3320 ha        1 1SS      0.126000
     41 H26        -0.2070    1.9710    0.1600 hn        1 1SS      0.444800
@<TRIPOS>BOND
     1    1    2 1   
     2    1   15 1   
     3    1   16 1   
     4    1   17 1   
     5    2    3 1   
     6    2   18 1   
     7    2   19 1   
     8    3    4 1   
     9    3   20 1   
    10    3   21 1   
    11    4    5 1   
    12    4    6 1   
    13    4   11 1   
    14    5    9 1   
    15    5   15 1   
    16    5   22 1   
    17    6    7 1   
    18    6   23 1   
    19    6   24 1   
    20    7    8 1   
    21    7   25 1   
    22    7   26 1   
    23    8    9 1   
    24    8   12 1   
    25    8   27 1   
    26    9   28 1   
    27    9   29 1   
    28   10   15 1   
    29   10   30 1   
    30   10   31 1   
    31   10   32 1   
    32   11   33 1   
    33   11   34 1   
    34   11   35 1   
    35   12   13 1   
    36   12   14 2   
    37   13   36 1   
    38   13   37 1   
    39   13   38 1   
    40   14   39 1   
    41   14   40 1   
    42   15   41 1   
@<TRIPOS>SUBSTRUCTURE
     1 1SS         1 TEMP              0 ****  ****    0 ROOT
