@<TRIPOS>MOLECULE
1SS
   41    42     1     0     0
SMALL
bcc


@<TRIPOS>ATOM
      1 C1          0.0810   -0.0830   -0.0550 c3        1 1SS      0.114800
      2 C2          1.6020   -0.0620   -0.0480 c3        1 1SS     -0.105400
      3 C3          2.1500    0.1060    1.3510 c3        1 1SS     -0.096400
      4 C4          1.5510    1.3160    2.0750 c3        1 1SS     -0.058000
      5 C5          0.0050    1.1880    2.0630 c3        1 1SS      0.136500
      6 C6          1.9940    1.2690    3.5420 c3        1 1SS     -0.074400
      7 C7          1.3040    2.3000    4.4060 c3        1 1SS     -0.085400
      8 C8         -0.2140    2.2270    4.3320 c3        1 1SS     -0.018500
      9 C9         -0.6550    2.3070    2.8700 c3        1 1SS     -0.094400
     10 C10        -1.9940    1.0460    0.5810 c3        1 1SS      0.084100
     11 C11         2.0450    2.5990    1.4280 c3        1 1SS     -0.107100
     12 C12        -0.8320    1.0640    5.0450 c2        1 1SS     -0.148400
     13 C13        -2.3140    0.9710    4.9440 c3        1 1SS     -0.062900
     14 C14        -0.1500    0.1910    5.7950 c2        1 1SS     -0.194000
     15 N1         -0.5140    1.1070    0.6400 nx        1 1SS     -0.683400
     16 H1         -0.2950   -1.0060    0.4720 hx        1 1SS      0.098700
     17 H2         -0.2990   -0.0900   -1.1160 hx        1 1SS      0.098700
     18 H3          1.9560   -1.0380   -0.4800 hc        1 1SS      0.085700
     19 H4          1.9830    0.7530   -0.7190 hc        1 1SS      0.085700
     20 H5          3.2650    0.2280    1.3010 hc        1 1SS      0.076200
     21 H6          1.9430   -0.8230    1.9470 hc        1 1SS      0.076200
     22 H7         -0.2670    0.2000    2.5490 hx        1 1SS      0.107700
     23 H8          1.7900    0.2420    3.9490 hc        1 1SS      0.065700
     24 H9          3.1040    1.4330    3.5820 hc        1 1SS      0.065700
     25 H10         1.6350    2.1710    5.4710 hc        1 1SS      0.065700
     26 H11         1.6260    3.3290    4.0900 hc        1 1SS      0.065700
     27 H12        -0.6190    3.1550    4.8410 hc        1 1SS      0.083700
     28 H13        -0.3720    3.3090    2.4550 hc        1 1SS      0.063200
     29 H14        -1.7730    2.2230    2.8280 hc        1 1SS      0.063200
     30 H15        -2.3700    0.2860    1.3180 hx        1 1SS      0.101367
     31 H16        -2.4230    2.0530    0.8290 hx        1 1SS      0.101367
     32 H17        -2.3170    0.7540   -0.4550 hx        1 1SS      0.101367
     33 H18         3.1570    2.6630    1.5370 hc        1 1SS      0.052700
     34 H19         1.6020    3.4990    1.9180 hc        1 1SS      0.052700
     35 H20         1.8120    2.6340    0.3370 hc        1 1SS      0.052700
     36 H21        -2.6090    0.5020    3.9720 hc        1 1SS      0.044367
     37 H22        -2.7800    1.9860    5.0050 hc        1 1SS      0.044367
     38 H23        -2.7360    0.3450    5.7700 hc        1 1SS      0.044367
     39 H24         0.9380    0.2200    5.9320 ha        1 1SS      0.126000
     40 H25        -0.6570   -0.6160    6.3450 ha        1 1SS      0.126000
     41 H26        -0.1990    1.9550    0.1510 hn        1 1SS      0.444800
@<TRIPOS>BOND
     1    1    2 1   
     2    1   15 1   
     3    1   16 1   
     4    1   17 1   
     5    2    3 1   
     6    2   18 1   
     7    2   19 1   
     8    3    4 1   
     9    3   20 1   
    10    3   21 1   
    11    4    5 1   
    12    4    6 1   
    13    4   11 1   
    14    5    9 1   
    15    5   15 1   
    16    5   22 1   
    17    6    7 1   
    18    6   23 1   
    19    6   24 1   
    20    7    8 1   
    21    7   25 1   
    22    7   26 1   
    23    8    9 1   
    24    8   12 1   
    25    8   27 1   
    26    9   28 1   
    27    9   29 1   
    28   10   15 1   
    29   10   30 1   
    30   10   31 1   
    31   10   32 1   
    32   11   33 1   
    33   11   34 1   
    34   11   35 1   
    35   12   13 1   
    36   12   14 2   
    37   13   36 1   
    38   13   37 1   
    39   13   38 1   
    40   14   39 1   
    41   14   40 1   
    42   15   41 1   
@<TRIPOS>SUBSTRUCTURE
     1 1SS         1 TEMP              0 ****  ****    0 ROOT
