@<TRIPOS>MOLECULE
1SS
   41    42     1     0     0
SMALL
bcc


@<TRIPOS>ATOM
      1 C1          0.1120   -0.0970   -0.0490 c3        1 1SS      0.114800
      2 C2          1.6330   -0.0650   -0.0290 c3        1 1SS     -0.105400
      3 C3          2.1670    0.1140    1.3730 c3        1 1SS     -0.096400
      4 C4          1.5530    1.3230    2.0860 c3        1 1SS     -0.058000
      5 C5          0.0090    1.1840    2.0610 c3        1 1SS      0.136500
      6 C6          1.9840    1.2860    3.5570 c3        1 1SS     -0.074400
      7 C7          1.2790    2.3170    4.4100 c3        1 1SS     -0.085400
      8 C8         -0.2370    2.2330    4.3220 c3        1 1SS     -0.018500
      9 C9         -0.6660    2.3030    2.8570 c3        1 1SS     -0.094400
     10 C10        -1.9760    1.0210    0.5630 c3        1 1SS      0.084100
     11 C11         2.0440    2.6060    1.4370 c3        1 1SS     -0.107100
     12 C12        -0.8530    1.0690    5.0370 c2        1 1SS     -0.148400
     13 C13        -2.3330    0.9650    4.9230 c3        1 1SS     -0.062900
     14 C14        -0.1720    0.2050    5.7960 c2        1 1SS     -0.194000
     15 N1         -0.4970    1.0930    0.6340 n4        1 1SS     -0.683400
     16 H1         -0.2590   -0.1120   -1.1140 hx        1 1SS      0.098700
     17 H2         -0.2630   -1.0200    0.4790 hx        1 1SS      0.098700
     18 H3          2.0140    0.7490   -0.7020 hc        1 1SS      0.085700
     19 H4          1.9960   -1.0410   -0.4530 hc        1 1SS      0.085700
     20 H5          3.2810    0.2430    1.3320 hc        1 1SS      0.076200
     21 H6          1.9610   -0.8140    1.9720 hc        1 1SS      0.076200
     22 H7         -0.2610    0.1970    2.5500 hx        1 1SS      0.107700
     23 H8          3.0920    1.4580    3.6050 hc        1 1SS      0.065700
     24 H9          1.7840    0.2600    3.9670 hc        1 1SS      0.065700
     25 H10         1.6030    2.1960    5.4780 hc        1 1SS      0.065700
     26 H11         1.5970    3.3470    4.0900 hc        1 1SS      0.065700
     27 H12        -0.6530    3.1600    4.8240 hc        1 1SS      0.083700
     28 H13        -1.7830    2.2110    2.8050 hc        1 1SS      0.063200
     29 H14        -0.3860    3.3050    2.4390 hc        1 1SS      0.063200
     30 H15        -2.3530    0.2630    1.3000 hx        1 1SS      0.101367
     31 H16        -2.4140    2.0270    0.8010 hx        1 1SS      0.101367
     32 H17        -2.2880    0.7220   -0.4740 hx        1 1SS      0.101367
     33 H18         3.1550    2.6790    1.5550 hc        1 1SS      0.052700
     34 H19         1.5910    3.5060    1.9180 hc        1 1SS      0.052700
     35 H20         1.8210    2.6340    0.3430 hc        1 1SS      0.052700
     36 H21        -2.8080    1.9760    4.9750 hc        1 1SS      0.044367
     37 H22        -2.7580    0.3400    5.7470 hc        1 1SS      0.044367
     38 H23        -2.6160    0.4890    3.9500 hc        1 1SS      0.044367
     39 H24         0.9150    0.2430    5.9440 ha        1 1SS      0.126000
     40 H25        -0.6770   -0.6030    6.3460 ha        1 1SS      0.126000
     41 H26        -0.1830    1.9400    0.1430 hn        1 1SS      0.444800
@<TRIPOS>BOND
     1    1    2 1   
     2    1   15 1   
     3    1   16 1   
     4    1   17 1   
     5    2    3 1   
     6    2   18 1   
     7    2   19 1   
     8    3    4 1   
     9    3   20 1   
    10    3   21 1   
    11    4    5 1   
    12    4    6 1   
    13    4   11 1   
    14    5    9 1   
    15    5   15 1   
    16    5   22 1   
    17    6    7 1   
    18    6   23 1   
    19    6   24 1   
    20    7    8 1   
    21    7   25 1   
    22    7   26 1   
    23    8    9 1   
    24    8   12 1   
    25    8   27 1   
    26    9   28 1   
    27    9   29 1   
    28   10   15 1   
    29   10   30 1   
    30   10   31 1   
    31   10   32 1   
    32   11   33 1   
    33   11   34 1   
    34   11   35 1   
    35   12   13 1   
    36   12   14 2   
    37   13   36 1   
    38   13   37 1   
    39   13   38 1   
    40   14   39 1   
    41   14   40 1   
    42   15   41 1   
@<TRIPOS>SUBSTRUCTURE
     1 1SS         1 TEMP              0 ****  ****    0 ROOT
