@<TRIPOS>MOLECULE
1ST
   61    68     1     0     0
SMALL
bcc


@<TRIPOS>ATOM
      1 C1          0.0990    0.0900    0.0060 ca        1 1ST     -0.069000
      2 C2          1.4960    0.0280    0.0630 ca        1 1ST     -0.128000
      3 C3          2.1500   -0.2220    1.2680 ca        1 1ST     -0.097000
      4 C4          1.4410   -0.4050    2.4610 ca        1 1ST     -0.135000
      5 C5          0.0520   -0.3180    2.4260 ca        1 1ST     -0.036200
      6 N6         -0.8970   -0.5550    3.4870 na        1 1ST     -0.099300
      7 C7         -2.1770   -0.3820    2.8700 ca        1 1ST     -0.069200
      8 C8         -3.4210   -0.5220    3.4450 ca        1 1ST     -0.059200
      9 N9         -3.7290   -0.8720    4.7920 na        1 1ST     -0.103300
     10 C10        -5.1620   -0.7650    4.8870 ca        1 1ST     -0.087200
     11 C11        -5.9730   -0.9310    6.0020 ca        1 1ST     -0.104000
     12 C12        -7.3600   -0.8700    5.8310 ca        1 1ST     -0.186000
     13 C13        -7.9150   -0.6490    4.5640 ca        1 1ST      0.132100
     14 C14        -7.1080   -0.4730    3.4160 ca        1 1ST     -0.081000
     15 C15        -5.7400   -0.5250    3.5840 cp        1 1ST     -0.038000
     16 C16        -4.6320   -0.3700    2.6470 cp        1 1ST      0.045000
     17 C17        -4.5000   -0.1270    1.3090 ca        1 1ST     -0.149600
     18 C18        -5.4980    0.0670    0.1870 c         1 1ST      0.686100
     19 N19        -4.7310    0.2960   -1.0460 nc        1 1ST     -0.569100
     20 C20        -3.4630    0.2530   -0.7470 cd        1 1ST      0.511800
     21 C21        -3.2000   -0.0060    0.7000 ca        1 1ST     -0.173900
     22 C22        -2.0570   -0.1240    1.4420 cp        1 1ST      0.024000
     23 C23        -0.6260   -0.0850    1.1730 cp        1 1ST     -0.074000
     24 C24        -0.6810    0.0560    4.8120 c3        1 1ST      0.227500
     25 C25        -0.0840   -0.9830    5.8230 c3        1 1ST      0.101100
     26 C26        -1.1080   -2.0840    6.1960 c3        1 1ST      0.115500
     27 C27        -2.3400   -1.4020    6.7760 c3        1 1ST     -0.130400
     28 C28        -2.9080   -0.3000    5.8610 c3        1 1ST      0.211800
     29 O29        -1.8880    0.5820    5.4010 os        1 1ST     -0.394600
     30 O30        -6.7200    0.0380    0.2730 o         1 1ST     -0.445100
     31 N31        -1.4060   -2.9900    5.0340 ny        1 1ST     -0.747000
     32 C32        -1.8230   -4.3420    5.4590 c3        1 1ST      0.082100
     33 O33         1.0650   -1.6170    5.2870 os        1 1ST     -0.432600
     34 C34         2.2580   -1.4090    6.0410 c3        1 1ST      0.106700
     35 C35         0.2350    1.2980    4.8040 c3        1 1ST     -0.107100
     36 O36        -9.2680   -0.5890    4.3480 oh        1 1ST     -0.476100
     37 H1         -0.4110    0.2720   -0.9520 ha        1 1ST      0.149000
     38 H2          2.0820    0.1740   -0.8570 ha        1 1ST      0.155000
     39 H3          3.2500   -0.2790    1.2880 ha        1 1ST      0.149000
     40 H4          1.9780   -0.6250    3.3970 ha        1 1ST      0.147000
     41 H11        -5.5510   -1.1040    7.0020 ha        1 1ST      0.134000
     42 H12        -8.0170   -0.9940    6.7050 ha        1 1ST      0.150000
     43 H14        -7.5720   -0.2980    2.4290 ha        1 1ST      0.198000
     44 H20        -2.6630    0.3960   -1.4860 h4        1 1ST      0.058800
     45 H25         0.1500   -0.4160    6.7690 h1        1 1ST      0.101700
     46 H26        -0.6340   -2.7380    6.9910 hx        1 1ST      0.103700
     47 H271       -3.1390   -2.1490    7.0250 hc        1 1ST      0.095200
     48 H272       -2.0260   -0.9100    7.7370 hc        1 1ST      0.095200
     49 H28        -3.5460    0.3980    6.4990 h2        1 1ST      0.118700
     50 HN31       -2.1470   -2.5780    4.4490 hn        1 1ST      0.478300
     51 H321       -2.0670   -4.9510    4.5460 hx        1 1ST      0.103033
     52 H322       -2.7340   -4.2680    6.1120 hx        1 1ST      0.103033
     53 H323       -0.9920   -4.8380    6.0280 hx        1 1ST      0.103033
     54 H341        2.5050   -0.3200    6.0870 h1        1 1ST      0.058367
     55 H342        2.1470   -1.8300    7.0700 h1        1 1ST      0.058367
     56 H343        3.0370   -1.9680    5.4630 h1        1 1ST      0.058367
     57 H351       -0.0720    2.0030    3.9950 hc        1 1ST      0.073700
     58 H352        0.1430    1.8250    5.7840 hc        1 1ST      0.073700
     59 H353        1.2920    0.9820    4.6450 hc        1 1ST      0.073700
     60 HO36       -9.7210   -0.6940    5.1980 ho        1 1ST      0.430000
     61 H312       -0.5490   -3.0540    4.4620 hn        1 1ST      0.478300
@<TRIPOS>BOND
     1    1    2 ar  
     2    1   23 ar  
     3    1   37 1   
     4    2    3 ar  
     5    2   38 1   
     6    3    4 ar  
     7    3   39 1   
     8    4    5 ar  
     9    4   40 1   
    10    5    6 1   
    11    5   23 ar  
    12    6    7 1   
    13    6   24 1   
    14    7    8 ar  
    15    7   22 ar  
    16    8    9 1   
    17    8   16 ar  
    18    9   10 1   
    19    9   28 1   
    20   10   11 ar  
    21   10   15 ar  
    22   11   12 ar  
    23   11   41 1   
    24   12   13 ar  
    25   12   42 1   
    26   13   14 ar  
    27   13   36 1   
    28   14   15 ar  
    29   14   43 1   
    30   15   16 1   
    31   16   17 ar  
    32   17   18 1   
    33   17   21 ar  
    34   18   19 1   
    35   18   30 2   
    36   19   20 2   
    37   20   21 1   
    38   20   44 1   
    39   21   22 ar  
    40   22   23 1   
    41   24   25 1   
    42   24   29 1   
    43   24   35 1   
    44   25   26 1   
    45   25   33 1   
    46   25   45 1   
    47   26   27 1   
    48   26   31 1   
    49   26   46 1   
    50   27   28 1   
    51   27   47 1   
    52   27   48 1   
    53   28   29 1   
    54   28   49 1   
    55   31   32 1   
    56   31   50 1   
    57   31   61 1   
    58   32   51 1   
    59   32   52 1   
    60   32   53 1   
    61   33   34 1   
    62   34   54 1   
    63   34   55 1   
    64   34   56 1   
    65   35   57 1   
    66   35   58 1   
    67   35   59 1   
    68   36   60 1   
@<TRIPOS>SUBSTRUCTURE
     1 1ST         1 TEMP              0 ****  ****    0 ROOT
