@<TRIPOS>MOLECULE
1ST
   61    68     1     0     0
SMALL
bcc


@<TRIPOS>ATOM
      1 C1          0.0970    0.0730    0.0020 ca        1 1ST     -0.069000
      2 C2          1.4930    0.0070    0.0580 ca        1 1ST     -0.128000
      3 C3          2.1470   -0.2410    1.2630 ca        1 1ST     -0.097000
      4 C4          1.4400   -0.4190    2.4570 ca        1 1ST     -0.135000
      5 C5          0.0510   -0.3280    2.4240 ca        1 1ST     -0.036200
      6 N6         -0.8970   -0.5590    3.4860 na        1 1ST     -0.099300
      7 C7         -2.1780   -0.3840    2.8700 ca        1 1ST     -0.069200
      8 C8         -3.4220   -0.5190    3.4470 ca        1 1ST     -0.059200
      9 N9         -3.7280   -0.8640    4.7960 na        1 1ST     -0.103300
     10 C10        -5.1610   -0.7520    4.8920 ca        1 1ST     -0.087200
     11 C11        -5.9710   -0.9130    6.0090 ca        1 1ST     -0.104000
     12 C12        -7.3580   -0.8480    5.8390 ca        1 1ST     -0.186000
     13 C13        -7.9140   -0.6290    4.5720 ca        1 1ST      0.132100
     14 C14        -7.1080   -0.4590    3.4220 ca        1 1ST     -0.081000
     15 C15        -5.7400   -0.5150    3.5890 cp        1 1ST     -0.038000
     16 C16        -4.6330   -0.3650    2.6500 cp        1 1ST      0.045000
     17 C17        -4.5020   -0.1270    1.3120 ca        1 1ST     -0.149600
     18 C18        -5.5010    0.0660    0.1900 c         1 1ST      0.686100
     19 N19        -4.7340    0.2890   -1.0440 nc        1 1ST     -0.569100
     20 C20        -3.4660    0.2430   -0.7470 cd        1 1ST      0.511800
     21 C21        -3.2020   -0.0110    0.7010 ca        1 1ST     -0.173900
     22 C22        -2.0580   -0.1310    1.4410 cp        1 1ST      0.024000
     23 C23        -0.6280   -0.0970    1.1700 cp        1 1ST     -0.074000
     24 C24        -0.6780    0.0560    4.8090 c3        1 1ST      0.227500
     25 C25        -0.0820   -0.9830    5.8230 c3        1 1ST      0.101100
     26 C26        -1.1090   -2.0790    6.2000 c3        1 1ST      0.115500
     27 C27        -2.3390   -1.3920    6.7800 c3        1 1ST     -0.130400
     28 C28        -2.9050   -0.2910    5.8620 c3        1 1ST      0.211800
     29 O29        -1.8820    0.5870    5.3990 os        1 1ST     -0.394600
     30 O30        -6.7230    0.0410    0.2780 o         1 1ST     -0.445100
     31 N31        -1.4120   -2.9870    5.0410 n4        1 1ST     -0.747000
     32 C32        -1.8320   -4.3370    5.4710 c3        1 1ST      0.082100
     33 O33         1.0640   -1.6210    5.2870 os        1 1ST     -0.432600
     34 C34         2.2580   -1.4150    6.0390 c3        1 1ST      0.106700
     35 C35         0.2420    1.2950    4.7960 c3        1 1ST     -0.107100
     36 O36        -9.2670   -0.5660    4.3570 oh        1 1ST     -0.476100
     37 H1         -0.4150    0.2530   -0.9560 ha        1 1ST      0.149000
     38 H2          2.0790    0.1480   -0.8640 ha        1 1ST      0.155000
     39 H3          3.2480   -0.3020    1.2820 ha        1 1ST      0.149000
     40 H4          1.9770   -0.6380    3.3930 ha        1 1ST      0.147000
     41 H11        -5.5490   -1.0830    7.0090 ha        1 1ST      0.134000
     42 H12        -8.0140   -0.9680    6.7140 ha        1 1ST      0.150000
     43 H14        -7.5720   -0.2860    2.4360 ha        1 1ST      0.198000
     44 H20        -2.6670    0.3820   -1.4880 h4        1 1ST      0.058800
     45 H25         0.1550   -0.4130    6.7660 h1        1 1ST      0.101700
     46 H26        -0.6360   -2.7320    6.9970 hx        1 1ST      0.103700
     47 H271       -2.0220   -0.8980    7.7390 hc        1 1ST      0.095200
     48 H272       -3.1400   -2.1350    7.0320 hc        1 1ST      0.095200
     49 H28        -3.5400    0.4110    6.4990 h2        1 1ST      0.118700
     50 HN31       -0.5550   -3.0560    4.4680 hn        1 1ST      0.478300
     51 H321       -2.7420   -4.2590    6.1240 hx        1 1ST      0.103033
     52 H322       -1.0020   -4.8340    6.0400 hx        1 1ST      0.103033
     53 H323       -2.0790   -4.9480    4.5600 hx        1 1ST      0.103033
     54 H341        2.5090   -0.3270    6.0810 h1        1 1ST      0.058367
     55 H342        2.1470   -1.8330    7.0690 h1        1 1ST      0.058367
     56 H343        3.0350   -1.9780    5.4610 h1        1 1ST      0.058367
     57 H351        1.2980    0.9750    4.6380 hc        1 1ST      0.073700
     58 H352        0.1530    1.8250    5.7750 hc        1 1ST      0.073700
     59 H353       -0.0640    1.9980    3.9860 hc        1 1ST      0.073700
     60 HO36       -9.7190   -0.6680    5.2090 ho        1 1ST      0.430000
     61 H312       -2.1520   -2.5750    4.4550 hn        1 1ST      0.478300
@<TRIPOS>BOND
     1    1    2 ar  
     2    1   23 ar  
     3    1   37 1   
     4    2    3 ar  
     5    2   38 1   
     6    3    4 ar  
     7    3   39 1   
     8    4    5 ar  
     9    4   40 1   
    10    5    6 1   
    11    5   23 ar  
    12    6    7 1   
    13    6   24 1   
    14    7    8 ar  
    15    7   22 ar  
    16    8    9 1   
    17    8   16 ar  
    18    9   10 1   
    19    9   28 1   
    20   10   11 ar  
    21   10   15 ar  
    22   11   12 ar  
    23   11   41 1   
    24   12   13 ar  
    25   12   42 1   
    26   13   14 ar  
    27   13   36 1   
    28   14   15 ar  
    29   14   43 1   
    30   15   16 1   
    31   16   17 ar  
    32   17   18 1   
    33   17   21 ar  
    34   18   19 1   
    35   18   30 2   
    36   19   20 2   
    37   20   21 1   
    38   20   44 1   
    39   21   22 ar  
    40   22   23 1   
    41   24   25 1   
    42   24   29 1   
    43   24   35 1   
    44   25   26 1   
    45   25   33 1   
    46   25   45 1   
    47   26   27 1   
    48   26   31 1   
    49   26   46 1   
    50   27   28 1   
    51   27   47 1   
    52   27   48 1   
    53   28   29 1   
    54   28   49 1   
    55   31   32 1   
    56   31   50 1   
    57   31   61 1   
    58   32   51 1   
    59   32   52 1   
    60   32   53 1   
    61   33   34 1   
    62   34   54 1   
    63   34   55 1   
    64   34   56 1   
    65   35   57 1   
    66   35   58 1   
    67   35   59 1   
    68   36   60 1   
@<TRIPOS>SUBSTRUCTURE
     1 1ST         1 TEMP              0 ****  ****    0 ROOT
