@<TRIPOS>MOLECULE
1ST
   61    68     1     0     0
SMALL
bcc


@<TRIPOS>ATOM
      1 C1          0.1080    0.0870    0.0060 ca        1 1ST     -0.069000
      2 C2          1.5030   -0.0020    0.0620 ca        1 1ST     -0.128000
      3 C3          2.1530   -0.2660    1.2660 ca        1 1ST     -0.097000
      4 C4          1.4420   -0.4350    2.4600 ca        1 1ST     -0.135000
      5 C5          0.0540   -0.3210    2.4260 ca        1 1ST     -0.036200
      6 N6         -0.8980   -0.5390    3.4870 na        1 1ST     -0.099300
      7 C7         -2.1750   -0.3400    2.8710 ca        1 1ST     -0.069200
      8 C8         -3.4210   -0.4550    3.4470 ca        1 1ST     -0.059200
      9 N9         -3.7340   -0.7990    4.7950 na        1 1ST     -0.103300
     10 C10        -5.1650   -0.6640    4.8910 ca        1 1ST     -0.087200
     11 C11        -5.9780   -0.8140    6.0070 ca        1 1ST     -0.104000
     12 C12        -7.3640   -0.7250    5.8370 ca        1 1ST     -0.186000
     13 C13        -7.9150   -0.4920    4.5710 ca        1 1ST      0.132100
     14 C14        -7.1060   -0.3330    3.4220 ca        1 1ST     -0.081000
     15 C15        -5.7390   -0.4120    3.5880 cp        1 1ST     -0.038000
     16 C16        -4.6300   -0.2790    2.6500 cp        1 1ST      0.045000
     17 C17        -4.4940   -0.0380    1.3130 ca        1 1ST     -0.149600
     18 C18        -5.4890    0.1750    0.1910 c         1 1ST      0.686100
     19 N19        -4.7180    0.3890   -1.0420 nc        1 1ST     -0.569100
     20 C20        -3.4510    0.3210   -0.7440 cd        1 1ST      0.511800
     21 C21        -3.1920    0.0570    0.7030 ca        1 1ST     -0.173900
     22 C22        -2.0510   -0.0840    1.4430 cp        1 1ST      0.024000
     23 C23        -0.6200   -0.0740    1.1730 cp        1 1ST     -0.074000
     24 C24        -0.6690    0.0680    4.8120 c3        1 1ST      0.227500
     25 C25        -0.0910   -0.9840    5.8230 c3        1 1ST      0.101100
     26 C26        -1.1370   -2.0630    6.1960 c3        1 1ST      0.115500
     27 C27        -2.3550   -1.3580    6.7780 c3        1 1ST     -0.130400
     28 C28        -2.9020   -0.2440    5.8630 c3        1 1ST      0.211800
     29 O29        -1.8640    0.6180    5.4030 os        1 1ST     -0.394600
     30 O30        -6.7110    0.1710    0.2790 o         1 1ST     -0.445100
     31 N31        -1.4550   -2.9630    5.0340 n4        1 1ST     -0.747000
     32 C32        -1.8980   -4.3070    5.4600 c3        1 1ST      0.082100
     33 O33         1.0440   -1.6400    5.2860 os        1 1ST     -0.432600
     34 C34         2.2410   -1.4570    6.0390 c3        1 1ST      0.106700
     35 C35         0.2720    1.2920    4.8040 c3        1 1ST     -0.107100
     36 O36        -9.2670   -0.4050    4.3550 oh        1 1ST     -0.476100
     37 H1         -0.4000    0.2790   -0.9520 ha        1 1ST      0.149000
     38 H2          2.0910    0.1320   -0.8590 ha        1 1ST      0.155000
     39 H3          3.2520   -0.3450    1.2850 ha        1 1ST      0.149000
     40 H4          1.9740   -0.6660    3.3950 ha        1 1ST      0.147000
     41 H11        -5.5590   -0.9950    7.0060 ha        1 1ST      0.134000
     42 H12        -8.0230   -0.8360    6.7120 ha        1 1ST      0.150000
     43 H14        -7.5670   -0.1480    2.4360 ha        1 1ST      0.198000
     44 H20        -2.6490    0.4480   -1.4840 h4        1 1ST      0.058800
     45 H25         0.1550   -0.4210    6.7680 h1        1 1ST      0.101700
     46 H26        -0.6760   -2.7270    6.9910 hx        1 1ST      0.103700
     47 H271       -2.0310   -0.8720    7.7390 hc        1 1ST      0.095200
     48 H272       -3.1690   -2.0880    7.0280 hc        1 1ST      0.095200
     49 H28        -3.5250    0.4660    6.5020 h2        1 1ST      0.118700
     50 HN31       -0.5990   -3.0440    4.4610 hn        1 1ST      0.478300
     51 H321       -1.0770   -4.8190    6.0280 hx        1 1ST      0.103033
     52 H322       -2.8070   -4.2150    6.1130 hx        1 1ST      0.103033
     53 H323       -2.1550   -4.9110    4.5470 hx        1 1ST      0.103033
     54 H341        2.5100   -0.3730    6.0850 h1        1 1ST      0.058367
     55 H342        3.0080   -2.0310    5.4600 h1        1 1ST      0.058367
     56 H343        2.1220   -1.8760    7.0670 h1        1 1ST      0.058367
     57 H351       -0.0210    2.0030    3.9950 hc        1 1ST      0.073700
     58 H352        1.3230    0.9540    4.6450 hc        1 1ST      0.073700
     59 H353        0.1920    1.8200    5.7850 hc        1 1ST      0.073700
     60 HO36       -9.7220   -0.5020    5.2060 ho        1 1ST      0.430000
     61 H312       -2.1880   -2.5360    4.4500 hn        1 1ST      0.478300
@<TRIPOS>BOND
     1    1    2 ar  
     2    1   23 ar  
     3    1   37 1   
     4    2    3 ar  
     5    2   38 1   
     6    3    4 ar  
     7    3   39 1   
     8    4    5 ar  
     9    4   40 1   
    10    5    6 1   
    11    5   23 ar  
    12    6    7 1   
    13    6   24 1   
    14    7    8 ar  
    15    7   22 ar  
    16    8    9 1   
    17    8   16 ar  
    18    9   10 1   
    19    9   28 1   
    20   10   11 ar  
    21   10   15 ar  
    22   11   12 ar  
    23   11   41 1   
    24   12   13 ar  
    25   12   42 1   
    26   13   14 ar  
    27   13   36 1   
    28   14   15 ar  
    29   14   43 1   
    30   15   16 1   
    31   16   17 ar  
    32   17   18 1   
    33   17   21 ar  
    34   18   19 1   
    35   18   30 2   
    36   19   20 2   
    37   20   21 1   
    38   20   44 1   
    39   21   22 ar  
    40   22   23 1   
    41   24   25 1   
    42   24   29 1   
    43   24   35 1   
    44   25   26 1   
    45   25   33 1   
    46   25   45 1   
    47   26   27 1   
    48   26   31 1   
    49   26   46 1   
    50   27   28 1   
    51   27   47 1   
    52   27   48 1   
    53   28   29 1   
    54   28   49 1   
    55   31   32 1   
    56   31   50 1   
    57   31   61 1   
    58   32   51 1   
    59   32   52 1   
    60   32   53 1   
    61   33   34 1   
    62   34   54 1   
    63   34   55 1   
    64   34   56 1   
    65   35   57 1   
    66   35   58 1   
    67   35   59 1   
    68   36   60 1   
@<TRIPOS>SUBSTRUCTURE
     1 1ST         1 TEMP              0 ****  ****    0 ROOT
