@<TRIPOS>MOLECULE
1SU
   57    61     1     0     0
SMALL
bcc


@<TRIPOS>ATOM
      1 C4         -6.7740   -2.1380    0.3980 ca        1 1SU     -0.074000
      2 C5          2.9910    2.0000    1.0540 ca        1 1SU     -0.036000
      3 C6          2.0300    2.2570    0.0960 ca        1 1SU     -0.169000
      4 C7         -0.7720    3.1420   -2.6470 ca        1 1SU     -0.142000
      5 C8         -2.1260    3.3630   -2.4330 ca        1 1SU     -0.115000
      6 C10        -0.7640    1.4970   -0.8310 ca        1 1SU     -0.186000
      7 C13        -6.8620   -0.8580    0.9480 ca        1 1SU     -0.164300
      8 C15        -2.1340    1.7200   -0.5950 ca        1 1SU      0.068600
      9 C17         2.0970    1.6370   -1.1700 ca        1 1SU      0.145100
     10 C20         5.9070   -0.0920    1.0190 cc        1 1SU      0.398800
     11 C21         7.9010   -1.5190    1.0030 c         1 1SU      0.691100
     12 C22        -2.3600    0.2210    1.3910 c         1 1SU      0.670100
     13 C24        10.4530   -1.7010    1.3680 cx        1 1SU     -0.110900
     14 C26        -3.3840   -0.3770    2.3500 c3        1 1SU     -0.114100
     15 C2         -5.5710   -2.8390    0.4850 ca        1 1SU     -0.128000
     16 C3         -4.4680   -2.2650    1.1160 ca        1 1SU     -0.086000
     17 C9         -5.7610   -0.2740    1.5770 ca        1 1SU     -0.087000
     18 C11         3.1250    0.7420   -1.4980 ca        1 1SU      0.013000
     19 C12        -4.5560   -0.9780    1.6630 ca        1 1SU     -0.102300
     20 C14         4.0470    1.1120    0.7530 ca        1 1SU      0.089400
     21 C16        -0.1100    2.2050   -1.8410 ca        1 1SU      0.117100
     22 C18        -2.8110    2.6730   -1.4220 ca        1 1SU      0.048900
     23 C19         4.1130    0.4810   -0.5330 ca        1 1SU     -0.108100
     24 C23         9.9100   -1.0660    2.6120 cx        1 1SU     -0.110900
     25 C25         9.0510   -2.0130    1.8180 cx        1 1SU     -0.213700
     26 C27        -8.1810   -0.0950    0.8800 c3        1 1SU      0.687200
     27 N28         3.2090   -0.3820   -3.8210 n1        1 1SU     -0.350800
     28 N29         5.0800    0.7750    1.6290 nd        1 1SU     -0.583100
     29 N30        -2.8600    1.0470    0.3970 n         1 1SU     -0.465100
     30 N31         7.0410   -0.6200    1.6320 n         1 1SU     -0.461400
     31 O32         7.6850   -1.8940   -0.1630 o         1 1SU     -0.565100
     32 O33        -1.1490   -0.0170    1.5430 o         1 1SU     -0.583100
     33 O34         1.2150    1.9570   -2.1950 os        1 1SU     -0.238200
     34 F35        -4.1350    2.9180   -1.2390 f         1 1SU     -0.143900
     35 F36        -8.0480    1.2720    0.8460 f         1 1SU     -0.234967
     36 F37        -8.9520   -0.3870   -0.2190 f         1 1SU     -0.234967
     37 F38        -9.0160   -0.3250    1.9470 f         1 1SU     -0.234967
     38 S39         5.4620   -0.5210   -0.6220 ss        1 1SU      0.125900
     39 H1         -7.6480   -2.5840   -0.1030 ha        1 1SU      0.156000
     40 H2          2.9420    2.4790    2.0440 ha        1 1SU      0.159000
     41 H3          1.1970    2.9450    0.3100 ha        1 1SU      0.157000
     42 H4         -0.2250    3.6740   -3.4390 ha        1 1SU      0.162000
     43 H5         -2.6780    4.0860   -3.0530 ha        1 1SU      0.157000
     44 H6         -0.1960    0.7680   -0.2260 ha        1 1SU      0.192000
     45 H7         10.5990   -1.0830    0.4640 hc        1 1SU      0.084450
     46 H8         11.2180   -2.4950    1.4520 hc        1 1SU      0.084450
     47 H9         -2.8490   -1.1600    2.9550 hc        1 1SU      0.089700
     48 H10        -3.7100    0.4340    3.0570 hc        1 1SU      0.089700
     49 H11        -5.4940   -3.8480    0.0530 ha        1 1SU      0.149000
     50 H12        -3.5220   -2.8240    1.1850 ha        1 1SU      0.150000
     51 H13        -5.8500    0.7380    2.0060 ha        1 1SU      0.152000
     52 H14        10.2840   -1.3990    3.5980 hc        1 1SU      0.084450
     53 H15         9.6810    0.0150    2.6050 hc        1 1SU      0.084450
     54 H16         8.8310   -3.0190    2.2300 hc        1 1SU      0.116700
     55 H17        -3.8500    1.1720    0.3620 hn        1 1SU      0.333500
     56 H18         7.2350   -0.3440    2.5710 hn        1 1SU      0.343500
     57 C1          3.1780    0.1220   -2.7730 cg        1 1SU      0.240800
@<TRIPOS>BOND
     1    1    7 ar  
     2    1   15 ar  
     3    1   39 1   
     4    2    3 ar  
     5    2   20 ar  
     6    2   40 1   
     7    3    9 ar  
     8    3   41 1   
     9    4    5 ar  
    10    4   21 ar  
    11    4   42 1   
    12    5   22 ar  
    13    5   43 1   
    14    6    8 ar  
    15    6   21 ar  
    16    6   44 1   
    17    7   17 ar  
    18    7   26 1   
    19    8   22 ar  
    20    8   29 1   
    21    9   18 ar  
    22    9   33 1   
    23   10   28 2   
    24   10   30 1   
    25   10   38 1   
    26   11   25 1   
    27   11   30 1   
    28   11   31 2   
    29   12   14 1   
    30   12   29 1   
    31   12   32 2   
    32   13   24 1   
    33   13   25 1   
    34   13   45 1   
    35   13   46 1   
    36   14   19 1   
    37   14   47 1   
    38   14   48 1   
    39   15   16 ar  
    40   15   49 1   
    41   16   19 ar  
    42   16   50 1   
    43   17   19 ar  
    44   17   51 1   
    45   18   23 ar  
    46   18   57 1   
    47   20   23 ar  
    48   20   28 1   
    49   21   33 1   
    50   22   34 1   
    51   23   38 1   
    52   24   25 1   
    53   24   52 1   
    54   24   53 1   
    55   25   54 1   
    56   26   35 1   
    57   26   36 1   
    58   26   37 1   
    59   27   57 3   
    60   29   55 1   
    61   30   56 1   
@<TRIPOS>SUBSTRUCTURE
     1 1SU         1 TEMP              0 ****  ****    0 ROOT
