@<TRIPOS>MOLECULE
1SU
   57    61     1     0     0
SMALL
bcc


@<TRIPOS>ATOM
      1 C4          0.9590   -0.1970    0.1580 ca        1 1SU     -0.074000
      2 C5          1.3080   -7.2190    8.1460 ca        1 1SU     -0.036000
      3 C6          2.3080   -6.9130    7.2450 ca        1 1SU     -0.169000
      4 C7          5.3010   -5.9690    4.7360 ca        1 1SU     -0.142000
      5 C8          5.6740   -4.7040    4.3030 ca        1 1SU     -0.115000
      6 C10         2.9590   -5.2500    4.7850 ca        1 1SU     -0.186000
      7 C13         1.6190    0.3770    1.2460 ca        1 1SU     -0.164300
      8 C15         3.3250   -3.9590    4.3570 ca        1 1SU      0.068600
      9 C17         2.5690   -7.7620    6.1490 ca        1 1SU      0.145100
     10 C20        -0.9840   -9.9750    8.3330 cc        1 1SU      0.397800
     11 C21        -2.5420  -11.8560    8.4560 c         1 1SU      0.693100
     12 C22         1.0480   -2.9350    4.4630 c         1 1SU      0.670100
     13 C24        -4.7050  -13.2380    8.4260 cx        1 1SU     -0.096400
     14 C26         0.2730   -1.6640    4.1300 c3        1 1SU     -0.114100
     15 C2          0.0760   -1.2550    0.3730 ca        1 1SU     -0.128000
     16 C3         -0.1440   -1.7350    1.6630 ca        1 1SU     -0.086000
     17 C9          1.4080   -0.1010    2.5400 ca        1 1SU     -0.087000
     18 C11         1.8270   -8.9310    5.9310 ca        1 1SU      0.013000
     19 C12         0.5230   -1.1630    2.7540 ca        1 1SU     -0.102300
     20 C14         0.5490   -8.3960    7.9640 ca        1 1SU      0.089400
     21 C16         3.9420   -6.2240    4.9680 ca        1 1SU      0.117100
     22 C18         4.7130   -3.7000    4.1150 ca        1 1SU      0.048900
     23 C19         0.8140   -9.2580    6.8470 ca        1 1SU     -0.111100
     24 C23        -3.7190  -13.9910    9.2600 cx        1 1SU     -0.096400
     25 C25        -3.6630  -12.4810    9.2170 cx        1 1SU     -0.227700
     26 C27         2.5660    1.5510    1.0220 c3        1 1SU      0.687200
     27 N28         2.3240  -10.4550    3.9060 n1        1 1SU     -0.351800
     28 N29        -0.4810   -8.8200    8.8050 nd        1 1SU     -0.582100
     29 N30         2.3980   -2.9290    4.1480 ns        1 1SU     -0.465100
     30 N31        -2.0300  -10.6570    8.9500 ns        1 1SU     -0.457400
     31 O32        -2.0620  -12.3570    7.4200 o         1 1SU     -0.582100
     32 O33         0.4740   -3.8900    5.0150 o         1 1SU     -0.582100
     33 O34         3.6380   -7.5460    5.2870 os        1 1SU     -0.238200
     34 F35         5.1160   -2.4730    3.6940 f         1 1SU     -0.144900
     35 F36         1.9560    2.7810    1.0800 f         1 1SU     -0.234967
     36 F37         3.5880    1.6410    1.9360 f         1 1SU     -0.234967
     37 F38         3.2000    1.5480   -0.1960 f         1 1SU     -0.234967
     38 S39        -0.2300  -10.5780    6.8710 ss        1 1SU      0.132900
     39 H1          1.1400    0.1840   -0.8600 ha        1 1SU      0.156000
     40 H2          1.0990   -6.5590    9.0020 ha        1 1SU      0.159000
     41 H3          2.9110   -6.0000    7.3680 ha        1 1SU      0.157000
     42 H4          6.0450   -6.7650    4.8830 ha        1 1SU      0.162000
     43 H5          6.7320   -4.4730    4.1040 ha        1 1SU      0.157000
     44 H6          1.9020   -5.5040    4.9780 ha        1 1SU      0.192000
     45 H7         -5.7580  -13.1670    8.7530 hc        1 1SU      0.088200
     46 H8         -4.6040  -13.2710    7.3250 hc        1 1SU      0.088200
     47 H9         -0.8190   -1.9030    4.2590 hc        1 1SU      0.089700
     48 H10         0.5430   -0.8840    4.8930 hc        1 1SU      0.089700
     49 H11        -0.4480   -1.7120   -0.4810 ha        1 1SU      0.149000
     50 H12        -0.8450   -2.5680    1.8280 ha        1 1SU      0.150000
     51 H13         1.9380    0.3650    3.3880 ha        1 1SU      0.152000
     52 H14        -2.9180  -14.5590    8.7500 hc        1 1SU      0.088200
     53 H15        -4.0480  -14.4730   10.1970 hc        1 1SU      0.088200
     54 H16        -3.9940  -11.9210   10.1140 hc        1 1SU      0.095700
     55 H17         2.7590   -2.1110    3.7030 hn        1 1SU      0.333500
     56 H18        -2.4190  -10.2610    9.7780 hn        1 1SU      0.342500
     57 C1          2.0960   -9.7730    4.8210 cg        1 1SU      0.241800
@<TRIPOS>BOND
     1    1    7 ar  
     2    1   15 ar  
     3    1   39 1   
     4    2    3 ar  
     5    2   20 ar  
     6    2   40 1   
     7    3    9 ar  
     8    3   41 1   
     9    4    5 ar  
    10    4   21 ar  
    11    4   42 1   
    12    5   22 ar  
    13    5   43 1   
    14    6    8 ar  
    15    6   21 ar  
    16    6   44 1   
    17    7   17 ar  
    18    7   26 1   
    19    8   22 ar  
    20    8   29 1   
    21    9   18 ar  
    22    9   33 1   
    23   10   28 2   
    24   10   30 1   
    25   10   38 1   
    26   11   25 1   
    27   11   30 1   
    28   11   31 2   
    29   12   14 1   
    30   12   29 1   
    31   12   32 2   
    32   13   24 1   
    33   13   25 1   
    34   13   45 1   
    35   13   46 1   
    36   14   19 1   
    37   14   47 1   
    38   14   48 1   
    39   15   16 ar  
    40   15   49 1   
    41   16   19 ar  
    42   16   50 1   
    43   17   19 ar  
    44   17   51 1   
    45   18   23 ar  
    46   18   57 1   
    47   20   23 ar  
    48   20   28 1   
    49   21   33 1   
    50   22   34 1   
    51   23   38 1   
    52   24   25 1   
    53   24   52 1   
    54   24   53 1   
    55   25   54 1   
    56   26   35 1   
    57   26   36 1   
    58   26   37 1   
    59   27   57 3   
    60   29   55 1   
    61   30   56 1   
@<TRIPOS>SUBSTRUCTURE
     1 1SU         1 TEMP              0 ****  ****    0 ROOT
