@<TRIPOS>MOLECULE
1SU
   57    43     1     0     0
SMALL
bcc


@<TRIPOS>ATOM
      1 C4          4.0060    7.4990   -4.4900 c1        1 1SU     -0.076000
      2 C5         -2.1140   -1.8360    2.7520 c1        1 1SU     -0.119833
      3 C6         -1.5810   -1.1310    1.6620 c1        1 1SU     -0.119833
      4 C7          1.2460   -0.4750   -0.1880 c1        1 1SU     -0.119833
      5 C8          2.1530    0.5770   -0.0830 c1        1 1SU     -0.119833
      6 C10        -0.4330    1.0570   -1.0100 c1        1 1SU     -0.155000
      7 C13         2.8680    7.1830   -5.2260 c1        1 1SU     -0.159000
      8 C15         0.4750    2.1090   -0.9040 c1        1 1SU      0.066500
      9 C17        -1.4280   -1.7710    0.4090 c1        1 1SU      0.024000
     10 C20        -2.9580   -5.5290    3.0290 c1        1 1SU     -0.121000
     11 C21        -2.2950   -7.7390    3.9310 c1        1 1SU      0.338000
     12 C22         1.0040    4.1900   -2.1630 c1        1 1SU      0.305000
     13 C24        -2.1300   -8.4970    6.7940 cx        1 1SU     -0.192000
     14 C26         0.6180    5.5960   -2.6230 c2        1 1SU     -0.149000
     15 C1         -1.8400   -3.7660   -1.1190 c1        1 1SU     -0.090000
     16 C2          4.0600    7.2060   -3.1320 c1        1 1SU     -0.119833
     17 C3          2.9760    6.5970   -2.5090 c1        1 1SU     -0.119833
     18 C9          1.7840    6.5740   -4.6030 c2        1 1SU     -0.091000
     19 C11        -1.8090   -3.1110    0.2550 c1        1 1SU     -0.161500
     20 C12         1.8370    6.2810   -3.2460 c1        1 1SU     -0.093000
     21 C14        -2.4930   -3.1660    2.6020 c1        1 1SU      0.024000
     22 C16        -0.0470   -0.2370   -0.6520 c1        1 1SU      0.055000
     23 C18         1.7670    1.8710   -0.4410 c1        1 1SU      0.066500
     24 C19        -2.3390   -3.8140    1.3370 c1        1 1SU     -0.161500
     25 C23        -2.8760   -9.0670    6.0420 cx        1 1SU     -0.192000
     26 C25        -1.6720   -8.9990    5.6670 cx        1 1SU     -0.199000
     27 C27         2.8160    7.5670   -6.6920 c2        1 1SU      0.466000
     28 N28        -1.8630   -4.2590   -2.1510 n1        1 1SU     -0.022000
     29 N29        -2.8880   -4.2610    3.6790 n1        1 1SU     -0.157000
     30 N30         0.1350    3.4570   -1.2960 n2        1 1SU     -0.325000
     31 N31        -2.7180   -6.3890    4.1460 n1        1 1SU     -0.302000
     32 O32        -2.1420   -8.1530    2.7940 o         1 1SU     -0.333000
     33 O33         2.0310    3.6760   -2.5710 o         1 1SU     -0.321000
     34 O34        -0.9430   -1.3260   -0.8470 os        1 1SU     -0.147000
     35 F35         2.7130    2.6660    0.0960 f         1 1SU     -0.083000
     36 F36         4.0430    7.4530   -7.2290 f         1 1SU     -0.164000
     37 F37         1.9660    6.7510   -7.3390 f         1 1SU     -0.164000
     38 F38         2.3930    8.8380   -6.8080 f         1 1SU     -0.164000
     39 S39        -2.6200   -5.3170    1.5390 s         1 1SU      0.591000
     40 H1          4.7720    7.9300   -4.9300 ha        1 1SU      0.157000
     41 H2         -2.2200   -1.3910    3.6210 ha        1 1SU      0.154833
     42 H3         -1.3140   -0.1950    1.7680 ha        1 1SU      0.154833
     43 H4          1.5190   -1.3890    0.0650 ha        1 1SU      0.154833
     44 H5          3.0690    0.4090    0.2450 ha        1 1SU      0.154833
     45 H6         -1.3450    1.2250   -1.3370 ha        1 1SU      0.159000
     46 H7         -2.2170   -7.5210    6.8210 hc        1 1SU      0.123500
     47 H8         -1.8870   -8.9900    7.6100 hc        1 1SU      0.123500
     48 H9         -0.1050    5.5360   -3.2930 ha        1 1SU      0.130000
     49 H10         0.3060    6.1190   -1.8500 ha        1 1SU      0.130000
     50 H11         4.8630    7.4290   -2.6130 ha        1 1SU      0.154833
     51 H12         3.0130    6.3900   -1.5500 ha        1 1SU      0.154833
     52 H13         0.9800    6.3510   -5.1230 ha        1 1SU      0.152000
     53 H14        -3.1760   -9.9570    6.3390 hc        1 1SU      0.123500
     54 H15        -3.5010   -8.4930    5.5550 hc        1 1SU      0.123500
     55 H16        -0.9070   -9.4930    5.2890 hc        1 1SU      0.164000
     56 H17        -0.6650    3.8280   -1.0250 hn        1 1SU      0.236000
     57 H18        -2.8900   -6.0940    4.9960 hn        1 1SU      0.255000
@<TRIPOS>BOND
     1    1    7 1   
     2    1   40 1   
     3    2    3 1   
     4    2   41 1   
     5    3   42 1   
     6    4    5 1   
     7    4   43 1   
     8    5   44 1   
     9    6   22 1   
    10    6   45 1   
    11    7   18 1   
    12    8   23 1   
    13    9   19 1   
    14   10   29 1   
    15   10   39 1   
    16   11   26 1   
    17   11   32 1   
    18   12   30 1   
    19   12   33 1   
    20   13   25 1   
    21   13   26 1   
    22   13   46 1   
    23   13   47 1   
    24   14   20 1   
    25   14   48 1   
    26   14   49 1   
    27   15   28 1   
    28   16   17 1   
    29   16   50 1   
    30   17   51 1   
    31   18   20 1   
    32   18   52 1   
    33   19   24 1   
    34   21   24 1   
    35   25   26 1   
    36   25   53 1   
    37   25   54 1   
    38   26   55 1   
    39   27   36 1   
    40   27   37 1   
    41   27   38 1   
    42   30   56 1   
    43   31   57 1   
@<TRIPOS>SUBSTRUCTURE
     1 1SU         1 TEMP              0 ****  ****    0 ROOT
