@<TRIPOS>MOLECULE
1SV
   36    37     1     0     0
SMALL
bcc


@<TRIPOS>ATOM
      1 C2         -0.0860   -0.1460   -0.0510 c3        1 1SV     -0.105400
      2 C1          1.4150   -0.3930    0.0110 c3        1 1SV     -0.016700
      3 N1          1.9870   -0.1870    1.3360 nh        1 1SV     -0.233100
      4 C9          1.3840    0.4330    2.3310 c2        1 1SV      0.411300
      5 C4         -0.0280    0.9850    2.2070 c3        1 1SV     -0.129300
      6 C3         -0.4630    1.0840    0.7410 c3        1 1SV     -0.095400
      7 C8          2.0550    0.5580    3.6690 c3        1 1SV     -0.177700
      8 C7          1.9530    1.9560    4.2690 c3        1 1SV     -0.016500
      9 C6          0.5200    2.4660    4.2030 c3        1 1SV     -0.088400
     10 C5         -0.0710    2.3920    2.8160 c3        1 1SV     -0.076400
     11 C10        -0.9670    0.0470    2.9610 c3        1 1SV     -0.100100
     12 C11         2.9330    2.9340    3.6950 c2        1 1SV     -0.164400
     13 C12         3.3910    2.7480    2.2970 c3        1 1SV     -0.058900
     14 C13         3.3800    3.9500    4.4430 c2        1 1SV     -0.165000
     15 H1         -0.6410   -1.0440    0.3320 hc        1 1SV      0.087200
     16 H2         -0.3730   -0.0120   -1.1280 hc        1 1SV      0.087200
     17 H3          1.6450   -1.4540   -0.2970 h1        1 1SV      0.099700
     18 H4          1.9520    0.3080   -0.6950 h1        1 1SV      0.099700
     19 H5         -1.5760    1.2300    0.7050 hc        1 1SV      0.081200
     20 H6          0.0060    1.9900    0.2710 hc        1 1SV      0.081200
     21 H7          3.1380    0.2560    3.6320 hc        1 1SV      0.099700
     22 H8          1.5240   -0.1660    4.3540 hc        1 1SV      0.099700
     23 H9          2.2110    1.8340    5.3670 hc        1 1SV      0.087700
     24 H10         0.5010    3.5360    4.5480 hc        1 1SV      0.072200
     25 H11        -0.1110    1.8750    4.9190 hc        1 1SV      0.072200
     26 H12        -1.1450    2.7180    2.8500 hc        1 1SV      0.075200
     27 H13         0.4750    3.1050    2.1410 hc        1 1SV      0.075200
     28 H14        -2.0090    0.4490    2.9040 hc        1 1SV      0.064700
     29 H15        -0.6800   -0.0290    4.0380 hc        1 1SV      0.064700
     30 H16        -0.9570   -0.9740    2.5100 hc        1 1SV      0.064700
     31 H17         4.0260    1.8310    2.2110 hc        1 1SV      0.039367
     32 H18         2.5190    2.6460    1.6030 hc        1 1SV      0.039367
     33 H19         4.0030    3.6210    1.9550 hc        1 1SV      0.039367
     34 H20         3.0630    4.1020    5.4840 ha        1 1SV      0.132000
     35 H21         4.0930    4.6930    4.0590 ha        1 1SV      0.132000
     36 H22         2.9260   -0.5310    1.4590 hn        1 1SV      0.320700
@<TRIPOS>BOND
     1    1    2 1   
     2    1    6 1   
     3    1   15 1   
     4    1   16 1   
     5    2    3 1   
     6    2   17 1   
     7    2   18 1   
     8    3    4 2   
     9    3   36 1   
    10    4    5 1   
    11    4    7 1   
    12    5    6 1   
    13    5   10 1   
    14    5   11 1   
    15    6   19 1   
    16    6   20 1   
    17    7    8 1   
    18    7   21 1   
    19    7   22 1   
    20    8    9 1   
    21    8   12 1   
    22    8   23 1   
    23    9   10 1   
    24    9   24 1   
    25    9   25 1   
    26   10   26 1   
    27   10   27 1   
    28   11   28 1   
    29   11   29 1   
    30   11   30 1   
    31   12   13 1   
    32   12   14 2   
    33   13   31 1   
    34   13   32 1   
    35   13   33 1   
    36   14   34 1   
    37   14   35 1   
@<TRIPOS>SUBSTRUCTURE
     1 1SV         1 TEMP              0 ****  ****    0 ROOT
