@<TRIPOS>MOLECULE
1SV
   36    37     1     0     0
SMALL
bcc


@<TRIPOS>ATOM
      1 C2          3.1550   -0.3760    0.4590 c3        1 1SV     -0.105400
      2 C1          2.5350   -1.6260   -0.1510 c3        1 1SV     -0.016700
      3 N1          1.2680   -1.3790   -0.8270 nh        1 1SV     -0.233100
      4 C9          0.5440   -0.2850   -0.6990 c2        1 1SV      0.411300
      5 C4          0.9850    0.8840    0.1690 c3        1 1SV     -0.129300
      6 C3          2.1040    0.4730    1.1330 c3        1 1SV     -0.095400
      7 C8         -0.7340   -0.1220   -1.4730 c3        1 1SV     -0.177700
      8 C7         -1.8880    0.4090   -0.6310 c3        1 1SV     -0.016500
      9 C6         -1.4510    1.6220    0.1770 c3        1 1SV     -0.088400
     10 C5         -0.2100    1.3700    0.9980 c3        1 1SV     -0.076400
     11 C10         1.4820    1.9930   -0.7550 c3        1 1SV     -0.100100
     12 C11        -2.5460   -0.6350    0.2190 c2        1 1SV     -0.164400
     13 C12        -1.7380   -1.7840    0.6930 c3        1 1SV     -0.058900
     14 C13        -3.8420   -0.5200    0.5350 c2        1 1SV     -0.165000
     15 H1          3.9260   -0.7000    1.2090 hc        1 1SV      0.087200
     16 H2          3.6880    0.2150   -0.3320 hc        1 1SV      0.087200
     17 H3          3.2420   -2.0780   -0.9070 h1        1 1SV      0.099700
     18 H4          2.3370   -2.3930    0.6560 h1        1 1SV      0.099700
     19 H5          1.6640   -0.0920    1.9980 hc        1 1SV      0.081200
     20 H6          2.5780    1.4010    1.5500 hc        1 1SV      0.081200
     21 H7         -0.5110    0.6270   -2.2890 hc        1 1SV      0.099700
     22 H8         -1.0550   -1.0780   -1.9710 hc        1 1SV      0.099700
     23 H9         -2.6650    0.7690   -1.3750 hc        1 1SV      0.087700
     24 H10        -1.2770    2.4840   -0.5220 hc        1 1SV      0.072200
     25 H11        -2.2880    1.9180    0.8670 hc        1 1SV      0.072200
     26 H12        -0.4390    0.6140    1.7960 hc        1 1SV      0.075200
     27 H13         0.0970    2.3200    1.5150 hc        1 1SV      0.075200
     28 H14         0.6790    2.3220   -1.4570 hc        1 1SV      0.064700
     29 H15         1.7880    2.8740   -0.1370 hc        1 1SV      0.064700
     30 H16         2.3650    1.6520   -1.3470 hc        1 1SV      0.064700
     31 H17        -0.8030   -1.4320    1.1960 hc        1 1SV      0.039367
     32 H18        -2.3120   -2.4030    1.4280 hc        1 1SV      0.039367
     33 H19        -1.4560   -2.4450   -0.1650 hc        1 1SV      0.039367
     34 H20        -4.4640    0.3160    0.1880 ha        1 1SV      0.132000
     35 H21        -4.3610   -1.2590    1.1620 ha        1 1SV      0.132000
     36 H22         0.9340   -2.1330   -1.4070 hn        1 1SV      0.320700
@<TRIPOS>BOND
     1    1    2 1   
     2    1    6 1   
     3    1   15 1   
     4    1   16 1   
     5    2    3 1   
     6    2   17 1   
     7    2   18 1   
     8    3    4 2   
     9    3   36 1   
    10    4    5 1   
    11    4    7 1   
    12    5    6 1   
    13    5   10 1   
    14    5   11 1   
    15    6   19 1   
    16    6   20 1   
    17    7    8 1   
    18    7   21 1   
    19    7   22 1   
    20    8    9 1   
    21    8   12 1   
    22    8   23 1   
    23    9   10 1   
    24    9   24 1   
    25    9   25 1   
    26   10   26 1   
    27   10   27 1   
    28   11   28 1   
    29   11   29 1   
    30   11   30 1   
    31   12   13 1   
    32   12   14 2   
    33   13   31 1   
    34   13   32 1   
    35   13   33 1   
    36   14   34 1   
    37   14   35 1   
@<TRIPOS>SUBSTRUCTURE
     1 1SV         1 TEMP              0 ****  ****    0 ROOT
