@<TRIPOS>MOLECULE
1SV
   36    35     1     0     0
SMALL
bcc


@<TRIPOS>ATOM
      1 C2         -0.6460   -1.4350   -2.7600 c3        1 1SV     -0.184000
      2 C1          1.0380   -1.4330   -2.7500 c3        1 1SV     -0.077000
      3 N1          1.5780   -1.4480   -1.3540 n3        1 1SV     -0.144000
      4 C9          0.6780   -0.6690   -0.2610 c1        1 1SV      0.205000
      5 C4         -0.7360   -0.6540   -0.5100 c2        1 1SV     -0.053000
      6 C3         -1.1650   -0.6070   -2.0680 c3        1 1SV     -0.174000
      7 C8          1.0720   -0.6460    1.2340 c3        1 1SV     -0.186000
      8 C7          0.3390    0.6010    1.9590 c3        1 1SV     -0.067000
      9 C6         -1.1530    0.5700    1.6480 c3        1 1SV     -0.169000
     10 C5         -1.4510    0.4890    0.1970 c3        1 1SV     -0.156000
     11 C10        -1.2920   -1.9420    0.0610 c3        1 1SV     -0.218000
     12 C11         0.9750    1.9330    1.5970 c2        1 1SV     -0.104000
     13 C12         0.4870    3.2080    2.2510 c3        1 1SV     -0.192000
     14 C13         1.9770    1.9800    0.6920 c1        1 1SV     -0.228000
     15 H1         -0.9470   -1.2960   -3.6820 hc        1 1SV      0.126500
     16 H2         -0.9530   -2.3170   -2.4650 hc        1 1SV      0.126500
     17 H3          1.4270   -0.7560   -3.3400 h1        1 1SV      0.139500
     18 H4          1.3520   -2.2470   -3.1930 h1        1 1SV      0.139500
     19 H5         -0.9380    0.2780   -2.4240 hc        1 1SV      0.121500
     20 H6         -2.1360   -0.7230   -2.1240 hc        1 1SV      0.121500
     21 H7          0.9450   -1.4380    1.7940 hc        1 1SV      0.140000
     22 H8          2.0480   -0.5710    1.2480 hc        1 1SV      0.140000
     23 H9          0.4900    0.5770    2.9240 hc        1 1SV      0.135000
     24 H10        -1.5650    1.3810    2.0070 hc        1 1SV      0.112500
     25 H11        -1.5490   -0.2050    2.0920 hc        1 1SV      0.112500
     26 H12        -2.4160    0.3730    0.0820 hc        1 1SV      0.115000
     27 H13        -1.1840    1.3310   -0.2230 hc        1 1SV      0.115000
     28 H14        -1.1750   -1.9460    1.0340 hc        1 1SV      0.104000
     29 H15        -2.2460   -2.0090   -0.1530 hc        1 1SV      0.104000
     30 H16        -0.8150   -2.7050   -0.3290 hc        1 1SV      0.104000
     31 H17        -0.1530    3.6550    1.6570 hc        1 1SV      0.097333
     32 H18         1.2480    3.8020    2.4180 hc        1 1SV      0.097333
     33 H19         0.0480    2.9920    3.1010 hc        1 1SV      0.097333
     34 H20         2.2930    1.1550    0.2690 DU        1 1SV      0.083000
     35 H21         2.3870    2.8360    0.4590 ha        1 1SV      0.143000
     36 H22         2.1400   -2.1160   -1.0890 hn        1 1SV      0.271000
@<TRIPOS>BOND
     1    1    2 1   
     2    1    6 1   
     3    1   15 1   
     4    1   16 1   
     5    2    3 1   
     6    2   17 1   
     7    2   18 1   
     8    3    4 1   
     9    3   36 1   
    10    4    7 1   
    11    5    6 1   
    12    5   10 1   
    13    5   11 1   
    14    6   19 1   
    15    6   20 1   
    16    7    8 1   
    17    7   21 1   
    18    7   22 1   
    19    8    9 1   
    20    8   12 1   
    21    8   23 1   
    22    9   10 1   
    23    9   24 1   
    24    9   25 1   
    25   10   26 1   
    26   10   27 1   
    27   11   28 1   
    28   11   29 1   
    29   11   30 1   
    30   12   13 1   
    31   12   14 1   
    32   13   31 1   
    33   13   32 1   
    34   13   33 1   
    35   14   35 1   
@<TRIPOS>SUBSTRUCTURE
     1 1SV         1 TEMP              0 ****  ****    0 ROOT
