@<TRIPOS>MOLECULE
1SV
   36    37     1     0     0
SMALL
bcc


@<TRIPOS>ATOM
      1 C2         -0.1120   -0.1020   -0.0650 c3        1 1SV     -0.105400
      2 C1          1.3850   -0.3790   -0.0050 c3        1 1SV     -0.016700
      3 N1          1.9610   -0.1950    1.3210 nh        1 1SV     -0.233100
      4 C9          1.3700    0.4290    2.3210 c2        1 1SV      0.411300
      5 C4         -0.0300    1.0100    2.2020 c3        1 1SV     -0.129300
      6 C3         -0.4630    1.1290    0.7370 c3        1 1SV     -0.095400
      7 C8          2.0450    0.5300    3.6600 c3        1 1SV     -0.177700
      8 C7          1.9710    1.9240    4.2710 c3        1 1SV     -0.016500
      9 C6          0.5490    2.4640    4.2100 c3        1 1SV     -0.088400
     10 C5         -0.0440    2.4130    2.8230 c3        1 1SV     -0.076400
     11 C10        -0.9880    0.0850    2.9500 c3        1 1SV     -0.100100
     12 C11         2.9710    2.8860    3.7040 c2        1 1SV     -0.164400
     13 C12         3.4240    2.7030    2.3040 c3        1 1SV     -0.058900
     14 C13         3.4390    3.8870    4.4600 c2        1 1SV     -0.165000
     15 H1         -0.6840   -0.9910    0.3120 hc        1 1SV      0.087200
     16 H2         -0.3960    0.0470   -1.1410 hc        1 1SV      0.087200
     17 H3          1.9350    0.3160   -0.7060 h1        1 1SV      0.099700
     18 H4          1.5930   -1.4430   -0.3220 h1        1 1SV      0.099700
     19 H5          0.0240    2.0290    0.2740 hc        1 1SV      0.081200
     20 H6         -1.5730    1.2980    0.7030 hc        1 1SV      0.081200
     21 H7          3.1210    0.2050    3.6200 hc        1 1SV      0.099700
     22 H8          1.4990   -0.1890    4.3400 hc        1 1SV      0.099700
     23 H9          2.2270    1.7890    5.3680 hc        1 1SV      0.087700
     24 H10         0.5520    3.5310    4.5630 hc        1 1SV      0.072200
     25 H11        -0.0940    1.8800    4.9210 hc        1 1SV      0.072200
     26 H12         0.5160    3.1200    2.1530 hc        1 1SV      0.075200
     27 H13        -1.1110    2.7600    2.8590 hc        1 1SV      0.075200
     28 H14        -0.9980   -0.9320    2.4900 hc        1 1SV      0.064700
     29 H15        -0.7020   -0.0050    4.0250 hc        1 1SV      0.064700
     30 H16        -2.0210    0.5090    2.8960 hc        1 1SV      0.064700
     31 H17         2.5500    2.6240    1.6100 hc        1 1SV      0.039367
     32 H18         4.0400    1.7740    2.2100 hc        1 1SV      0.039367
     33 H19         4.0530    3.5660    1.9690 hc        1 1SV      0.039367
     34 H20         3.1260    4.0380    5.5030 ha        1 1SV      0.132000
     35 H21         4.1670    4.6190    4.0820 ha        1 1SV      0.132000
     36 H22         2.8930   -0.5590    1.4410 hn        1 1SV      0.320700
@<TRIPOS>BOND
     1    1    2 1   
     2    1    6 1   
     3    1   15 1   
     4    1   16 1   
     5    2    3 1   
     6    2   17 1   
     7    2   18 1   
     8    3    4 2   
     9    3   36 1   
    10    4    5 1   
    11    4    7 1   
    12    5    6 1   
    13    5   10 1   
    14    5   11 1   
    15    6   19 1   
    16    6   20 1   
    17    7    8 1   
    18    7   21 1   
    19    7   22 1   
    20    8    9 1   
    21    8   12 1   
    22    8   23 1   
    23    9   10 1   
    24    9   24 1   
    25    9   25 1   
    26   10   26 1   
    27   10   27 1   
    28   11   28 1   
    29   11   29 1   
    30   11   30 1   
    31   12   13 1   
    32   12   14 2   
    33   13   31 1   
    34   13   32 1   
    35   13   33 1   
    36   14   34 1   
    37   14   35 1   
@<TRIPOS>SUBSTRUCTURE
     1 1SV         1 TEMP              0 ****  ****    0 ROOT
