@<TRIPOS>MOLECULE
1SV
   36    37     1     0     0
SMALL
bcc


@<TRIPOS>ATOM
      1 C2         -0.0780   -0.0900   -0.0880 c3        1 1SV     -0.105400
      2 C1          1.4120   -0.3890    0.0080 c3        1 1SV     -0.016700
      3 N1          1.9590   -0.2090    1.3470 nu        1 1SV     -0.233100
      4 C9          1.3540    0.4270    2.3310 c2        1 1SV      0.411300
      5 C4         -0.0340    1.0280    2.1770 c3        1 1SV     -0.129300
      6 C3         -0.4310    1.1490    0.7010 c3        1 1SV     -0.095400
      7 C8          1.9980    0.5220    3.6850 c3        1 1SV     -0.177700
      8 C7          1.9300    1.9200    4.2910 c3        1 1SV     -0.016500
      9 C6          0.5180    2.4800    4.1940 c3        1 1SV     -0.088400
     10 C5         -0.0420    2.4330    2.7930 c3        1 1SV     -0.076400
     11 C10        -1.0230    0.1190    2.9040 c3        1 1SV     -0.100100
     12 C11         2.9570    2.8650    3.7440 c2        1 1SV     -0.164400
     13 C12         3.4410    2.6710    2.3570 c3        1 1SV     -0.058900
     14 C13         3.4210    3.8610    4.5090 c2        1 1SV     -0.165000
     15 H1         -0.3350    0.0590   -1.1710 hc        1 1SV      0.087200
     16 H2         -0.6720   -0.9690    0.2770 hc        1 1SV      0.087200
     17 H3          1.9890    0.2960   -0.6810 h1        1 1SV      0.099700
     18 H4          1.6120   -1.4560   -0.3010 h1        1 1SV      0.099700
     19 H5          0.0800    2.0400    0.2480 hc        1 1SV      0.081200
     20 H6         -1.5370    1.3330    0.6410 hc        1 1SV      0.081200
     21 H7          1.4260   -0.1860    4.3540 hc        1 1SV      0.099700
     22 H8          3.0700    0.1820    3.6720 hc        1 1SV      0.099700
     23 H9          2.1580    1.7840    5.3930 hc        1 1SV      0.087700
     24 H10        -0.1500    1.9070    4.8910 hc        1 1SV      0.072200
     25 H11         0.5280    3.5480    4.5440 hc        1 1SV      0.072200
     26 H12        -1.1050    2.7950    2.8030 hc        1 1SV      0.075200
     27 H13         0.5430    3.1290    2.1350 hc        1 1SV      0.075200
     28 H14        -1.0370   -0.8990    2.4470 hc        1 1SV      0.064700
     29 H15        -0.7640    0.0280    3.9860 hc        1 1SV      0.064700
     30 H16        -2.0490    0.5580    2.8250 hc        1 1SV      0.064700
     31 H17         2.5820    2.6030    1.6420 hc        1 1SV      0.039367
     32 H18         4.0450    1.7320    2.2800 hc        1 1SV      0.039367
     33 H19         4.0900    3.5240    2.0340 hc        1 1SV      0.039367
     34 H20         3.0860    4.0200    5.5430 ha        1 1SV      0.132000
     35 H21         4.1680    4.5810    4.1450 ha        1 1SV      0.132000
     36 H22         2.8820   -0.5860    1.4900 hn        1 1SV      0.320700
@<TRIPOS>BOND
     1    1    2 1   
     2    1    6 1   
     3    1   15 1   
     4    1   16 1   
     5    2    3 1   
     6    2   17 1   
     7    2   18 1   
     8    3    4 2   
     9    3   36 1   
    10    4    5 1   
    11    4    7 1   
    12    5    6 1   
    13    5   10 1   
    14    5   11 1   
    15    6   19 1   
    16    6   20 1   
    17    7    8 1   
    18    7   21 1   
    19    7   22 1   
    20    8    9 1   
    21    8   12 1   
    22    8   23 1   
    23    9   10 1   
    24    9   24 1   
    25    9   25 1   
    26   10   26 1   
    27   10   27 1   
    28   11   28 1   
    29   11   29 1   
    30   11   30 1   
    31   12   13 1   
    32   12   14 2   
    33   13   31 1   
    34   13   32 1   
    35   13   33 1   
    36   14   34 1   
    37   14   35 1   
@<TRIPOS>SUBSTRUCTURE
     1 1SV         1 TEMP              0 ****  ****    0 ROOT
