@<TRIPOS>MOLECULE
1SW
   56    60     1     0     0
SMALL
bcc


@<TRIPOS>ATOM
      1 F1          0.0000    0.0000    0.0000 f         1 1SW     -0.125900
      2 C2          1.3510    0.0000    0.0000 ca        1 1SW      0.075900
      3 C3          2.0430    0.0000    1.1960 ca        1 1SW     -0.108000
      4 C4          3.4250   -0.0020    1.1980 ca        1 1SW     -0.135000
      5 C5          4.1230   -0.0020   -0.0010 ca        1 1SW      0.084100
      6 O6          5.4810   -0.0040    0.0020 os        1 1SW     -0.202200
      7 C7          6.1210    1.1460   -0.3320 ca        1 1SW      0.186100
      8 C8          5.3950    2.3100   -0.5490 ca        1 1SW     -0.234000
      9 C9          6.0300    3.4800   -0.8860 ca        1 1SW      0.045000
     10 C10         7.4340    3.5300   -1.0240 ca        1 1SW      0.047400
     11 N11         8.2120    4.5840   -1.3470 nc        1 1SW     -0.414100
     12 C12         9.4830    4.3980   -1.4150 cd        1 1SW      0.282800
     13 N13        10.4110    5.3770   -1.7320 ns        1 1SW     -0.044400
     14 C14        10.0000    6.6330   -1.9990 c         1 1SW      0.581100
     15 O15         8.8200    6.9060   -1.9610 o         1 1SW     -0.550100
     16 C16        11.0090    7.6970   -2.3440 cx        1 1SW     -0.073700
     17 C17        10.4810    9.1030   -2.6390 cx        1 1SW     -0.273900
     18 C18        11.0110    8.2300   -3.7790 cx        1 1SW     -0.273900
     19 S19         9.8760    2.7240   -1.0460 ss        1 1SW     -0.172100
     20 C20         8.1680    2.3630   -0.8070 ca        1 1SW      0.045900
     21 C21         7.5140    1.1660   -0.4550 ca        1 1SW      0.022000
     22 C22         8.2720   -0.0280   -0.2280 cg        1 1SW      0.233800
     23 N23         8.8900   -0.9650   -0.0540 n1        1 1SW     -0.365800
     24 C24         3.4330   -0.0030   -1.2040 ca        1 1SW     -0.113000
     25 C25         2.0460   -0.0080   -1.2050 ca        1 1SW     -0.062400
     26 N26         1.3460   -0.0090   -2.4190 ns        1 1SW     -0.034100
     27 C27         1.9640    0.3700   -3.5540 c         1 1SW      0.550100
     28 O28         3.0970    0.8120   -3.5120 o         1 1SW     -0.682100
     29 N29         1.3280    0.2620   -4.7370 ns        1 1SW     -0.049100
     30 C30         2.0060    0.5540   -5.9260 ca        1 1SW     -0.081400
     31 C31         1.7440   -0.1800   -7.0760 ca        1 1SW     -0.108000
     32 C32         2.4140    0.1120   -8.2470 ca        1 1SW     -0.093000
     33 C33         3.3470    1.1330   -8.2760 ca        1 1SW     -0.061000
     34 C34         3.6090    1.8650   -7.1340 ca        1 1SW     -0.163300
     35 C35         2.9380    1.5820   -5.9600 ca        1 1SW     -0.075000
     36 C36         4.6260    2.9770   -7.1700 c3        1 1SW      0.640200
     37 F37         4.0100    4.1850   -6.8290 f         1 1SW     -0.207633
     38 F38         5.6500    2.7020   -6.2560 f         1 1SW     -0.207633
     39 F39         5.1640    3.0750   -8.4570 f         1 1SW     -0.207633
     40 H1          1.7860    0.3190    2.1990 ha        1 1SW      0.133000
     41 H2          3.9000   -0.1920    2.1540 ha        1 1SW      0.123000
     42 H3          4.7810    2.4510    0.3330 ha        1 1SW      0.136000
     43 H4          5.2460    4.2250   -0.9480 ha        1 1SW      0.125000
     44 H5         10.7540    5.0900   -2.6280 hn        1 1SW      0.166500
     45 H6         11.8470    7.7140   -1.6580 hc        1 1SW      0.068700
     46 H7          9.5340    9.3650   -2.1820 hc        1 1SW      0.130450
     47 H8         10.8830    9.7050   -3.4450 hc        1 1SW      0.130450
     48 H9         10.1330    7.9350   -4.3420 hc        1 1SW      0.130450
     49 H10        11.4170    9.2120   -3.5680 hc        1 1SW      0.130450
     50 H11         4.2520    0.2740   -1.8560 ha        1 1SW      0.183000
     51 H12         0.3980   -0.3200   -2.3420 hn        1 1SW      0.176500
     52 H13         0.3430    0.1630   -4.5930 hn        1 1SW      0.166500
     53 H14         1.4270   -1.1800   -6.8040 ha        1 1SW      0.114000
     54 H15         2.4200   -0.6310   -9.0360 ha        1 1SW      0.112000
     55 H16         3.6160    1.3570   -9.3010 ha        1 1SW      0.125000
     56 H17         3.1680    2.0090   -4.9910 ha        1 1SW      0.175000
@<TRIPOS>BOND
     1    1    2 1   
     2    2    3 ar  
     3    2   25 ar  
     4    3    4 ar  
     5    3   40 1   
     6    4    5 ar  
     7    4   41 1   
     8    5    6 1   
     9    5   24 ar  
    10    6    7 1   
    11    7    8 ar  
    12    7   21 ar  
    13    8    9 ar  
    14    8   42 1   
    15    9   10 ar  
    16    9   43 1   
    17   10   11 1   
    18   10   20 ar  
    19   11   12 2   
    20   12   13 1   
    21   12   19 1   
    22   13   14 1   
    23   13   44 1   
    24   14   15 2   
    25   14   16 1   
    26   16   17 1   
    27   16   18 1   
    28   16   45 1   
    29   17   18 1   
    30   17   46 1   
    31   17   47 1   
    32   18   48 1   
    33   18   49 1   
    34   19   20 1   
    35   20   21 ar  
    36   21   22 1   
    37   22   23 3   
    38   24   25 ar  
    39   24   50 1   
    40   25   26 1   
    41   26   27 1   
    42   26   51 1   
    43   27   28 2   
    44   27   29 1   
    45   29   30 1   
    46   29   52 1   
    47   30   31 ar  
    48   30   35 ar  
    49   31   32 ar  
    50   31   53 1   
    51   32   33 ar  
    52   32   54 1   
    53   33   34 ar  
    54   33   55 1   
    55   34   35 ar  
    56   34   36 1   
    57   35   56 1   
    58   36   37 1   
    59   36   38 1   
    60   36   39 1   
@<TRIPOS>SUBSTRUCTURE
     1 1SW         1 TEMP              0 ****  ****    0 ROOT
