@<TRIPOS>MOLECULE
1SW
   56    60     1     0     0
SMALL
bcc


@<TRIPOS>ATOM
      1 F1          0.7770   -1.9480   -0.4960 f         1 1SW     -0.146900
      2 C2          1.8060   -1.1180   -0.1820 ca        1 1SW      0.052900
      3 C3          2.0150   -0.7660    1.1610 ca        1 1SW     -0.117000
      4 C4          3.0530    0.0840    1.5130 ca        1 1SW     -0.134000
      5 C5          3.9010    0.5700    0.5050 ca        1 1SW      0.118100
      6 O6          4.9710    1.3300    0.9660 os        1 1SW     -0.238200
      7 C7          5.5080    2.2770    0.1010 ca        1 1SW      0.138100
      8 C8          4.6940    3.0910   -0.7150 ca        1 1SW     -0.165000
      9 C9          5.2510    4.1030   -1.4710 ca        1 1SW     -0.035000
     10 C10         6.6460    4.3210   -1.4170 ca        1 1SW      0.092400
     11 N11         7.3270    5.3120   -2.1250 nc        1 1SW     -0.580100
     12 C12         8.6390    5.2300   -1.8410 cd        1 1SW      0.400800
     13 N13         9.5890    6.0850   -2.3940 n         1 1SW     -0.461400
     14 C14        10.9500    6.0050   -2.1030 c         1 1SW      0.691100
     15 O15        11.3810    5.1460   -1.3140 o         1 1SW     -0.566100
     16 C16        11.8350    6.9760   -2.8130 cx        1 1SW     -0.213700
     17 C17        12.6070    7.9870   -2.0080 cx        1 1SW     -0.111400
     18 C18        11.4860    8.4380   -2.8940 cx        1 1SW     -0.111400
     19 S19         9.0830    3.9620   -0.7150 ss        1 1SW      0.122900
     20 C20         7.4730    3.4900   -0.5890 ca        1 1SW     -0.111100
     21 C21         6.8970    2.4560    0.1680 ca        1 1SW      0.015000
     22 C22         7.7030    1.6250    0.9890 cg        1 1SW      0.240800
     23 N23         8.3540    0.9370    1.6640 n1        1 1SW     -0.350800
     24 C24         3.7280    0.2270   -0.8370 ca        1 1SW     -0.162000
     25 C25         2.6690   -0.6230   -1.2070 ca        1 1SW      0.054600
     26 N26         2.4860   -1.0500   -2.5370 n         1 1SW     -0.456100
     27 C27         2.6670   -0.1740   -3.6340 c         1 1SW      0.771100
     28 O28         3.1870    0.9530   -3.4940 o         1 1SW     -0.604100
     29 N29         2.2340   -0.6450   -4.8930 n         1 1SW     -0.462100
     30 C30         2.5560   -0.0020   -6.1040 ca        1 1SW      0.061600
     31 C31         2.7020   -0.7840   -7.2750 ca        1 1SW     -0.151000
     32 C32         2.9440   -0.1770   -8.5020 ca        1 1SW     -0.110000
     33 C33         3.0590    1.2080   -8.6000 ca        1 1SW     -0.104000
     34 C34         2.9230    1.9820   -7.4470 ca        1 1SW     -0.144300
     35 C35         2.6710    1.4010   -6.2050 ca        1 1SW     -0.092000
     36 C36         3.0640    3.4980   -7.5440 c3        1 1SW      0.688200
     37 F37         2.3460    4.2050   -6.6110 f         1 1SW     -0.235633
     38 F38         4.3520    3.9530   -7.3940 f         1 1SW     -0.235633
     39 F39         2.6630    4.0290   -8.7470 f         1 1SW     -0.235633
     40 H1          1.3380   -1.1690    1.9300 ha        1 1SW      0.157000
     41 H2          3.2260    0.3690    2.5610 ha        1 1SW      0.163000
     42 H3          3.6100    2.9010   -0.7480 ha        1 1SW      0.161000
     43 H4          4.6210    4.7380   -2.1140 ha        1 1SW      0.163000
     44 H5          9.2740    6.7780   -3.0400 hn        1 1SW      0.344500
     45 H6         12.3300    6.4890   -3.6790 hc        1 1SW      0.116700
     46 H7         13.6510    8.2010   -2.2990 hc        1 1SW      0.084200
     47 H8         12.4730    8.0100   -0.9110 hc        1 1SW      0.084200
     48 H9         10.5510    8.8030   -2.4310 hc        1 1SW      0.084200
     49 H10        11.7190    8.9820   -3.8280 hc        1 1SW      0.084200
     50 H11         4.4110    0.6330   -1.6030 ha        1 1SW      0.186000
     51 H12         1.8320   -1.7980   -2.6390 hn        1 1SW      0.320500
     52 H13         2.0310   -1.6170   -4.9830 hn        1 1SW      0.315500
     53 H14         2.6200   -1.8820   -7.2280 ha        1 1SW      0.137000
     54 H15         3.0510   -0.7990   -9.4040 ha        1 1SW      0.144000
     55 H16         3.2510    1.6890   -9.5710 ha        1 1SW      0.154000
     56 H17         2.5710    2.0440   -5.3120 ha        1 1SW      0.186000
@<TRIPOS>BOND
     1    1    2 1   
     2    2    3 ar  
     3    2   25 ar  
     4    3    4 ar  
     5    3   40 1   
     6    4    5 ar  
     7    4   41 1   
     8    5    6 1   
     9    5   24 ar  
    10    6    7 1   
    11    7    8 ar  
    12    7   21 ar  
    13    8    9 ar  
    14    8   42 1   
    15    9   10 ar  
    16    9   43 1   
    17   10   11 1   
    18   10   20 ar  
    19   11   12 2   
    20   12   13 1   
    21   12   19 1   
    22   13   14 1   
    23   13   44 1   
    24   14   15 2   
    25   14   16 1   
    26   16   17 1   
    27   16   18 1   
    28   16   45 1   
    29   17   18 1   
    30   17   46 1   
    31   17   47 1   
    32   18   48 1   
    33   18   49 1   
    34   19   20 1   
    35   20   21 ar  
    36   21   22 1   
    37   22   23 3   
    38   24   25 ar  
    39   24   50 1   
    40   25   26 1   
    41   26   27 1   
    42   26   51 1   
    43   27   28 2   
    44   27   29 1   
    45   29   30 1   
    46   29   52 1   
    47   30   31 ar  
    48   30   35 ar  
    49   31   32 ar  
    50   31   53 1   
    51   32   33 ar  
    52   32   54 1   
    53   33   34 ar  
    54   33   55 1   
    55   34   35 ar  
    56   34   36 1   
    57   35   56 1   
    58   36   37 1   
    59   36   38 1   
    60   36   39 1   
@<TRIPOS>SUBSTRUCTURE
     1 1SW         1 TEMP              0 ****  ****    0 ROOT
