@<TRIPOS>MOLECULE
1SW
   56    60     1     0     0
SMALL
bcc


@<TRIPOS>ATOM
      1 F1         -5.7790    3.6560   -0.3550 f         1 1SW     -0.146900
      2 C2         -4.4230    3.6640   -0.4450 ca        1 1SW      0.052900
      3 C3         -3.7790    4.7990   -0.9650 ca        1 1SW     -0.117000
      4 C4         -2.3970    4.8350   -1.0750 ca        1 1SW     -0.134000
      5 C5         -1.6540    3.7270   -0.6410 ca        1 1SW      0.118100
      6 O6         -0.2740    3.8970   -0.6970 os        1 1SW     -0.238200
      7 C7          0.5110    2.7570   -0.8310 ca        1 1SW      0.138100
      8 C8          0.1530    1.7000   -1.6950 ca        1 1SW     -0.165000
      9 C9          1.0130    0.6390   -1.8970 ca        1 1SW     -0.035000
     10 C10         2.2600    0.6240   -1.2340 ca        1 1SW      0.092400
     11 N11         3.2180   -0.3840   -1.3590 nc        1 1SW     -0.580100
     12 C12         4.2780   -0.0800   -0.5890 cd        1 1SW      0.400800
     13 N13         5.4050   -0.8920   -0.4950 n         1 1SW     -0.461400
     14 C14         6.5050   -0.5820    0.3030 c         1 1SW      0.691100
     15 O15         6.5260    0.4630    0.9770 o         1 1SW     -0.566100
     16 C16         7.6140   -1.5830    0.3160 cx        1 1SW     -0.213700
     17 C17         8.9690   -1.1810   -0.2010 cx        1 1SW     -0.111400
     18 C18         8.1470   -2.1780   -0.9610 cx        1 1SW     -0.111400
     19 S19         4.1480    1.4250    0.3010 ss        1 1SW      0.122900
     20 C20         2.6210    1.6970   -0.3530 ca        1 1SW     -0.111100
     21 C21         1.7340    2.7670   -0.1470 ca        1 1SW      0.015000
     22 C22         2.0780    3.8340    0.7230 cg        1 1SW      0.240800
     23 N23         2.3480    4.7130    1.4350 n1        1 1SW     -0.350800
     24 C24        -2.2640    2.5900   -0.1070 ca        1 1SW     -0.162000
     25 C25        -3.6670    2.5360   -0.0040 ca        1 1SW      0.054600
     26 N26        -4.3280    1.4400    0.5840 n         1 1SW     -0.456100
     27 C27        -3.9180    0.1060    0.3490 c         1 1SW      0.771100
     28 O28        -2.8380   -0.1560   -0.2220 o         1 1SW     -0.604100
     29 N29        -4.7900   -0.9090    0.7990 n         1 1SW     -0.462100
     30 C30        -4.4200   -2.2680    0.8550 ca        1 1SW      0.061600
     31 C31        -4.9870   -3.0870    1.8610 ca        1 1SW     -0.151000
     32 C32        -4.7050   -4.4490    1.9000 ca        1 1SW     -0.110000
     33 C33        -3.8530   -5.0260    0.9600 ca        1 1SW     -0.104000
     34 C34        -3.2880   -4.2200   -0.0280 ca        1 1SW     -0.144300
     35 C35        -3.5600   -2.8540   -0.0970 ca        1 1SW     -0.092000
     36 C36        -2.3420   -4.8430   -1.0500 c3        1 1SW      0.688200
     37 F37        -2.3260   -4.2210   -2.2740 f         1 1SW     -0.235633
     38 F38        -1.0240   -4.8550   -0.6600 f         1 1SW     -0.235633
     39 F39        -2.6140   -6.1570   -1.3470 f         1 1SW     -0.235633
     40 H1         -4.3880    5.6560   -1.2900 ha        1 1SW      0.157000
     41 H2         -1.8810    5.7170   -1.4820 ha        1 1SW      0.163000
     42 H3         -0.8270    1.7280   -2.1980 ha        1 1SW      0.161000
     43 H4          0.7360   -0.1910   -2.5660 ha        1 1SW      0.163000
     44 H5          5.4110   -1.7430   -1.0170 hn        1 1SW      0.344500
     45 H6          7.5530   -2.2180    1.2240 hc        1 1SW      0.116700
     46 H7          9.1030   -0.1640   -0.6130 hc        1 1SW      0.084200
     47 H8          9.8620   -1.5220    0.3530 hc        1 1SW      0.084200
     48 H9          8.4460   -3.2410   -0.9580 hc        1 1SW      0.084200
     49 H10         7.7030   -1.8800   -1.9280 hc        1 1SW      0.084200
     50 H11        -1.6470    1.7340    0.2180 ha        1 1SW      0.186000
     51 H12        -5.2950    1.6050    0.7780 hn        1 1SW      0.320500
     52 H13        -5.5180   -0.6530    1.4310 hn        1 1SW      0.315500
     53 H14        -5.6600   -2.6590    2.6190 ha        1 1SW      0.137000
     54 H15        -5.1560   -5.0740    2.6860 ha        1 1SW      0.144000
     55 H16        -3.6300   -6.1040    0.9910 ha        1 1SW      0.154000
     56 H17        -3.0930   -2.2450   -0.8910 ha        1 1SW      0.186000
@<TRIPOS>BOND
     1    1    2 1   
     2    2    3 ar  
     3    2   25 ar  
     4    3    4 ar  
     5    3   40 1   
     6    4    5 ar  
     7    4   41 1   
     8    5    6 1   
     9    5   24 ar  
    10    6    7 1   
    11    7    8 ar  
    12    7   21 ar  
    13    8    9 ar  
    14    8   42 1   
    15    9   10 ar  
    16    9   43 1   
    17   10   11 1   
    18   10   20 ar  
    19   11   12 2   
    20   12   13 1   
    21   12   19 1   
    22   13   14 1   
    23   13   44 1   
    24   14   15 2   
    25   14   16 1   
    26   16   17 1   
    27   16   18 1   
    28   16   45 1   
    29   17   18 1   
    30   17   46 1   
    31   17   47 1   
    32   18   48 1   
    33   18   49 1   
    34   19   20 1   
    35   20   21 ar  
    36   21   22 1   
    37   22   23 3   
    38   24   25 ar  
    39   24   50 1   
    40   25   26 1   
    41   26   27 1   
    42   26   51 1   
    43   27   28 2   
    44   27   29 1   
    45   29   30 1   
    46   29   52 1   
    47   30   31 ar  
    48   30   35 ar  
    49   31   32 ar  
    50   31   53 1   
    51   32   33 ar  
    52   32   54 1   
    53   33   34 ar  
    54   33   55 1   
    55   34   35 ar  
    56   34   36 1   
    57   35   56 1   
    58   36   37 1   
    59   36   38 1   
    60   36   39 1   
@<TRIPOS>SUBSTRUCTURE
     1 1SW         1 TEMP              0 ****  ****    0 ROOT
