@<TRIPOS>MOLECULE
1SW
   59    63     1     0     0
SMALL
bcc


@<TRIPOS>ATOM
      1 F1          2.3210   -0.7400   -2.7270 f         1 1SW     -0.146900
      2 C2          3.1600    0.3240   -2.7650 ca        1 1SW      0.098900
      3 C3          3.9320    0.6740   -1.6460 ca        1 1SW     -0.066000
      4 C4          4.7780    1.7780   -1.6950 ca        1 1SW     -0.099000
      5 C5          4.8590    2.5460   -2.8650 ca        1 1SW      0.165100
      6 O6          5.6400    3.6680   -3.0360 os        1 1SW     -0.217200
      7 C7          6.5340    4.0270   -2.0180 ca        1 1SW      0.115100
      8 C8          6.0520    4.7720   -0.9180 ca        1 1SW     -0.139000
      9 C9          6.9360    5.3390   -0.0220 ca        1 1SW     -0.003000
     10 C10         8.3280    5.1630   -0.2260 ca        1 1SW      0.093400
     11 N11         9.3250    5.7100    0.5750 nc        1 1SW     -0.451100
     12 C12        10.5230    5.3650    0.0750 cd        1 1SW      0.338100
     13 N13        11.7590    5.8270    0.6870 n4        1 1SW     -0.613800
     14 C14        12.0500    7.3350    0.4330 c         1 1SW      0.606100
     15 O15        11.3590    7.8630   -0.4150 o         1 1SW     -0.388100
     16 C16        13.1330    7.8650    1.2690 cx        1 1SW     -0.300700
     17 C17        12.9870    9.2940    1.7840 cx        1 1SW     -0.053400
     18 C18        13.9630    9.0110    0.6990 cx        1 1SW     -0.053400
     19 S19        10.4910    4.3850   -1.3510 ss        1 1SW      0.229900
     20 C20         8.8140    4.3920   -1.3410 ca        1 1SW     -0.087100
     21 C21         7.8970    3.8080   -2.2370 ca        1 1SW      0.059000
     22 C22         8.3460    3.0380   -3.3420 cg        1 1SW      0.185800
     23 N23         8.6910    2.4020   -4.2530 n1        1 1SW     -0.266800
     24 C24         4.1000    2.2170   -4.0080 ca        1 1SW     -0.092000
     25 C25         3.2600    1.0960   -3.9570 ca        1 1SW     -0.093400
     26 N26         2.5230    0.6900   -5.1630 n4        1 1SW     -0.491200
     27 C27         1.0620    1.0230   -5.0560 c         1 1SW      0.483100
     28 O28         0.6520    2.1380   -5.3240 o         1 1SW     -0.282100
     29 N29         0.1290   -0.0700   -4.6300 n4        1 1SW     -0.492200
     30 C30         0.1460   -1.1990   -5.5680 ca        1 1SW     -0.146400
     31 C31         0.8020   -2.3960   -5.2030 ca        1 1SW     -0.100000
     32 C32         0.7280   -3.4900   -6.0560 ca        1 1SW     -0.089000
     33 C33         0.0140   -3.4130   -7.2610 ca        1 1SW      0.016000
     34 C34        -0.6250   -2.2210   -7.6090 ca        1 1SW     -0.144300
     35 C35        -0.5800   -1.1070   -6.7700 ca        1 1SW     -0.043000
     36 C36        -1.4210   -2.1160   -8.9270 c3        1 1SW      0.696200
     37 F37        -2.7660   -2.2870   -8.7490 f         1 1SW     -0.198633
     38 F38        -1.2810   -0.8880   -9.5240 f         1 1SW     -0.198633
     39 F39        -1.0390   -3.0320   -9.8660 f         1 1SW     -0.198633
     40 H1          3.8570    0.0600   -0.7270 ha        1 1SW      0.212000
     41 H2          5.3830    2.0480   -0.8090 ha        1 1SW      0.200000
     42 H3          4.9660    4.9270   -0.8030 ha        1 1SW      0.177000
     43 H4          6.5760    5.9370    0.8350 ha        1 1SW      0.198000
     44 H5         11.7100    5.6880    1.7090 hn        1 1SW      0.476300
     45 H6         13.6490    7.1330    1.9230 hc        1 1SW      0.124700
     46 H7         12.0610    9.8520    1.5460 hc        1 1SW      0.117450
     47 H8         13.3450    9.4960    2.8140 hc        1 1SW      0.117450
     48 H9         13.7450    9.3640   -0.3290 hc        1 1SW      0.117450
     49 H10        15.0490    9.0020    0.9170 hc        1 1SW      0.117450
     50 H11         4.2020    2.8520   -4.9080 ha        1 1SW      0.202000
     51 H12         2.9020    1.2120   -5.9800 hn        1 1SW      0.508800
     52 H13         0.3800   -0.4020   -3.6780 hn        1 1SW      0.515300
     53 H14         1.3420   -2.4910   -4.2430 ha        1 1SW      0.169000
     54 H15         1.2230   -4.4400   -5.7740 ha        1 1SW      0.206000
     55 H16        -0.0460   -4.2940   -7.9340 ha        1 1SW      0.219000
     56 H17        -1.1240   -0.1910   -7.0690 ha        1 1SW      0.190000
     57 H132       12.5420    5.2730    0.3210 hn        1 1SW      0.476300
     58 H262        2.6620   -0.3250   -5.3180 hn        1 1SW      0.508800
     59 H292       -0.8310    0.3380   -4.6030 hn        1 1SW      0.515300
@<TRIPOS>BOND
     1    1    2 1   
     2    2    3 ar  
     3    2   25 ar  
     4    3    4 ar  
     5    3   40 1   
     6    4    5 ar  
     7    4   41 1   
     8    5    6 1   
     9    5   24 ar  
    10    6    7 1   
    11    7    8 ar  
    12    7   21 ar  
    13    8    9 ar  
    14    8   42 1   
    15    9   10 ar  
    16    9   43 1   
    17   10   11 1   
    18   10   20 ar  
    19   11   12 2   
    20   12   13 1   
    21   12   19 1   
    22   13   14 1   
    23   13   44 1   
    24   13   57 1   
    25   14   15 2   
    26   14   16 1   
    27   16   17 1   
    28   16   18 1   
    29   16   45 1   
    30   17   18 1   
    31   17   46 1   
    32   17   47 1   
    33   18   48 1   
    34   18   49 1   
    35   19   20 1   
    36   20   21 ar  
    37   21   22 1   
    38   22   23 3   
    39   24   25 ar  
    40   24   50 1   
    41   25   26 1   
    42   26   27 1   
    43   26   51 1   
    44   26   58 1   
    45   27   28 2   
    46   27   29 1   
    47   29   30 1   
    48   29   52 1   
    49   29   59 1   
    50   30   31 ar  
    51   30   35 ar  
    52   31   32 ar  
    53   31   53 1   
    54   32   33 ar  
    55   32   54 1   
    56   33   34 ar  
    57   33   55 1   
    58   34   35 ar  
    59   34   36 1   
    60   35   56 1   
    61   36   37 1   
    62   36   38 1   
    63   36   39 1   
@<TRIPOS>SUBSTRUCTURE
     1 1SW         1 TEMP              0 ****  ****    0 ROOT
