@<TRIPOS>MOLECULE
1SX
   39    35     1     0     0
SMALL
bcc


@<TRIPOS>ATOM
      1 C2          1.0390   -0.4770   -7.0790 c3        1 1SX     -0.311000
      2 C12         1.5900    0.6640   -3.4050 c1        1 1SX      0.063000
      3 C15         1.5480    0.4450   -0.9360 c1        1 1SX      0.358000
      4 C17         0.7670    0.2090    0.3610 c1        1 1SX     -0.081000
      5 C18         1.4400    0.1510    1.5740 c1        1 1SX     -0.104500
      6 C20         0.7280   -0.0220    2.7550 c1        1 1SX     -0.104500
      7 C22        -0.6540   -0.1360    2.7220 c1        1 1SX     -0.081000
      8 C23        -1.3260   -0.0780    1.5090 c1        1 1SX     -0.118000
      9 C25        -0.6150    0.0940    0.3280 c1        1 1SX     -0.118000
     10 C27        -1.4390   -0.2740    4.0240 c2        1 1SX     -0.023000
     11 C28        -0.4770   -0.4990    5.1740 c3        1 1SX     -0.205000
     12 S1          2.3500    0.3520   -6.9840 ss        1 1SX      0.329000
     13 C5          0.3450   -0.3690   -5.7360 c3        1 1SX     -0.013000
     14 N8          1.3830    0.3700   -4.6930 n3        1 1SX     -0.180000
     15 C9          2.4490    0.9400   -5.4500 c2        1 1SX     -0.272000
     16 N10         3.2680    1.5600   -4.6010 n2        1 1SX     -0.036000
     17 N11         2.7570    1.4040   -3.3170 n2        1 1SX     -0.110000
     18 N13         0.8550    0.5050   -2.1860 n2        1 1SX     -0.291000
     19 O16         2.7600    0.5290   -0.9090 o         1 1SX     -0.353000
     20 C32        -2.2320    0.9890    4.2710 c3        1 1SX     -0.205000
     21 C36        -2.3830   -1.4490    3.9210 c3        1 1SX     -0.205000
     22 H1          1.2720   -1.4130   -7.2360 h1        1 1SX      0.126000
     23 H2          0.4630   -0.0750   -7.7630 h1        1 1SX      0.126000
     24 H3          2.4130    0.2320    1.5980 ha        1 1SX      0.150000
     25 H4          1.2010   -0.0620    3.6080 ha        1 1SX      0.150000
     26 H5         -2.2980   -0.1590    1.4860 ha        1 1SX      0.140000
     27 H6         -1.0880    0.1350   -0.5250 ha        1 1SX      0.140000
     28 H7         -0.9790   -0.5550    6.0140 hc        1 1SX      0.079111
     29 H8          0.1540    0.2460    5.2210 hc        1 1SX      0.079111
     30 H9          0.0140   -1.3340    5.0300 hc        1 1SX      0.079111
     31 H10         0.1630   -1.2730   -5.4060 h1        1 1SX      0.130500
     32 H11        -0.4450    0.1950   -5.8390 h1        1 1SX      0.130500
     33 H12        -0.0560    0.4780   -2.2040 hn        1 1SX      0.259000
     34 H13        -2.9500    1.0560    3.6130 hc        1 1SX      0.079111
     35 H14        -1.6420    1.7660    4.1910 hc        1 1SX      0.079111
     36 H15        -2.6170    0.9630    5.1710 hc        1 1SX      0.079111
     37 H16        -2.7670   -1.6370    4.8020 hc        1 1SX      0.079111
     38 H17        -3.1000   -1.2360    3.2920 hc        1 1SX      0.079111
     39 H18        -1.8930   -2.2330    3.6050 hc        1 1SX      0.079111
@<TRIPOS>BOND
     1    1   12 1   
     2    1   13 1   
     3    1   22 1   
     4    1   23 1   
     5    2   14 1   
     6    2   17 1   
     7    3   18 1   
     8    3   19 1   
     9    4    9 1   
    10    5    6 1   
    11    5   24 1   
    12    6   25 1   
    13    7    8 1   
    14    8   26 1   
    15    9   27 1   
    16   10   11 1   
    17   10   20 1   
    18   10   21 1   
    19   11   28 1   
    20   11   29 1   
    21   11   30 1   
    22   12   15 1   
    23   13   14 1   
    24   13   31 1   
    25   13   32 1   
    26   14   15 1   
    27   15   16 1   
    28   16   17 1   
    29   18   33 1   
    30   20   34 1   
    31   20   35 1   
    32   20   36 1   
    33   21   37 1   
    34   21   38 1   
    35   21   39 1   
@<TRIPOS>SUBSTRUCTURE
     1 1SX         1 TEMP              0 ****  ****    0 ROOT
