@<TRIPOS>MOLECULE
1SX
   39    41     1     0     0
SMALL
bcc


@<TRIPOS>ATOM
      1 C2          5.0020   -1.6490   -0.3140 c3        1 1SX     -0.050300
      2 C12         2.2350    0.8450    0.4790 cc        1 1SX      0.494400
      3 C15         0.2050   -0.2870   -0.3470 c         1 1SX      0.686700
      4 C17        -1.2780   -0.3200   -0.2310 ca        1 1SX     -0.155600
      5 C18        -2.0300    0.8390   -0.0120 ca        1 1SX     -0.086000
      6 C20        -3.4170    0.7600    0.0670 ca        1 1SX     -0.136500
      7 C22        -4.0820   -0.4690   -0.0680 ca        1 1SX     -0.032300
      8 C23        -3.3180   -1.6200   -0.2960 ca        1 1SX     -0.136500
      9 C25        -1.9290   -1.5480   -0.3820 ca        1 1SX     -0.086000
     10 C27        -5.5840   -0.5050    0.0310 c3        1 1SX     -0.015700
     11 C28        -6.1440   -1.9130   -0.1320 c3        1 1SX     -0.087100
     12 S1          5.8870   -0.1020   -0.0230 ss        1 1SX     -0.180400
     13 C5          3.4900   -1.4280   -0.1300 c3        1 1SX      0.046300
     14 N8          3.2930   -0.0520    0.2440 na        1 1SX     -0.336700
     15 C9          4.4640    0.7500    0.2960 cc        1 1SX      0.406800
     16 N10         4.1070    2.0340    0.5830 nd        1 1SX     -0.299000
     17 N11         2.8000    2.1030    0.6900 nd        1 1SX     -0.374000
     18 N13         0.8770    0.5160    0.5750 n         1 1SX     -0.525400
     19 O16         0.8230   -0.9820   -1.1750 o         1 1SX     -0.592100
     20 C32        -6.0130    0.0240    1.3970 c3        1 1SX     -0.087100
     21 C36        -6.1830    0.3770   -1.0620 c3        1 1SX     -0.087100
     22 H1          5.2210   -1.9940   -1.3510 h1        1 1SX      0.086700
     23 H2          5.3770   -2.4130    0.4050 h1        1 1SX      0.086700
     24 H3         -1.5400    1.8210    0.0770 ha        1 1SX      0.145000
     25 H4         -3.9980    1.6810    0.2350 ha        1 1SX      0.143000
     26 H5         -3.8010   -2.6020   -0.4160 ha        1 1SX      0.143000
     27 H6         -1.3370   -2.4560   -0.5790 ha        1 1SX      0.145000
     28 H7         -5.8800   -2.3280   -1.1340 hc        1 1SX      0.039700
     29 H8         -5.7480   -2.5890    0.6620 hc        1 1SX      0.039700
     30 H9         -7.2580   -1.8850   -0.0460 hc        1 1SX      0.039700
     31 H10         2.9320   -1.6510   -1.0840 h1        1 1SX      0.091200
     32 H11         3.0870   -2.0940    0.6830 h1        1 1SX      0.091200
     33 H12         0.3410    1.1330    1.1480 hn        1 1SX      0.344500
     34 H13        -7.1260   -0.0020    1.4810 hc        1 1SX      0.039700
     35 H14        -5.5790   -0.6060    2.2100 hc        1 1SX      0.039700
     36 H15        -5.6710    1.0770    1.5390 hc        1 1SX      0.039700
     37 H16        -5.8720    0.0100   -2.0690 hc        1 1SX      0.039700
     38 H17        -7.2980    0.3520   -1.0010 hc        1 1SX      0.039700
     39 H18        -5.8450    1.4340   -0.9460 hc        1 1SX      0.039700
@<TRIPOS>BOND
     1    1   12 1   
     2    1   13 1   
     3    1   22 1   
     4    1   23 1   
     5    2   14 1   
     6    2   17 2   
     7    2   18 1   
     8    3    4 1   
     9    3   18 1   
    10    3   19 2   
    11    4    5 ar  
    12    4    9 ar  
    13    5    6 ar  
    14    5   24 1   
    15    6    7 ar  
    16    6   25 1   
    17    7    8 ar  
    18    7   10 1   
    19    8    9 ar  
    20    8   26 1   
    21    9   27 1   
    22   10   11 1   
    23   10   20 1   
    24   10   21 1   
    25   11   28 1   
    26   11   29 1   
    27   11   30 1   
    28   12   15 1   
    29   13   14 1   
    30   13   31 1   
    31   13   32 1   
    32   14   15 1   
    33   15   16 2   
    34   16   17 1   
    35   18   33 1   
    36   20   34 1   
    37   20   35 1   
    38   20   36 1   
    39   21   37 1   
    40   21   38 1   
    41   21   39 1   
@<TRIPOS>SUBSTRUCTURE
     1 1SX         1 TEMP              0 ****  ****    0 ROOT
