@<TRIPOS>MOLECULE
1SX
   40    42     1     0     0
SMALL
bcc


@<TRIPOS>ATOM
      1 C2          2.2800   -0.2650    1.4660 c3        1 1SX     -0.078300
      2 C12        -1.1230   -0.5660    3.1450 cc        1 1SX      0.345400
      3 C15        -1.1200    1.1280    4.9340 c         1 1SX      0.601700
      4 C17        -1.6440    0.7600    6.2370 ca        1 1SX     -0.225600
      5 C18        -1.3880    1.6510    7.2990 ca        1 1SX     -0.055000
      6 C20        -1.8490    1.3580    8.5750 ca        1 1SX     -0.137000
      7 C22        -2.5620    0.1740    8.8350 ca        1 1SX      0.037700
      8 C23        -2.7940   -0.7140    7.7720 ca        1 1SX     -0.137000
      9 C25        -2.3450   -0.4310    6.4880 ca        1 1SX     -0.055000
     10 C27        -3.0420   -0.1050   10.2350 c3        1 1SX     -0.029700
     11 C28        -3.7960   -1.4240   10.3400 c3        1 1SX     -0.092767
     12 S1          1.8920   -2.0310    1.3800 ss        1 1SX     -0.037400
     13 C5          1.1240    0.4940    2.1390 c3        1 1SX      0.040300
     14 N8          0.1320   -0.4900    2.5080 na        1 1SX     -0.327700
     15 C9          0.4260   -1.8260    2.1610 cc        1 1SX      0.465800
     16 N10        -0.6180   -2.6340    2.5800 nd        1 1SX     -0.282000
     17 N11        -1.5200   -1.9020    3.1550 nd        1 1SX     -0.251000
     18 N13        -1.8530    0.5480    3.7120 n4        1 1SX     -0.616500
     19 O16        -0.1980    1.8750    4.6350 o         1 1SX     -0.454100
     20 C32        -1.8380   -0.1630   11.1740 c3        1 1SX     -0.092767
     21 C36        -3.9750    1.0200   10.6770 c3        1 1SX     -0.092767
     22 H1          3.2250   -0.1360    2.0440 h1        1 1SX      0.115200
     23 H2          2.4460    0.1120    0.4280 h1        1 1SX      0.115200
     24 H3         -0.8210    2.5780    7.1120 ha        1 1SX      0.156500
     25 H4         -1.6460    2.0660    9.3960 ha        1 1SX      0.170000
     26 H5         -3.3350   -1.6610    7.9420 ha        1 1SX      0.170000
     27 H6         -2.5210   -1.1770    5.6970 ha        1 1SX      0.156500
     28 H7         -4.1330   -1.5760   11.3950 hc        1 1SX      0.048700
     29 H8         -4.7000   -1.4180    9.6840 hc        1 1SX      0.048700
     30 H9         -3.1390   -2.2810   10.0580 hc        1 1SX      0.048700
     31 H10         1.4770    1.0400    3.0610 h1        1 1SX      0.097700
     32 H11         0.6690    1.2400    1.4270 h1        1 1SX      0.097700
     33 H12        -2.7890    0.2150    3.9880 hn        1 1SX      0.476300
     34 H13        -1.1390   -0.9760   10.8610 hc        1 1SX      0.048700
     35 H14        -1.2870    0.8070   11.1750 hc        1 1SX      0.048700
     36 H15        -2.1860   -0.3730   12.2140 hc        1 1SX      0.048700
     37 H16        -4.3340    0.8210   11.7160 hc        1 1SX      0.048700
     38 H17        -4.8600    1.0810   10.0000 hc        1 1SX      0.048700
     39 H18        -3.4460    2.0030   10.6700 hc        1 1SX      0.048700
     40 H132       -1.9530    1.2790    2.9940 hn        1 1SX      0.476300
@<TRIPOS>BOND
     1    1   12 1   
     2    1   13 1   
     3    1   22 1   
     4    1   23 1   
     5    2   14 1   
     6    2   17 2   
     7    2   18 1   
     8    3    4 1   
     9    3   18 1   
    10    3   19 2   
    11    4    5 ar  
    12    4    9 ar  
    13    5    6 ar  
    14    5   24 1   
    15    6    7 ar  
    16    6   25 1   
    17    7    8 ar  
    18    7   10 1   
    19    8    9 ar  
    20    8   26 1   
    21    9   27 1   
    22   10   11 1   
    23   10   20 1   
    24   10   21 1   
    25   11   28 1   
    26   11   29 1   
    27   11   30 1   
    28   12   15 1   
    29   13   14 1   
    30   13   31 1   
    31   13   32 1   
    32   14   15 1   
    33   15   16 2   
    34   16   17 1   
    35   18   33 1   
    36   18   40 1   
    37   20   34 1   
    38   20   35 1   
    39   20   36 1   
    40   21   37 1   
    41   21   38 1   
    42   21   39 1   
@<TRIPOS>SUBSTRUCTURE
     1 1SX         1 TEMP              0 ****  ****    0 ROOT
