@<TRIPOS>MOLECULE
1SX
   39    41     1     0     0
SMALL
bcc


@<TRIPOS>ATOM
      1 C2          0.5500   -0.3810    0.3490 c3        1 1SX     -0.050300
      2 C12         1.3150    0.5870    3.9530 cc        1 1SX      0.494400
      3 C15        -0.6060   -0.3290    5.1990 c         1 1SX      0.686700
      4 C17        -1.3680   -0.2210    6.4730 ca        1 1SX     -0.155600
      5 C18        -0.7410    0.0800    7.6870 ca        1 1SX     -0.086000
      6 C20        -1.4920    0.1480    8.8560 ca        1 1SX     -0.136500
      7 C22        -2.8780   -0.0800    8.8420 ca        1 1SX     -0.032300
      8 C23        -3.4910   -0.3900    7.6220 ca        1 1SX     -0.136500
      9 C25        -2.7440   -0.4650    6.4480 ca        1 1SX     -0.086000
     10 C27        -3.6500    0.0110   10.1320 c3        1 1SX     -0.015700
     11 C28        -5.1370   -0.2580    9.9400 c3        1 1SX     -0.087100
     12 S1          2.3090    0.0280    0.3210 ss        1 1SX     -0.180400
     13 C5         -0.0080   -0.1860    1.7700 c3        1 1SX      0.046300
     14 N8          1.0680    0.2890    2.6000 na        1 1SX     -0.336700
     15 C9          2.3340    0.4050    1.9680 cc        1 1SX      0.406800
     16 N10         3.2570    0.7860    2.8960 nd        1 1SX     -0.299000
     17 N11         2.6710    0.8930    4.0660 nd        1 1SX     -0.374000
     18 N13         0.3580    0.6530    4.9740 ns        1 1SX     -0.525400
     19 O16        -0.8550   -1.2040    4.3490 o         1 1SX     -0.592100
     20 C32        -3.1020   -1.0170   11.1200 c3        1 1SX     -0.087100
     21 C36        -3.4890    1.4110   10.7190 c3        1 1SX     -0.087100
     22 H1          0.0210    0.2800   -0.3750 h1        1 1SX      0.086700
     23 H2          0.4270   -1.4390    0.0240 h1        1 1SX      0.086700
     24 H3          0.3470    0.2440    7.7360 ha        1 1SX      0.145000
     25 H4         -0.9860    0.3820    9.8060 ha        1 1SX      0.143000
     26 H5         -4.5730   -0.5840    7.5680 ha        1 1SX      0.143000
     27 H6         -3.2310   -0.7270    5.4950 ha        1 1SX      0.145000
     28 H7         -5.6630   -0.1740   10.9220 hc        1 1SX      0.039700
     29 H8         -5.3030   -1.2870    9.5400 hc        1 1SX      0.039700
     30 H9         -5.5850    0.4850    9.2380 hc        1 1SX      0.039700
     31 H10        -0.8390    0.5740    1.7700 h1        1 1SX      0.091200
     32 H11        -0.4110   -1.1560    2.1800 h1        1 1SX      0.091200
     33 H12         0.5950    1.2680    5.7240 hn        1 1SX      0.344500
     34 H13        -2.0250   -0.8220   11.3370 hc        1 1SX      0.039700
     35 H14        -3.2030   -2.0470   10.7030 hc        1 1SX      0.039700
     36 H15        -3.6730   -0.9610   12.0780 hc        1 1SX      0.039700
     37 H16        -3.8790    2.1760   10.0070 hc        1 1SX      0.039700
     38 H17        -4.0610    1.4880   11.6750 hc        1 1SX      0.039700
     39 H18        -2.4160    1.6310   10.9300 hc        1 1SX      0.039700
@<TRIPOS>BOND
     1    1   12 1   
     2    1   13 1   
     3    1   22 1   
     4    1   23 1   
     5    2   14 1   
     6    2   17 2   
     7    2   18 1   
     8    3    4 1   
     9    3   18 1   
    10    3   19 2   
    11    4    5 ar  
    12    4    9 ar  
    13    5    6 ar  
    14    5   24 1   
    15    6    7 ar  
    16    6   25 1   
    17    7    8 ar  
    18    7   10 1   
    19    8    9 ar  
    20    8   26 1   
    21    9   27 1   
    22   10   11 1   
    23   10   20 1   
    24   10   21 1   
    25   11   28 1   
    26   11   29 1   
    27   11   30 1   
    28   12   15 1   
    29   13   14 1   
    30   13   31 1   
    31   13   32 1   
    32   14   15 1   
    33   15   16 2   
    34   16   17 1   
    35   18   33 1   
    36   20   34 1   
    37   20   35 1   
    38   20   36 1   
    39   21   37 1   
    40   21   38 1   
    41   21   39 1   
@<TRIPOS>SUBSTRUCTURE
     1 1SX         1 TEMP              0 ****  ****    0 ROOT
