@<TRIPOS>MOLECULE
1SX
   39    41     1     0     0
SMALL
bcc


@<TRIPOS>ATOM
      1 C2          0.5030    0.3530    0.3320 c3        1 1SX     -0.050300
      2 C12         1.3140   -0.5450    3.9430 cc        1 1SX      0.494400
      3 C15        -0.6230    0.3390    5.1890 c         1 1SX      0.686700
      4 C17        -1.3740    0.2290    6.4690 ca        1 1SX     -0.155600
      5 C18        -0.7330   -0.0390    7.6830 ca        1 1SX     -0.086000
      6 C20        -1.4750   -0.1100    8.8580 ca        1 1SX     -0.136500
      7 C22        -2.8660    0.0820    8.8480 ca        1 1SX     -0.032300
      8 C23        -3.4940    0.3580    7.6290 ca        1 1SX     -0.136500
      9 C25        -2.7560    0.4370    6.4490 ca        1 1SX     -0.086000
     10 C27        -3.6280   -0.0110   10.1450 c3        1 1SX     -0.015700
     11 C28        -5.1230    0.2160    9.9570 c3        1 1SX     -0.087100
     12 S1          2.2720   -0.0120    0.2990 ss        1 1SX     -0.180400
     13 C5         -0.0410    0.1640    1.7590 c3        1 1SX      0.046300
     14 N8          1.0510   -0.2730    2.5880 na        1 1SX     -0.336700
     15 C9          2.3160   -0.3650    1.9500 cc        1 1SX      0.406800
     16 N10         3.2540   -0.7090    2.8770 nd        1 1SX     -0.299000
     17 N11         2.6780   -0.8150    4.0530 nd        1 1SX     -0.374000
     18 N13         0.3650   -0.6210    4.9710 n         1 1SX     -0.525400
     19 O16        -0.8980    1.1950    4.3290 o         1 1SX     -0.592100
     20 C32        -3.4280   -1.3980   10.7500 c3        1 1SX     -0.087100
     21 C36        -3.1030    1.0440   11.1150 c3        1 1SX     -0.087100
     22 H1          0.3510    1.4040   -0.0060 h1        1 1SX      0.086700
     23 H2         -0.0130   -0.3310   -0.3800 h1        1 1SX      0.086700
     24 H3          0.3590   -0.1740    7.7280 ha        1 1SX      0.145000
     25 H4         -0.9580   -0.3170    9.8080 ha        1 1SX      0.143000
     26 H5         -4.5820    0.5230    7.5780 ha        1 1SX      0.143000
     27 H6         -3.2550    0.6720    5.4950 ha        1 1SX      0.145000
     28 H7         -5.6410    0.1320   10.9440 hc        1 1SX      0.039700
     29 H8         -5.5550   -0.5490    9.2680 hc        1 1SX      0.039700
     30 H9         -5.3190    1.2340    9.5440 hc        1 1SX      0.039700
     31 H10        -0.4670    1.1290    2.1580 h1        1 1SX      0.091200
     32 H11        -0.8530   -0.6170    1.7740 h1        1 1SX      0.091200
     33 H12         0.6230   -1.2200    5.7280 hn        1 1SX      0.344500
     34 H13        -2.3480   -1.5870   10.9570 hc        1 1SX      0.039700
     35 H14        -3.8010   -2.1830   10.0500 hc        1 1SX      0.039700
     36 H15        -3.9920   -1.4770   11.7100 hc        1 1SX      0.039700
     37 H16        -3.6660    0.9870   12.0770 hc        1 1SX      0.039700
     38 H17        -3.2330    2.0650   10.6840 hc        1 1SX      0.039700
     39 H18        -2.0190    0.8810   11.3280 hc        1 1SX      0.039700
@<TRIPOS>BOND
     1    1   12 1   
     2    1   13 1   
     3    1   22 1   
     4    1   23 1   
     5    2   14 1   
     6    2   17 2   
     7    2   18 1   
     8    3    4 1   
     9    3   18 1   
    10    3   19 2   
    11    4    5 ar  
    12    4    9 ar  
    13    5    6 ar  
    14    5   24 1   
    15    6    7 ar  
    16    6   25 1   
    17    7    8 ar  
    18    7   10 1   
    19    8    9 ar  
    20    8   26 1   
    21    9   27 1   
    22   10   11 1   
    23   10   20 1   
    24   10   21 1   
    25   11   28 1   
    26   11   29 1   
    27   11   30 1   
    28   12   15 1   
    29   13   14 1   
    30   13   31 1   
    31   13   32 1   
    32   14   15 1   
    33   15   16 2   
    34   16   17 1   
    35   18   33 1   
    36   20   34 1   
    37   20   35 1   
    38   20   36 1   
    39   21   37 1   
    40   21   38 1   
    41   21   39 1   
@<TRIPOS>SUBSTRUCTURE
     1 1SX         1 TEMP              0 ****  ****    0 ROOT
