@<TRIPOS>MOLECULE
1T4
   33    36     1     0     0
SMALL
bcc


@<TRIPOS>ATOM
      1 C1          0.1020   -0.0580    0.1440 ca        1 1T4     -0.075000
      2 C2          1.5270   -0.0580    0.1520 ca        1 1T4      0.087600
      3 C3          2.2080   -0.0710    1.3890 ca        1 1T4     -0.149000
      4 C4          1.5120   -0.0620    2.5870 ca        1 1T4     -0.088000
      5 C5          0.1130   -0.0300    2.6100 ca        1 1T4     -0.061000
      6 C6         -0.5950   -0.0280    1.3820 ca        1 1T4      0.009000
      7 C7         -2.0310    0.0020    1.4050 ca        1 1T4     -0.017000
      8 C8         -2.7280    0.0390    2.6420 ca        1 1T4     -0.027000
      9 C9         -4.1290    0.0750    2.6430 ca        1 1T4     -0.118000
     10 C10        -4.8370    0.0710    1.4450 ca        1 1T4     -0.124000
     11 C11        -4.1650    0.0290    0.2260 ca        1 1T4     -0.119000
     12 C12        -2.7650   -0.0070    0.1910 ca        1 1T4     -0.032000
     13 C13        -2.0370   -0.0640   -1.0450 ca        1 1T4     -0.117000
     14 C14        -0.6800   -0.0900   -1.0650 ca        1 1T4     -0.117000
     15 C15        -1.9720    0.0380    3.8660 ca        1 1T4     -0.125000
     16 C16        -0.6170    0.0030    3.8490 ca        1 1T4     -0.104000
     17 N1          2.2370   -0.0110   -1.0580 n         1 1T4     -0.478100
     18 C17         3.5390   -0.4500   -1.2800 c         1 1T4      0.665100
     19 O18         4.2590   -0.9200   -0.3820 o         1 1T4     -0.584100
     20 C19         4.0460   -0.3170   -2.6990 c3        1 1T4     -0.179100
     21 H1          3.3110   -0.0960    1.4130 ha        1 1T4      0.170000
     22 H2          2.0700   -0.0750    3.5370 ha        1 1T4      0.138000
     23 H3         -4.6680    0.1050    3.6020 ha        1 1T4      0.134000
     24 H4         -5.9370    0.1000    1.4610 ha        1 1T4      0.133000
     25 H5         -4.7320    0.0230   -0.7170 ha        1 1T4      0.133000
     26 H6         -2.6170   -0.0920   -1.9800 ha        1 1T4      0.132000
     27 H7         -0.1760   -0.1580   -2.0410 ha        1 1T4      0.118000
     28 H8         -2.5310    0.0650    4.8140 ha        1 1T4      0.134000
     29 H9         -0.0350   -0.0010    4.7830 ha        1 1T4      0.133000
     30 H10         1.7310    0.3080   -1.8530 hn        1 1T4      0.317500
     31 H11         3.4240   -0.9270   -3.3970 hc        1 1T4      0.069367
     32 H12         4.0260    0.7510   -3.0260 hc        1 1T4      0.069367
     33 H13         5.1000   -0.6870   -2.7340 hc        1 1T4      0.069367
@<TRIPOS>BOND
     1    1    2 ar  
     2    1    6 ar  
     3    1   14 ar  
     4    2    3 ar  
     5    2   17 1   
     6    3    4 ar  
     7    3   21 1   
     8    4    5 ar  
     9    4   22 1   
    10    5    6 ar  
    11    5   16 ar  
    12    6    7 ar  
    13    7    8 ar  
    14    7   12 ar  
    15    8    9 ar  
    16    8   15 ar  
    17    9   10 ar  
    18    9   23 1   
    19   10   11 ar  
    20   10   24 1   
    21   11   12 ar  
    22   11   25 1   
    23   12   13 ar  
    24   13   14 ar  
    25   13   26 1   
    26   14   27 1   
    27   15   16 ar  
    28   15   28 1   
    29   16   29 1   
    30   17   18 1   
    31   17   30 1   
    32   18   19 2   
    33   18   20 1   
    34   20   31 1   
    35   20   32 1   
    36   20   33 1   
@<TRIPOS>SUBSTRUCTURE
     1 1T4         1 TEMP              0 ****  ****    0 ROOT
