@<TRIPOS>MOLECULE
1T4
   34    37     1     0     0
SMALL
bcc


@<TRIPOS>ATOM
      1 C1          0.1180    0.3000   -0.0950 ca        1 1T4      0.049000
      2 C2          1.4860    0.6400   -0.1910 ca        1 1T4     -0.107400
      3 C3          2.2580    0.9030    0.9610 ca        1 1T4     -0.100000
      4 C4          1.6780    0.8400    2.2130 ca        1 1T4     -0.117000
      5 C5          0.3140    0.5190    2.3590 ca        1 1T4      0.041000
      6 C6         -0.4650    0.2510    1.2040 ca        1 1T4     -0.028000
      7 C7         -1.8550   -0.0700    1.3510 ca        1 1T4     -0.003000
      8 C8         -2.4410   -0.1150    2.6430 ca        1 1T4     -0.057000
      9 C9         -3.8050   -0.4250    2.7680 ca        1 1T4     -0.062000
     10 C10        -4.5770   -0.6870    1.6400 ca        1 1T4     -0.125000
     11 C11        -4.0090   -0.6470    0.3670 ca        1 1T4     -0.062000
     12 C12        -2.6510   -0.3400    0.2080 ca        1 1T4     -0.074000
     13 C13        -2.0300   -0.2960   -1.0850 ca        1 1T4     -0.013000
     14 C14        -0.7110    0.0050   -1.2310 ca        1 1T4     -0.210000
     15 C15        -1.6210    0.1600    3.7890 ca        1 1T4     -0.050000
     16 C16        -0.3020    0.4630    3.6530 ca        1 1T4     -0.150000
     17 N1          2.1290    0.7600   -1.5000 n4        1 1T4     -0.538200
     18 C17         2.5050   -0.5950   -2.0850 c         1 1T4      0.560100
     19 O18         1.9140   -0.8880   -3.1120 o         1 1T4     -0.416100
     20 C19         3.5450   -1.3660   -1.3520 c3        1 1T4     -0.182100
     21 H1          3.3250    1.1700    0.8780 ha        1 1T4      0.144000
     22 H2          2.2830    1.0480    3.1110 ha        1 1T4      0.167000
     23 H3         -4.2630   -0.4600    3.7700 ha        1 1T4      0.156000
     24 H4         -5.6460   -0.9280    1.7530 ha        1 1T4      0.159000
     25 H5         -4.6300   -0.8560   -0.5200 ha        1 1T4      0.153000
     26 H6         -2.6550   -0.5200   -1.9670 ha        1 1T4      0.157000
     27 H7         -0.2770    0.0020   -2.2420 ha        1 1T4      0.132000
     28 H8         -2.0930    0.1190    4.7850 ha        1 1T4      0.157000
     29 H9          0.3260    0.6740    4.5330 ha        1 1T4      0.157000
     30 H10         1.4810    1.2390   -2.1430 hn        1 1T4      0.460300
     31 H11         3.4360   -2.4520   -1.6170 hc        1 1T4      0.113700
     32 H12         3.4480   -1.2510   -0.2430 hc        1 1T4      0.113700
     33 H13         4.5610   -1.0210   -1.6750 hc        1 1T4      0.113700
     34 H121        2.9780    1.3270   -1.4030 hn        1 1T4      0.460300
@<TRIPOS>BOND
     1    1    2 ar  
     2    1    6 ar  
     3    1   14 ar  
     4    2    3 ar  
     5    2   17 1   
     6    3    4 ar  
     7    3   21 1   
     8    4    5 ar  
     9    4   22 1   
    10    5    6 ar  
    11    5   16 ar  
    12    6    7 ar  
    13    7    8 ar  
    14    7   12 ar  
    15    8    9 ar  
    16    8   15 ar  
    17    9   10 ar  
    18    9   23 1   
    19   10   11 ar  
    20   10   24 1   
    21   11   12 ar  
    22   11   25 1   
    23   12   13 ar  
    24   13   14 ar  
    25   13   26 1   
    26   14   27 1   
    27   15   16 ar  
    28   15   28 1   
    29   16   29 1   
    30   17   18 1   
    31   17   30 1   
    32   17   34 1   
    33   18   19 2   
    34   18   20 1   
    35   20   31 1   
    36   20   32 1   
    37   20   33 1   
@<TRIPOS>SUBSTRUCTURE
     1 1T4         1 TEMP              0 ****  ****    0 ROOT
