@<TRIPOS>MOLECULE
1T5
   83    85     1     0     0
SMALL
bcc


@<TRIPOS>ATOM
      1 C1         -0.0270    1.2510   -1.3210 c2        1 1T5      0.143000
      2 C2          4.9810   -1.3470    1.7140 c1        1 1T5     -0.172000
      3 C3          0.2420    0.6970   -0.1570 c1        1 1T5     -0.532000
      4 C4          2.4830    6.8510    7.7640 c2        1 1T5     -0.175000
      5 C5          3.1110    8.0740    7.3540 c2        1 1T5      0.063000
      6 C6         -0.3550   -1.9230    4.0470 c2        1 1T5     -0.043000
      7 C7          4.6460   -0.6630    2.6380 c1        1 1T5     -0.202000
      8 C8          0.5210    0.1460    0.9570 c1        1 1T5      0.115000
      9 C9         -0.2440   -0.8700    5.0720 c3        1 1T5     -0.174000
     10 C10         3.0950    3.2520    7.4320 c2        1 1T5      0.086000
     11 C11         1.0930    4.3300    8.4470 c3        1 1T5     -0.091000
     12 C12         4.6050    6.8710    5.8440 c1        1 1T5     -0.042000
     13 C13         2.0410   -1.9100    3.6730 c2        1 1T5      0.066000
     14 C14         1.4930    1.8700    8.7100 c2        1 1T5     -0.241000
     15 C15         2.8660    5.6560    7.2380 c2        1 1T5     -0.013000
     16 C16         2.3680    4.3690    7.6850 c2        1 1T5     -0.164000
     17 C17         4.1410    8.0650    6.4440 c2        1 1T5     -0.230000
     18 C18         0.7220   -2.3990    3.3830 c2        1 1T5     -0.139000
     19 C19         3.8630    5.6290    6.1230 c3        1 1T5     -0.160000
     20 C20         4.2840    0.2110    3.7110 c3        1 1T5     -0.045000
     21 C21         2.7410    1.8730    7.9070 c3        1 1T5      0.030000
     22 C22         2.2750   -0.9740    4.6430 c2        1 1T5     -0.183000
     23 C23         1.1590   -0.4330    5.3900 c2        1 1T5      0.201000
     24 C24         0.6750    2.9400    8.8430 c2        1 1T5      0.058000
     25 C26         4.8020    9.3620    6.0990 c2        1 1T5      0.353000
     26 C27         4.7650    4.4350    6.1700 c2        1 1T5      0.341000
     27 C28        -1.4640    1.7600    9.0240 c2        1 1T5      0.337000
     28 C29         3.7230    0.4680    6.0780 c2        1 1T5     -0.101000
     29 C30         2.6290    0.9100    6.7380 c2        1 1T5     -0.060000
     30 C31         3.6800   -0.5070    4.9400 c3        1 1T5      0.021000
     31 C32         4.5530   -1.7010    5.3290 c3        1 1T5     -0.210000
     32 C33        -5.2490    2.1050    9.4360 c3        1 1T5     -0.217500
     33 C34        -3.6600    3.9830    9.0820 c3        1 1T5     -0.217500
     34 C35        -2.8210    1.6910    9.6930 c3        1 1T5     -0.179000
     35 C36        -3.8710    2.4910    8.9340 c3        1 1T5     -0.102000
     36 N37         0.8250   -3.1310    1.0300 n2        1 1T5     -0.267000
     37 N38         1.3360    0.4650    6.3630 n7        1 1T5     -0.129000
     38 N39         0.0400   -4.6380    2.6970 n8        1 1T5     -0.324000
     39 N40         5.9010    9.3260    5.2910 nt        1 1T5     -0.404000
     40 N41        -0.6170    2.8010    9.3850 ns        1 1T5     -0.335000
     41 O42         4.3510   10.4420    6.5430 o         1 1T5     -0.393000
     42 O43         4.2980    3.2520    6.7640 os        1 1T5     -0.230000
     43 O44        -1.1050    0.9070    8.1800 o         1 1T5     -0.428000
     44 O45         5.8780    4.2550    5.7030 o         1 1T5     -0.213000
     45 H46        -0.0800    2.3460   -1.4560 ha        1 1T5      0.133000
     46 H47         5.2830   -1.9510    0.8930 ha        1 1T5      0.237000
     47 H48        -0.2110    0.6500   -2.2300 ha        1 1T5      0.133000
     48 H49         0.2870    4.8180    7.8310 hc        1 1T5      0.119000
     49 H50         1.7080    6.9130    8.5440 ha        1 1T5      0.151000
     50 H51        -0.7580   -1.2150    6.0210 hc        1 1T5      0.175500
     51 H52         3.5450    0.9740    3.3380 hc        1 1T5      0.118500
     52 H53         5.2070    0.7670    4.0460 hc        1 1T5      0.118500
     53 H54        -0.8290    0.0310    4.7050 hc        1 1T5      0.175500
     54 H55         3.5990    1.5060    8.5520 hc        1 1T5      0.158000
     55 H56         1.2130    4.9420    9.3880 hc        1 1T5      0.119000
     56 H57         3.2600    5.5230    5.1480 hc        1 1T5      0.207000
     57 H58         2.8840   -2.3100    3.0750 ha        1 1T5      0.183000
     58 H59         1.2280    0.8900    9.1460 ha        1 1T5      0.161000
     59 H60        -1.4160   -0.2010    2.3870 ha        1 1T5      0.005500
     60 H61         4.7240    0.8360    6.3660 ha        1 1T5      0.189000
     61 H62        -1.6830    0.1600    1.8760 ha        1 1T5      0.005500
     62 H64         5.5940   -1.3550    5.5420 hc        1 1T5      0.096333
     63 H63         4.5910   -2.4410    4.4930 hc        1 1T5      0.096333
     64 H65         4.1460   -2.2030    6.2390 hc        1 1T5      0.096333
     65 H68        -3.8020    2.2220    7.8410 hc        1 1T5      0.097000
     66 H67        -5.4240    1.0100    9.2990 hc        1 1T5      0.083500
     67 H66        -6.0330    2.6620    8.8690 hc        1 1T5      0.083500
     68 H70        -5.3550    2.3500   10.5200 hc        1 1T5      0.083500
     69 H69        -4.5370    4.5350    8.6610 hc        1 1T5      0.083500
     70 H71        -2.7480    4.3150    8.5300 hc        1 1T5      0.083500
     71 H73        -3.5540    4.2650   10.1570 hc        1 1T5      0.083500
     72 H72        -3.1190    0.6070    9.7090 hc        1 1T5      0.123500
     73 H74        -2.7630    2.0440   10.7560 hc        1 1T5      0.123500
     74 H75         1.0710   -2.1800    0.8430 hn        1 1T5      0.174000
     75 H76         0.5410    0.8110    6.8920 hn        1 1T5      0.308000
     76 H78        -1.3760   -2.2890    3.8350 ha        1 1T5      0.181000
     77 H79         6.2410    8.4600    4.9480 hn        1 1T5      0.243500
     78 H80         6.3620   10.1690    5.0550 hn        1 1T5      0.243500
     79 H81        -0.9750    3.5470    9.9370 hn        1 1T5      0.252000
     80 H77         0.4770   -4.9880    3.5220 hn        1 1T5      0.198000
     81 H393       -0.0350   -5.3300    1.9790 hn        1 1T5      0.198000
     82 H403        2.7700    9.0260    7.8060 ha        1 1T5      0.183000
     83 C25         0.5740   -3.4010    2.2720 c2        1 1T5      0.100000
@<TRIPOS>BOND
     1    1    3 1   
     2    1   45 1   
     3    1   47 1   
     4    2    7 1   
     5    2   46 1   
     6    3    8 1   
     7    4    5 1   
     8    4   15 1   
     9    4   49 1   
    10    5   17 1   
    11    5   82 1   
    12    6    9 1   
    13    6   18 1   
    14    6   76 1   
    15    7   20 1   
    16    9   23 1   
    17    9   50 1   
    18    9   53 1   
    19   10   16 1   
    20   10   21 1   
    21   10   42 1   
    22   11   16 1   
    23   11   24 1   
    24   11   48 1   
    25   11   55 1   
    26   12   17 1   
    27   12   19 1   
    28   13   18 1   
    29   13   22 1   
    30   13   57 1   
    31   14   21 1   
    32   14   24 1   
    33   14   58 1   
    34   15   16 1   
    35   15   19 1   
    36   17   25 1   
    37   18   83 1   
    38   19   26 1   
    39   19   56 1   
    40   20   30 1   
    41   20   51 1   
    42   20   52 1   
    43   21   29 1   
    44   21   54 1   
    45   22   23 1   
    46   22   30 1   
    47   23   37 1   
    48   24   40 1   
    49   25   39 1   
    50   25   41 1   
    51   26   42 1   
    52   26   44 1   
    53   27   34 1   
    54   27   40 1   
    55   27   43 1   
    56   28   29 1   
    57   28   30 1   
    58   28   60 1   
    59   29   37 1   
    60   30   31 1   
    61   31   62 1   
    62   31   63 1   
    63   31   64 1   
    64   32   35 1   
    65   32   66 1   
    66   32   67 1   
    67   32   68 1   
    68   33   35 1   
    69   33   69 1   
    70   33   70 1   
    71   33   71 1   
    72   34   35 1   
    73   34   72 1   
    74   34   73 1   
    75   35   65 1   
    76   36   74 1   
    77   36   83 1   
    78   37   75 1   
    79   38   80 1   
    80   38   81 1   
    81   38   83 1   
    82   39   77 1   
    83   39   78 1   
    84   40   79 1   
    85   59   61 1   
@<TRIPOS>SUBSTRUCTURE
     1 1T5         1 TEMP              0 ****  ****    0 ROOT
