@<TRIPOS>MOLECULE
1T5
   83    85     1     0     0
SMALL
bcc


@<TRIPOS>ATOM
      1 C1         -1.4900    2.0660    0.1430 c2        1 1T5      0.177000
      2 C2          3.7970    0.9500   -0.6920 c1        1 1T5     -0.185000
      3 C3         -0.8730    1.4760    1.1500 c1        1 1T5     -0.498000
      4 C4          2.8230    6.1950    8.2990 c2        1 1T5     -0.156000
      5 C5          3.7610    7.2550    8.0470 c2        1 1T5      0.058000
      6 C6          1.0470   -3.0520    5.0260 c2        1 1T5     -0.113000
      7 C7          3.3150    0.3040    0.1940 c1        1 1T5     -0.189000
      8 C8         -0.2770    0.9060    2.1100 c1        1 1T5      0.091000
      9 C9          0.3350   -1.9780    4.2960 c3        1 1T5     -0.158000
     10 C10         2.2440    2.7820    7.1380 c2        1 1T5      0.048000
     11 C11         0.7740    4.0670    8.6660 c3        1 1T5     -0.108000
     12 C12         4.6140    6.1050    6.0680 c1        1 1T5     -0.036000
     13 C13         3.1310   -2.2820    4.0490 c2        1 1T5     -0.072000
     14 C14         0.2110    1.7000    8.0650 c2        1 1T5     -0.308000
     15 C15         2.7420    5.1220    7.4690 c2        1 1T5     -0.032000
     16 C16         1.9180    3.9560    7.7270 c2        1 1T5     -0.122000
     17 C17         4.6250    7.1860    6.9830 c2        1 1T5     -0.223000
     18 C18         2.3840   -3.1820    4.9120 c2        1 1T5     -0.134000
     19 C19         3.5440    5.1000    6.2070 c3        1 1T5     -0.158000
     20 C20         2.7190   -0.4920    1.2230 c3        1 1T5     -0.043000
     21 C21         1.5410    1.4920    7.4370 c3        1 1T5      0.099000
     22 C22         2.6000   -1.1270    3.5940 c2        1 1T5     -0.141000
     23 C23         1.2130   -0.7380    4.0540 c3        1 1T5      0.020000
     24 C24        -0.1640    2.8800    8.6240 c2        1 1T5      0.112000
     25 C26         5.6280    8.2840    6.8040 c2        1 1T5      0.352000
     26 C27         4.0130    3.7320    5.8200 c2        1 1T5      0.344000
     27 C28        -2.5200    2.2490    9.1600 c2        1 1T5      0.318000
     28 C29         3.1060    1.2500    2.9800 c3        1 1T5     -0.217000
     29 C30         1.4040    0.6960    6.2160 c1        1 1T5      0.192000
     30 C31         3.3050   -0.2180    2.6240 c3        1 1T5     -0.004000
     31 C32         4.8050   -0.4980    2.5990 c3        1 1T5     -0.217000
     32 C33        -5.9830    3.6710    9.9350 c3        1 1T5     -0.216500
     33 C34        -4.0440    4.9930    9.1160 c3        1 1T5     -0.216500
     34 C35        -3.7260    2.6530    9.9860 c3        1 1T5     -0.181000
     35 C36        -4.6410    3.6070    9.2300 c3        1 1T5     -0.104000
     36 N37         4.2660   -3.9900    6.2930 n2        1 1T5     -0.278000
     37 N38         1.3010    0.0700    5.2480 n2        1 1T5      0.002000
     38 N39         2.5520   -5.5030    5.6650 n3        1 1T5     -0.327000
     39 N40         6.5560    8.1490    5.8140 n         1 1T5     -0.403000
     40 N41        -1.3960    3.0810    9.2450 n         1 1T5     -0.331000
     41 O42         5.6020    9.2900    7.5480 o         1 1T5     -0.388000
     42 O43         3.2810    2.6100    6.2510 os        1 1T5     -0.238000
     43 O44        -2.5220    1.2290    8.4530 o         1 1T5     -0.338000
     44 O45         4.9280    3.3720    5.0980 o         1 1T5     -0.205000
     45 H46        -1.9260    1.4910   -0.6950 ha        1 1T5      0.143000
     46 H47         4.2320    1.5170   -1.4760 ha        1 1T5      0.231000
     47 H48        -1.6020    3.1640    0.0840 ha        1 1T5      0.143000
     48 H49         0.2110    5.0140    8.4300 hc        1 1T5      0.126500
     49 H50         2.2030    6.2660    9.2080 ha        1 1T5      0.154000
     50 H51        -0.6180   -1.7020    4.8190 hc        1 1T5      0.136000
     51 H52         2.8630   -1.5820    0.9790 hc        1 1T5      0.100000
     52 H53         1.6090   -0.2930    1.2480 hc        1 1T5      0.100000
     53 H54         0.0490   -2.3600    3.2730 hc        1 1T5      0.136000
     54 H55         2.2020    0.8810    8.1380 hc        1 1T5      0.180000
     55 H56         1.1730    4.1660    9.7170 hc        1 1T5      0.126500
     56 H57         2.8360    5.4330    5.3610 hc        1 1T5      0.211000
     57 H58         4.1430   -2.6130    3.7520 ha        1 1T5      0.167000
     58 H59        -0.4440    0.8130    8.0770 ha        1 1T5      0.190000
     59 H60         2.0290    1.5390    2.9190 hc        1 1T5      0.088167
     60 H61         3.6720    1.8850    2.2530 hc        1 1T5      0.088167
     61 H62         3.4970    1.4690    4.0050 hc        1 1T5      0.088167
     62 H64         5.2320   -0.4280    3.6280 hc        1 1T5      0.088167
     63 H63         5.0160   -1.5100    2.1800 hc        1 1T5      0.088167
     64 H65         5.3150    0.2560    1.9500 hc        1 1T5      0.088167
     65 H68        -4.8040    3.1950    8.1930 hc        1 1T5      0.104000
     66 H67        -6.6760    4.3460    9.3770 hc        1 1T5      0.082000
     67 H66        -6.4460    2.6560    9.9900 hc        1 1T5      0.082000
     68 H70        -5.8640    4.0660   10.9730 hc        1 1T5      0.082000
     69 H69        -4.8100    5.7070    8.7230 hc        1 1T5      0.082000
     70 H71        -3.1780    4.9990    8.4120 hc        1 1T5      0.082000
     71 H73        -3.7030    5.3630   10.1130 hc        1 1T5      0.082000
     72 H72        -3.4160    3.1100   10.9630 hc        1 1T5      0.122500
     73 H74        -4.2870    1.7060   10.2160 hc        1 1T5      0.122500
     74 H75         4.5470   -3.0340    6.2940 hn        1 1T5      0.148000
     75 H76         0.6690   -0.0490    3.2630 h1        1 1T5      0.262000
     76 H78         0.4330   -3.7410    5.6300 ha        1 1T5      0.170000
     77 H79         6.5580    7.3450    5.2350 hn        1 1T5      0.244500
     78 H80         7.2350    8.8580    5.6810 hn        1 1T5      0.244500
     79 H81        -1.5080    3.9390    9.7420 hn        1 1T5      0.244000
     80 H77         3.0980   -6.2290    6.0820 hn        1 1T5      0.200500
     81 H393        2.1640   -5.7610    4.7850 hn        1 1T5      0.200500
     82 H403        3.7930    8.1150    8.7450 ha        1 1T5      0.187000
     83 C25         3.1630   -4.2310    5.6490 c2        1 1T5      0.109000
@<TRIPOS>BOND
     1    1    3 1   
     2    1   45 1   
     3    1   47 1   
     4    2    7 1   
     5    2   46 1   
     6    3    8 1   
     7    4    5 1   
     8    4   15 1   
     9    4   49 1   
    10    5   17 1   
    11    5   82 1   
    12    6    9 1   
    13    6   18 1   
    14    6   76 1   
    15    7   20 1   
    16    9   23 1   
    17    9   50 1   
    18    9   53 1   
    19   10   16 1   
    20   10   21 1   
    21   10   42 1   
    22   11   16 1   
    23   11   24 1   
    24   11   48 1   
    25   11   55 1   
    26   12   17 1   
    27   12   19 1   
    28   13   18 1   
    29   13   22 1   
    30   13   57 1   
    31   14   21 1   
    32   14   24 1   
    33   14   58 1   
    34   15   16 1   
    35   15   19 1   
    36   17   25 1   
    37   18   83 1   
    38   19   26 1   
    39   19   56 1   
    40   20   30 1   
    41   20   51 1   
    42   20   52 1   
    43   21   29 1   
    44   21   54 1   
    45   22   23 1   
    46   22   30 1   
    47   23   37 1   
    48   23   75 1   
    49   24   40 1   
    50   25   39 1   
    51   25   41 1   
    52   26   42 1   
    53   26   44 1   
    54   27   34 1   
    55   27   40 1   
    56   27   43 1   
    57   28   30 1   
    58   28   59 1   
    59   28   60 1   
    60   28   61 1   
    61   29   37 1   
    62   30   31 1   
    63   31   62 1   
    64   31   63 1   
    65   31   64 1   
    66   32   35 1   
    67   32   66 1   
    68   32   67 1   
    69   32   68 1   
    70   33   35 1   
    71   33   69 1   
    72   33   70 1   
    73   33   71 1   
    74   34   35 1   
    75   34   72 1   
    76   34   73 1   
    77   35   65 1   
    78   36   74 1   
    79   36   83 1   
    80   38   80 1   
    81   38   81 1   
    82   38   83 1   
    83   39   77 1   
    84   39   78 1   
    85   40   79 1   
@<TRIPOS>SUBSTRUCTURE
     1 1T5         1 TEMP              0 ****  ****    0 ROOT
