@<TRIPOS>MOLECULE
1T5
   81    82     1     0     0
SMALL
bcc


@<TRIPOS>ATOM
      1 C1         -0.2330   -4.3190   -0.1510 c3        1 1T5     -0.125000
      2 C2          2.7670    0.1890   -0.7060 c1        1 1T5      0.189000
      3 C3         -0.9280   -3.2720    0.5240 c1        1 1T5     -0.156000
      4 C4          3.4640    5.7630    9.6090 ca        1 1T5     -0.158000
      5 C5          4.4630    6.6590    9.9610 ca        1 1T5     -0.099000
      6 C6          2.0440   -3.5100    5.2630 c1        1 1T5     -0.100000
      7 C7          2.1490   -0.0760    0.3780 c1        1 1T5     -0.575000
      8 C8         -1.5080   -2.3910    1.0910 c1        1 1T5     -0.241000
      9 C9          1.6690   -2.2890    5.9480 c3        1 1T5     -0.209000
     10 C10         2.5660    3.3070    7.0470 ca        1 1T5     -0.064000
     11 C11         1.0060    4.5670    8.4050 ca        1 1T5     -0.147000
     12 C12         5.2780    6.6970    7.6760 ca        1 1T5     -0.057000
     13 C13         2.3500   -2.2460    3.2150 c2        1 1T5      0.036000
     14 C14         0.2510    2.5820    7.2250 ca        1 1T5     -0.157000
     15 C15         3.3570    5.3200    8.2800 cp        1 1T5     -0.069000
     16 C16         2.2970    4.3850    7.9050 cq        1 1T5      0.005000
     17 C17         5.3770    7.1240    9.0030 ca        1 1T5     -0.093000
     18 C18         2.3930   -3.4340    3.8980 c2        1 1T5     -0.224000
     19 C19         4.2620    5.7930    7.3280 ca        1 1T5     -0.100000
     20 C20         1.4850   -0.3600    1.4830 c2        1 1T5      0.173000
     21 C21         1.5500    2.4020    6.7270 ca        1 1T5     -0.140000
     22 C22         1.8970   -1.0130    3.8110 c2        1 1T5     -0.133000
     23 C23         1.6270   -1.0010    5.1620 c2        1 1T5      0.096000
     24 C24        -0.0370    3.6730    8.0630 ca        1 1T5      0.053000
     25 C26         6.4030    8.0980    9.4840 c2        1 1T5      0.341000
     26 C27         6.1890    7.1690    6.5440 c2        1 1T5      0.355000
     27 C28        -2.4080    3.0680    8.5900 c2        1 1T5      0.311000
     28 C29         0.6640    1.1300    3.1760 c3        1 1T5     -0.212000
     29 C30         1.8980    1.3070    5.8200 c1        1 1T5     -0.036000
     30 C31         1.8100    0.1620    2.8630 c3        1 1T5     -0.007000
     31 C32         3.1350    0.9150    2.8770 c3        1 1T5     -0.212000
     32 C33        -5.9990    4.3570    8.7830 c3        1 1T5     -0.214000
     33 C34        -4.0920    5.6230    7.8160 c3        1 1T5     -0.214000
     34 C35        -3.6830    3.5910    9.2380 c3        1 1T5     -0.181000
     35 C36        -4.5970    4.2530    8.2160 c3        1 1T5     -0.103000
     36 N37         2.4550   -5.0410    2.0090 n2        1 1T5     -0.335000
     37 N38         1.2960    0.1290    5.9390 n3        1 1T5     -0.190000
     38 N39         3.6730   -5.5060    3.9860 n3        1 1T5     -0.321000
     39 N40         7.7100    7.9170    9.1070 n         1 1T5     -0.403000
     40 N41        -1.3250    3.9280    8.5740 n         1 1T5     -0.321000
     41 O42         6.1000    9.0060   10.2970 o         1 1T5     -0.428000
     42 O43         5.7030    7.9610    5.6980 o         1 1T5     -0.546500
     43 O44        -2.3740    1.9140    8.1190 o         1 1T5     -0.375000
     44 O45         7.3690    6.7100    6.5060 o         1 1T5     -0.546500
     45 H46        -0.0850   -5.1990    0.5290 hc        1 1T5      0.101333
     46 H47        -0.8140   -4.6590   -1.0480 hc        1 1T5      0.101333
     47 H48         0.7730   -3.9670   -0.4980 hc        1 1T5      0.101333
     48 H49         2.7600    5.3940   10.3690 ha        1 1T5      0.113000
     49 H50         4.5430    7.0250   10.9970 ha        1 1T5      0.137000
     50 H51         2.4090   -2.1770    6.8020 hc        1 1T5      0.171000
     51 H52         0.5780   -1.0030    1.4400 ha        1 1T5      0.128000
     52 H53        -2.0310   -1.6150    1.5880 ha        1 1T5      0.221000
     53 H54         0.6620   -2.4800    6.4280 hc        1 1T5      0.171000
     54 H55         3.5780    3.1730    6.6310 ha        1 1T5      0.167000
     55 H56         0.8120    5.4300    9.0620 ha        1 1T5      0.141000
     56 H57         4.1800    5.4770    6.2760 ha        1 1T5      0.146000
     57 H58         2.6870   -2.2050    2.1600 ha        1 1T5      0.150000
     58 H59        -0.5500    1.8800    6.9440 ha        1 1T5      0.155000
     59 H60        -0.1990    0.5910    3.6300 hc        1 1T5      0.096833
     60 H61         0.3160    1.6270    2.2360 hc        1 1T5      0.096833
     61 H62         1.0120    1.9390    3.8640 hc        1 1T5      0.096833
     62 H64         3.3230    1.3190    3.9050 hc        1 1T5      0.096833
     63 H63         3.9700    0.2330    2.5890 hc        1 1T5      0.096833
     64 H65         3.0970    1.7620    2.1520 hc        1 1T5      0.096833
     65 H68        -4.6310    3.5980    7.2980 hc        1 1T5      0.105000
     66 H67        -6.0010    4.9780    9.7110 hc        1 1T5      0.077167
     67 H66        -6.3960    3.3440    9.0320 hc        1 1T5      0.077167
     68 H70        -6.6800    4.8320    8.0370 hc        1 1T5      0.077167
     69 H69        -4.8310    6.1220    7.1430 hc        1 1T5      0.077167
     70 H71        -3.9440    6.2690    8.7150 hc        1 1T5      0.077167
     71 H73        -3.1220    5.5450    7.2680 hc        1 1T5      0.077167
     72 H72        -4.2040    2.7010    9.6820 hc        1 1T5      0.106000
     73 H74        -3.4600    4.3050   10.0720 hc        1 1T5      0.106000
     74 H75         1.9160   -4.3470    1.5360 hn        1 1T5      0.136000
     75 H76         0.6260   -0.0750    6.6650 hn        1 1T5      0.183000
     76 H78         3.7570   -6.4520    3.6820 hn        1 1T5      0.199500
     77 H79         7.9140    7.3290    8.3220 hn        1 1T5      0.233000
     78 H80         8.3400    8.6600    9.2900 hn        1 1T5      0.233000
     79 H81        -1.4540    4.8310    8.9730 hn        1 1T5      0.233000
     80 H77         3.5080   -5.4150    4.9680 hn        1 1T5      0.199500
     81 C25         2.8110   -4.7030    3.2160 c2        1 1T5      0.150000
@<TRIPOS>BOND
     1    1    3 1   
     2    1   45 1   
     3    1   46 1   
     4    1   47 1   
     5    2    7 1   
     6    3    8 1   
     7    4    5 1   
     8    4   15 1   
     9    4   48 1   
    10    5   17 1   
    11    5   49 1   
    12    6    9 1   
    13    6   18 1   
    14    7   20 1   
    15    8   52 1   
    16    9   23 1   
    17    9   50 1   
    18    9   53 1   
    19   10   16 1   
    20   10   21 1   
    21   10   54 1   
    22   11   16 1   
    23   11   24 1   
    24   11   55 1   
    25   12   17 1   
    26   12   19 1   
    27   12   26 1   
    28   13   18 1   
    29   13   22 1   
    30   13   57 1   
    31   14   21 1   
    32   14   24 1   
    33   14   58 1   
    34   15   16 1   
    35   15   19 1   
    36   17   25 1   
    37   18   81 1   
    38   19   56 1   
    39   20   30 1   
    40   20   51 1   
    41   21   29 1   
    42   22   23 1   
    43   22   30 1   
    44   23   37 1   
    45   24   40 1   
    46   25   39 1   
    47   25   41 1   
    48   26   42 1   
    49   26   44 1   
    50   27   34 1   
    51   27   40 1   
    52   27   43 1   
    53   28   30 1   
    54   28   59 1   
    55   28   60 1   
    56   28   61 1   
    57   29   37 1   
    58   30   31 1   
    59   31   62 1   
    60   31   63 1   
    61   31   64 1   
    62   32   35 1   
    63   32   66 1   
    64   32   67 1   
    65   32   68 1   
    66   33   35 1   
    67   33   69 1   
    68   33   70 1   
    69   33   71 1   
    70   34   35 1   
    71   34   72 1   
    72   34   73 1   
    73   35   65 1   
    74   36   74 1   
    75   36   81 1   
    76   37   75 1   
    77   38   76 1   
    78   38   80 1   
    79   38   81 1   
    80   39   77 1   
    81   39   78 1   
    82   40   79 1   
@<TRIPOS>SUBSTRUCTURE
     1 1T5         1 TEMP              0 ****  ****    0 ROOT
