@<TRIPOS>MOLECULE
1T6
   67    69     1     0     0
SMALL
bcc


@<TRIPOS>ATOM
      1 C13        -0.4770    1.5530    0.2200 c2        1 1T6     -0.138000
      2 C18         2.8120   -0.7810   -2.9370 c2        1 1T6     -0.200000
      3 C17         1.5600    0.6880   -0.8770 c2        1 1T6     -0.018000
      4 C16         0.8660    1.4310    0.1750 c2        1 1T6     -0.078000
      5 C15        -6.5920    0.4670    1.6530 c1        1 1T6     -0.005000
      6 C19        -6.8250   -0.7050    2.4460 c2        1 1T6     -0.214000
      7 C20         2.2770   -0.4290   -0.5880 c2        1 1T6     -0.184000
      8 C21        -5.5330    3.2100    1.8650 c3        1 1T6     -0.049000
      9 C22        -1.1520    2.2680    1.3420 c3        1 1T6     -0.043000
     10 C23        -5.1920    0.7800    1.3300 c3        1 1T6     -0.180000
     11 C24        -4.2630    0.4840    2.5330 c3        1 1T6     -0.048000
     12 C11        -0.3550    2.1920    2.6630 c3        1 1T6     -0.114000
     13 C12        -4.3970   -1.0050    2.8960 c3        1 1T6     -0.156000
     14 C27         2.1370   -3.4090    1.6010 c1        1 1T6      0.460000
     15 C1         -0.5860    0.9240    3.4060 c2        1 1T6      0.317000
     16 C2         -5.3570    5.7370    1.1590 c1        1 1T6     -0.187000
     17 C3         -0.0440   -0.2920    3.0240 c2        1 1T6     -0.559000
     18 C4          1.1130    2.3670    2.4090 c2        1 1T6     -0.196000
     19 C5          1.6760    2.0040    1.2460 c2        1 1T6     -0.079000
     20 C6          1.4360    1.1800   -2.2730 c3        1 1T6     -0.160000
     21 C7          2.1310    0.3490   -3.2790 c2        1 1T6      0.004000
     22 C8         -5.8240   -1.3830    3.0590 c2        1 1T6     -0.010000
     23 C9         -5.4230    4.5810    1.4630 c1        1 1T6     -0.192000
     24 C10        -0.1610   -1.5220    3.5710 c1        1 1T6      0.585000
     25 C14         2.8820   -1.2500   -1.5940 c1        1 1T6     -0.074000
     26 C25        -8.2710   -1.0820    2.6190 c2        1 1T6      0.100000
     27 C28        -3.5310    2.4660    0.5140 c3        1 1T6     -0.175000
     28 C29        -2.5910    1.8020    1.4800 c2        1 1T6      0.014000
     29 C30        -5.0110    2.2170    0.8170 c3        1 1T6     -0.015000
     30 C31        -5.8130    2.3780   -0.4690 c3        1 1T6     -0.212000
     31 N32        -9.2390   -0.2210    2.6300 n2        1 1T6     -0.250000
     32 N33        -2.8910    0.9020    2.3560 n2        1 1T6     -0.249000
     33 N34        -8.4880   -2.4710    2.8430 n8        1 1T6     -0.325000
     34 N35         4.1940   -2.6750   -3.6640 nt        1 1T6     -0.403000
     35 O36         3.3910   -1.2060   -5.2170 o         1 1T6     -0.391000
     36 O37         1.5310   -2.4380    1.9650 o         1 1T6     -0.225000
     37 O38         2.7320   -4.3660    1.2520 o         1 1T6     -0.225000
     38 H51        -1.1280    1.1660   -0.5800 ha        1 1T6      0.159000
     39 H53        -4.9140    0.0860    0.4750 hc        1 1T6      0.137000
     40 H49        -0.7160    3.0490    3.3090 hc        1 1T6      0.153000
     41 H50        -3.8370   -1.2200    3.8440 hc        1 1T6      0.109000
     42 H39         0.5990   -0.3080    2.0880 ha        1 1T6      0.267000
     43 H40        -5.3120    6.7630    0.8900 ha        1 1T6      0.232000
     44 H41        -1.1660    0.9950    4.3510 ha        1 1T6      0.174000
     45 H42         1.6920    2.8170    3.2290 ha        1 1T6      0.165000
     46 H43         2.7550    2.1330    1.0540 ha        1 1T6      0.174000
     47 H44         1.8550    2.2290   -2.3280 hc        1 1T6      0.153500
     48 H45         0.3440    1.2570   -2.5530 hc        1 1T6      0.153500
     49 H46        -3.9540   -1.6470    2.0850 hc        1 1T6      0.109000
     50 H47        -6.6180    2.9630    2.0610 hc        1 1T6      0.110000
     51 H48        -4.9700    3.0710    2.8290 hc        1 1T6      0.110000
     52 H52         2.3920   -0.7670    0.4560 ha        1 1T6      0.133000
     53 H54        -1.1800    3.3690    1.0680 hc        1 1T6      0.157000
     54 H55        -3.3460    3.5750    0.5100 hc        1 1T6      0.121500
     55 H56        -3.2870    2.0800   -0.5140 hc        1 1T6      0.121500
     56 H59        -5.7390    3.4300   -0.8370 hc        1 1T6      0.095000
     57 H58        -5.4330    1.6900   -1.2610 hc        1 1T6      0.095000
     58 H57        -6.8870    2.1370   -0.2700 hc        1 1T6      0.095000
     59 H60        -8.9570    0.7320    2.5280 hn        1 1T6      0.172000
     60 H61        -4.6510    1.0760    3.4230 h1        1 1T6      0.125000
     61 H63        -6.0140   -2.2550    3.7110 ha        1 1T6      0.167000
     62 H64         2.0680    0.6800   -4.3330 ha        1 1T6      0.181000
     63 H65         4.6440   -3.2140   -4.3610 hn        1 1T6      0.242500
     64 H62        -8.1000   -3.0200    2.1040 hn        1 1T6      0.185000
     65 H343       -9.4490   -2.7040    3.0000 hn        1 1T6      0.185000
     66 H353        4.2390   -2.9520   -2.7140 hn        1 1T6      0.242500
     67 C26         3.4830   -1.5670   -4.0220 c2        1 1T6      0.349000
@<TRIPOS>BOND
     1    1    4 1   
     2    1    9 1   
     3    1   38 1   
     4    2   21 1   
     5    2   25 1   
     6    2   67 1   
     7    3    4 1   
     8    3    7 1   
     9    3   20 1   
    10    4   19 1   
    11    5    6 1   
    12    5   10 1   
    13    6   22 1   
    14    6   26 1   
    15    7   25 1   
    16    7   52 1   
    17    8   23 1   
    18    8   29 1   
    19    8   50 1   
    20    8   51 1   
    21    9   12 1   
    22    9   28 1   
    23    9   53 1   
    24   10   11 1   
    25   10   29 1   
    26   10   39 1   
    27   11   13 1   
    28   11   32 1   
    29   11   60 1   
    30   12   15 1   
    31   12   18 1   
    32   12   40 1   
    33   13   22 1   
    34   13   41 1   
    35   13   49 1   
    36   14   36 1   
    37   14   37 1   
    38   15   17 1   
    39   15   44 1   
    40   16   23 1   
    41   16   43 1   
    42   17   24 1   
    43   17   42 1   
    44   18   19 1   
    45   18   45 1   
    46   19   46 1   
    47   20   21 1   
    48   20   47 1   
    49   20   48 1   
    50   21   62 1   
    51   22   61 1   
    52   26   31 1   
    53   26   33 1   
    54   27   28 1   
    55   27   29 1   
    56   27   54 1   
    57   27   55 1   
    58   28   32 1   
    59   29   30 1   
    60   30   56 1   
    61   30   57 1   
    62   30   58 1   
    63   31   59 1   
    64   33   64 1   
    65   33   65 1   
    66   34   63 1   
    67   34   66 1   
    68   34   67 1   
    69   35   67 1   
@<TRIPOS>SUBSTRUCTURE
     1 1T6         1 TEMP              0 ****  ****    0 ROOT
