@<TRIPOS>MOLECULE
1T6
   67    69     1     0     0
SMALL
bcc


@<TRIPOS>ATOM
      1 C13        -0.4460    1.5220    0.2180 c2        1 1T6     -0.138000
      2 C18         2.9110   -0.8580   -2.8330 c2        1 1T6     -0.200000
      3 C17         1.6140    0.6370   -0.8200 c2        1 1T6     -0.018000
      4 C16         0.8980    1.3940    0.2070 c2        1 1T6     -0.078000
      5 C15        -6.5980    0.4770    1.5120 c1        1 1T6     -0.005000
      6 C19        -6.8570   -0.6840    2.3120 c2        1 1T6     -0.214000
      7 C20         2.3190   -0.4800   -0.5020 c2        1 1T6     -0.184000
      8 C21        -5.5320    3.2180    1.7190 c3        1 1T6     -0.049000
      9 C22        -1.1450    2.2510    1.3150 c3        1 1T6     -0.043000
     10 C23        -5.1890    0.7810    1.2210 c3        1 1T6     -0.180000
     11 C24        -4.2920    0.4950    2.4490 c3        1 1T6     -0.048000
     12 C11        -0.3800    2.1860    2.6560 c3        1 1T6     -0.114000
     13 C12        -4.4420   -0.9900    2.8250 c3        1 1T6     -0.156000
     14 C27         2.1100   -3.4360    1.7140 c1        1 1T6      0.460000
     15 C1         -0.6350    0.9270    3.4070 c2        1 1T6      0.317000
     16 C2         -5.3280    5.7360    0.9900 c1        1 1T6     -0.187000
     17 C3         -0.0900   -0.2950    3.0510 c2        1 1T6     -0.559000
     18 C4          1.0930    2.3530    2.4360 c2        1 1T6     -0.196000
     19 C5          1.6840    1.9750    1.2920 c2        1 1T6     -0.079000
     20 C6          1.5270    1.1150   -2.2240 c3        1 1T6     -0.160000
     21 C7          2.2430    0.2720   -3.2030 c2        1 1T6      0.004000
     22 C8         -5.8740   -1.3600    2.9570 c2        1 1T6     -0.010000
     23 C9         -5.4060    4.5840    1.3050 c1        1 1T6     -0.192000
     24 C10        -0.2260   -1.5190    3.6070 c1        1 1T6      0.585000
     25 C14         2.9440   -1.3130   -1.4840 c1        1 1T6     -0.073000
     26 C25        -8.3080   -1.0520    2.4540 c2        1 1T6      0.100000
     27 C28        -3.5010    2.4500    0.4260 c3        1 1T6     -0.175000
     28 C29        -2.5890    1.7930    1.4230 c2        1 1T6      0.014000
     29 C30        -4.9890    2.2110    0.6960 c3        1 1T6     -0.015000
     30 C31        -5.7590    2.3620   -0.6110 c3        1 1T6     -0.212000
     31 N32        -9.2720   -0.1870    2.4310 n2        1 1T6     -0.250000
     32 N33        -2.9140    0.9050    2.3010 n2        1 1T6     -0.249000
     33 N34        -8.5370   -2.4380    2.6890 n3        1 1T6     -0.325000
     34 N35         4.3010   -2.7660   -3.5060 n         1 1T6     -0.403000
     35 O36         3.5450   -1.3080   -5.0940 o         1 1T6     -0.391000
     36 O37         1.5000   -2.4600    2.0530 o         1 1T6     -0.225000
     37 O38         2.7090   -4.4000    1.3890 o         1 1T6     -0.225000
     38 H51        -1.0780    1.1290   -0.5940 ha        1 1T6      0.159000
     39 H53        -4.8940    0.0760    0.3800 hc        1 1T6      0.137000
     40 H49        -0.7530    3.0520    3.2840 hc        1 1T6      0.153000
     41 H50        -3.9060   -1.1970    3.7890 hc        1 1T6      0.109000
     42 H39         0.5760   -0.3240    2.1310 ha        1 1T6      0.267000
     43 H40        -5.2710    6.7590    0.7110 ha        1 1T6      0.232000
     44 H41        -1.2380    1.0110    4.3370 ha        1 1T6      0.174000
     45 H42         1.6550    2.8090    3.2660 ha        1 1T6      0.165000
     46 H43         2.7670    2.0970    1.1250 ha        1 1T6      0.174000
     47 H44         1.9530    2.1620   -2.2780 hc        1 1T6      0.153500
     48 H45         0.4440    1.1950   -2.5310 hc        1 1T6      0.153500
     49 H46        -3.9830   -1.6430    2.0330 hc        1 1T6      0.109000
     50 H47        -6.6230    2.9780    1.8910 hc        1 1T6      0.110000
     51 H48        -4.9940    3.0870    2.6990 hc        1 1T6      0.110000
     52 H52         2.4060   -0.8080    0.5480 ha        1 1T6      0.133000
     53 H54        -1.1610    3.3500    1.0290 hc        1 1T6      0.157000
     54 H55        -3.3110    3.5580    0.4150 hc        1 1T6      0.121500
     55 H56        -3.2340    2.0520   -0.5910 hc        1 1T6      0.121500
     56 H59        -5.6700    3.4080   -0.9890 hc        1 1T6      0.095000
     57 H58        -6.8390    2.1270   -0.4370 hc        1 1T6      0.095000
     58 H57        -5.3630    1.6620   -1.3860 hc        1 1T6      0.095000
     59 H60        -8.9830    0.7630    2.3260 hn        1 1T6      0.172000
     60 H61        -4.6990    1.0980    3.3220 h1        1 1T6      0.125000
     61 H63        -6.0850   -2.2230    3.6140 ha        1 1T6      0.167000
     62 H64         4.3210   -3.0330   -2.5530 hn        1 1T6      0.242500
     63 H65         4.7660   -3.3130   -4.1870 hn        1 1T6      0.242500
     64 H62        -8.1330   -2.9970    1.9660 hn        1 1T6      0.185000
     65 H343       -9.5030   -2.6650    2.8240 hn        1 1T6      0.185000
     66 H353        2.2080    0.5930   -4.2620 ha        1 1T6      0.181000
     67 C26         3.6050   -1.6570   -3.8930 c2        1 1T6      0.349000
@<TRIPOS>BOND
     1    1    4 1   
     2    1    9 1   
     3    1   38 1   
     4    2   21 1   
     5    2   25 1   
     6    2   67 1   
     7    3    4 1   
     8    3    7 1   
     9    3   20 1   
    10    4   19 1   
    11    5    6 1   
    12    5   10 1   
    13    6   22 1   
    14    6   26 1   
    15    7   25 1   
    16    7   52 1   
    17    8   23 1   
    18    8   29 1   
    19    8   50 1   
    20    8   51 1   
    21    9   12 1   
    22    9   28 1   
    23    9   53 1   
    24   10   11 1   
    25   10   29 1   
    26   10   39 1   
    27   11   13 1   
    28   11   32 1   
    29   11   60 1   
    30   12   15 1   
    31   12   18 1   
    32   12   40 1   
    33   13   22 1   
    34   13   41 1   
    35   13   49 1   
    36   14   36 1   
    37   14   37 1   
    38   15   17 1   
    39   15   44 1   
    40   16   23 1   
    41   16   43 1   
    42   17   24 1   
    43   17   42 1   
    44   18   19 1   
    45   18   45 1   
    46   19   46 1   
    47   20   21 1   
    48   20   47 1   
    49   20   48 1   
    50   21   66 1   
    51   22   61 1   
    52   26   31 1   
    53   26   33 1   
    54   27   28 1   
    55   27   29 1   
    56   27   54 1   
    57   27   55 1   
    58   28   32 1   
    59   29   30 1   
    60   30   56 1   
    61   30   57 1   
    62   30   58 1   
    63   31   59 1   
    64   33   64 1   
    65   33   65 1   
    66   34   62 1   
    67   34   63 1   
    68   34   67 1   
    69   35   67 1   
@<TRIPOS>SUBSTRUCTURE
     1 1T6         1 TEMP              0 ****  ****    0 ROOT
