@<TRIPOS>MOLECULE
1T7
   62    67     1     0     0
SMALL
bcc


@<TRIPOS>ATOM
      1 C1         -0.3110   -0.4580    0.2330 ca        1 1T7      0.038000
      2 C2          0.7110   -1.3090    0.6720 ca        1 1T7     -0.149000
      3 C3          0.9140   -1.5150    2.0350 ca        1 1T7     -0.088000
      4 C4          0.1020   -0.8810    2.9770 ca        1 1T7     -0.152000
      5 C5         -0.9220   -0.0350    2.5550 ca        1 1T7     -0.056000
      6 C6         -1.1290    0.1790    1.1890 ca        1 1T7     -0.158000
      7 C7         -0.8190   -3.4530   -6.9180 ca        1 1T7     -0.165300
      8 C8         -1.6850   -3.6050   -5.7790 ca        1 1T7      0.269600
      9 N9         -1.5040   -2.8720   -4.6540 nh        1 1T7     -0.731600
     10 C10        -0.4200   -1.8980   -4.5290 c3        1 1T7      0.303700
     11 C11        -0.0370   -1.3140   -5.8940 c3        1 1T7     -0.085400
     12 C12         0.2820   -2.4360   -6.8790 c3        1 1T7      0.029900
     13 C13        -1.9960   -5.2480   -8.0570 ca        1 1T7     -0.384900
     14 C14        -2.8700   -5.3820   -6.9660 ca        1 1T7     -0.038000
     15 C15        -2.7300   -4.5810   -5.8550 ca        1 1T7     -0.233000
     16 C16        -0.9790   -4.2770   -8.0160 ca        1 1T7     -0.017000
     17 C17        -2.0860   -6.1340   -9.2170 ce        1 1T7      0.624800
     18 N18        -3.4230   -5.9900   -9.9170 n4        1 1T7     -0.831600
     19 N19        -1.2680   -6.9610   -9.7450 n2        1 1T7     -0.742100
     20 C20         0.5890   -1.8630   -8.2290 ca        1 1T7     -0.093300
     21 C21        -0.7430   -0.8550   -3.5120 ce        1 1T7     -0.330200
     22 C22        -0.3500   -1.0970   -2.1620 cf        1 1T7      0.002000
     23 C23        -0.5790   -0.1980   -1.1690 cf        1 1T7     -0.210200
     24 C24        -1.1630    1.1490   -1.4420 c3        1 1T7      0.318500
     25 C25        -1.6750    1.2690   -2.8410 c2        1 1T7     -0.375200
     26 C26        -1.4400    0.3030   -3.8120 ce        1 1T7      0.052000
     27 C27         1.8680   -2.0180   -8.7750 ca        1 1T7     -0.129000
     28 C28         2.1750   -1.4650  -10.0170 ca        1 1T7     -0.128000
     29 C29         1.2080   -0.7500  -10.7250 ca        1 1T7     -0.121000
     30 C30        -0.0690   -0.5920  -10.1850 ca        1 1T7     -0.128000
     31 C31        -0.3780   -1.1450   -8.9440 ca        1 1T7     -0.129000
     32 N32        -2.4550    2.4550   -3.1200 n4        1 1T7     -0.641400
     33 C33        -2.2230    1.0460    0.7410 c2        1 1T7      0.456100
     34 O34        -2.2720    1.4790   -0.5610 os        1 1T7     -0.489900
     35 O35        -3.1780    1.4680    1.3990 o         1 1T7     -0.319000
     36 H36         1.3620   -1.8050   -0.0620 ha        1 1T7      0.136000
     37 H37         1.7230   -2.1820    2.3720 ha        1 1T7      0.138000
     38 H38         0.2670   -1.0490    4.0510 ha        1 1T7      0.144000
     39 H39        -1.5790    0.4660    3.2850 ha        1 1T7      0.158000
     40 H41         0.4810   -2.4860   -4.1550 h1        1 1T7      0.059700
     41 H42         0.8650   -0.6630   -5.7570 hc        1 1T7      0.065200
     42 H43        -0.8620   -0.6760   -6.3030 hc        1 1T7      0.065200
     43 H44         1.2040   -2.9740   -6.4990 hc        1 1T7      0.071700
     44 H45        -3.6580   -6.1510   -6.9760 ha        1 1T7      0.121000
     45 H46        -3.4170   -4.7060   -5.0030 ha        1 1T7      0.154000
     46 H47        -0.2960   -4.1620   -8.8760 ha        1 1T7      0.148000
     47 H48        -4.1600   -6.1120   -9.2160 hn        1 1T7      0.462133
     48 H50        -0.3850   -7.0900   -9.2960 hn        1 1T7      0.482400
     49 H51         0.1320   -2.0620   -1.9300 ha        1 1T7      0.123000
     50 H52        -0.3880    1.9490   -1.2310 h1        1 1T7      0.035700
     51 H53        -1.8140    0.4600   -4.8390 ha        1 1T7      0.101000
     52 H54         2.6410   -2.5710   -8.2190 ha        1 1T7      0.132500
     53 H55         3.1860   -1.5860  -10.4360 ha        1 1T7      0.139500
     54 H56         1.4540   -0.3080  -11.7020 ha        1 1T7      0.143000
     55 H57        -0.8300   -0.0210  -10.7370 ha        1 1T7      0.139500
     56 H58        -1.3830   -1.0120   -8.5190 ha        1 1T7      0.132500
     57 H60        -1.8460    3.2780   -3.1150 hn        1 1T7      0.433467
     58 H59        -2.9180    2.3790   -4.0240 hn        1 1T7      0.433467
     59 H49        -3.4770   -5.0410  -10.2970 hn        1 1T7      0.462133
     60 H183       -3.5460   -6.6720  -10.6730 hn        1 1T7      0.462133
     61 H323       -3.1570    2.5620   -2.3750 hn        1 1T7      0.433467
     62 H40        -2.1560   -2.9320   -3.9040 hn        1 1T7      0.455800
@<TRIPOS>BOND
     1    1    2 ar  
     2    1    6 ar  
     3    1   23 2   
     4    2    3 ar  
     5    2   36 1   
     6    3    4 ar  
     7    3   37 1   
     8    4    5 ar  
     9    4   38 1   
    10    5    6 ar  
    11    5   39 1   
    12    6   33 2   
    13    7    8 ar  
    14    7   12 1   
    15    7   16 ar  
    16    8    9 1   
    17    8   15 ar  
    18    9   10 1   
    19    9   62 1   
    20   10   11 1   
    21   10   21 1   
    22   10   40 1   
    23   11   12 1   
    24   11   41 1   
    25   11   42 1   
    26   12   20 1   
    27   12   43 1   
    28   13   14 ar  
    29   13   16 ar  
    30   13   17 1   
    31   14   15 ar  
    32   14   44 1   
    33   15   45 1   
    34   16   46 1   
    35   17   18 1   
    36   17   19 2   
    37   18   47 1   
    38   18   59 1   
    39   18   60 1   
    40   19   48 1   
    41   20   27 ar  
    42   20   31 ar  
    43   21   22 2   
    44   21   26 1   
    45   22   23 1   
    46   22   49 1   
    47   23   24 1   
    48   24   25 1   
    49   24   34 1   
    50   24   50 1   
    51   25   26 2   
    52   25   32 1   
    53   26   51 1   
    54   27   28 ar  
    55   27   52 1   
    56   28   29 ar  
    57   28   53 1   
    58   29   30 ar  
    59   29   54 1   
    60   30   31 ar  
    61   30   55 1   
    62   31   56 1   
    63   32   57 1   
    64   32   58 1   
    65   32   61 1   
    66   33   34 1   
    67   33   35 1   
@<TRIPOS>SUBSTRUCTURE
     1 1T7         1 TEMP              0 ****  ****    0 ROOT
