@<TRIPOS>MOLECULE
1T7
   61    65     1     0     0
SMALL
bcc


@<TRIPOS>ATOM
      1 C1         -1.8460    0.1670   -1.2580 cp        1 1T7      0.005000
      2 C2         -1.9180    0.0100    0.1350 ca        1 1T7     -0.123000
      3 C3         -3.1510   -0.0440    0.7800 ca        1 1T7     -0.110000
      4 C4         -4.3320    0.0640    0.0440 ca        1 1T7     -0.130000
      5 C5         -4.2770    0.2320   -1.3370 ca        1 1T7     -0.092000
      6 C6         -3.0390    0.2870   -1.9880 ca        1 1T7     -0.098600
      7 C7          0.1700   -3.6390   -6.4420 ca        1 1T7     -0.141300
      8 C8          0.5760   -3.9130   -5.1090 ca        1 1T7      0.169600
      9 N9          1.2800   -2.9770   -4.3460 nu        1 1T7     -0.724600
     10 C10         1.2820   -1.5770   -4.7410 c3        1 1T7      0.248800
     11 C11         0.3200   -1.2310   -5.8860 c3        1 1T7     -0.088400
     12 C12         0.3950   -2.2690   -7.0000 c3        1 1T7      0.033900
     13 C13        -0.6020   -5.9280   -6.6890 ca        1 1T7     -0.246900
     14 C14        -0.2350   -6.1970   -5.3670 ca        1 1T7     -0.059000
     15 C15         0.3420   -5.2080   -4.5830 ca        1 1T7     -0.199000
     16 C16        -0.3960   -4.6500   -7.2150 ca        1 1T7     -0.067000
     17 C17        -1.1930   -6.9930   -7.5560 ce        1 1T7      0.645800
     18 N18        -2.2310   -7.7320   -6.9440 nv        1 1T7     -0.893800
     19 N19        -0.7710   -7.2810   -8.7530 n2        1 1T7     -0.841100
     20 C20        -0.5640   -1.9070   -8.0930 ca        1 1T7     -0.077300
     21 C21         0.9980   -0.6490   -3.5790 ca        1 1T7     -0.077300
     22 C22        -0.2460   -0.6930   -2.9470 ca        1 1T7     -0.156000
     23 C23        -0.5320    0.1970   -1.9060 cp        1 1T7     -0.020000
     24 C24         0.4350    1.1080   -1.4760 ca        1 1T7     -0.166000
     25 C25         1.7060    1.1460   -2.0950 ca        1 1T7      0.140600
     26 C26         1.9710    0.2550   -3.1620 ca        1 1T7     -0.167000
     27 C27        -0.0840   -1.6410   -9.3810 ca        1 1T7     -0.126500
     28 C28        -0.9640   -1.2800  -10.4010 ca        1 1T7     -0.128500
     29 C29        -2.3310   -1.1830  -10.1450 ca        1 1T7     -0.127000
     30 C30        -2.8170   -1.4480   -8.8640 ca        1 1T7     -0.128500
     31 C31        -1.9390   -1.8080   -7.8430 ca        1 1T7     -0.126500
     32 N32         2.7080    1.9920   -1.6080 nv        1 1T7     -0.818200
     33 C33        -3.0330    0.5260   -3.4450 c         1 1T7      0.654700
     34 O34        -3.0820    1.5980   -4.0530 o         1 1T7     -0.532000
     35 O35        -3.0030   -0.6040   -4.2130 oh        1 1T7     -0.606100
     36 H36        -0.9860   -0.0760    0.7140 ha        1 1T7      0.146000
     37 H37        -3.1930   -0.1730    1.8720 ha        1 1T7      0.139000
     38 H38        -5.3060    0.0190    0.5530 ha        1 1T7      0.141000
     39 H39        -5.2050    0.3270   -1.9200 ha        1 1T7      0.145000
     40 H41         2.3380   -1.3800   -5.1100 h1        1 1T7      0.064700
     41 H42        -0.7310   -1.1670   -5.4980 hc        1 1T7      0.060200
     42 H43         0.5970   -0.2230   -6.2880 hc        1 1T7      0.060200
     43 H44         1.4450   -2.2530   -7.4220 hc        1 1T7      0.066700
     44 H45        -0.3970   -7.2010   -4.9440 ha        1 1T7      0.147000
     45 H46         0.6300   -5.4420   -3.5470 ha        1 1T7      0.136000
     46 H47        -0.6950   -4.4280   -8.2530 ha        1 1T7      0.145000
     47 H48        -3.0020   -0.3550   -5.1540 ho        1 1T7      0.444000
     48 H50         0.0290   -6.7590   -9.0370 hn        1 1T7      0.393400
     49 H51        -1.0150   -1.4110   -3.2760 ha        1 1T7      0.156000
     50 H52         0.1980    1.7970   -0.6520 ha        1 1T7      0.140000
     51 H53         2.9520    0.2710   -3.6620 ha        1 1T7      0.139000
     52 H54         0.9940   -1.7160   -9.5920 ha        1 1T7      0.133000
     53 H55        -0.5770   -1.0740  -11.4090 ha        1 1T7      0.132500
     54 H56        -3.0240   -0.8980  -10.9490 ha        1 1T7      0.133000
     55 H57        -3.8950   -1.3750   -8.6590 ha        1 1T7      0.132500
     56 H58        -2.3270   -2.0250   -6.8360 ha        1 1T7      0.133000
     57 H60         2.3690    2.7930   -1.1230 hn        1 1T7      0.392800
     58 H59         3.4240    2.2040   -2.2670 hn        1 1T7      0.392800
     59 H49        -2.8080   -7.1740   -6.3550 hn        1 1T7      0.394800
     60 H183       -2.7500   -8.3230   -7.5580 hn        1 1T7      0.394800
     61 H40         1.1960   -3.1150   -3.3590 hn        1 1T7      0.409800
@<TRIPOS>BOND
     1    1    2 ar  
     2    1    6 ar  
     3    1   23 1   
     4    2    3 ar  
     5    2   36 1   
     6    3    4 ar  
     7    3   37 1   
     8    4    5 ar  
     9    4   38 1   
    10    5    6 ar  
    11    5   39 1   
    12    6   33 1   
    13    7    8 ar  
    14    7   12 1   
    15    7   16 ar  
    16    8    9 1   
    17    8   15 ar  
    18    9   10 1   
    19    9   61 1   
    20   10   11 1   
    21   10   21 1   
    22   10   40 1   
    23   11   12 1   
    24   11   41 1   
    25   11   42 1   
    26   12   20 1   
    27   12   43 1   
    28   13   14 ar  
    29   13   16 ar  
    30   13   17 1   
    31   14   15 ar  
    32   14   44 1   
    33   15   45 1   
    34   16   46 1   
    35   17   18 1   
    36   17   19 2   
    37   18   59 1   
    38   18   60 1   
    39   19   48 1   
    40   20   27 ar  
    41   20   31 ar  
    42   21   22 ar  
    43   21   26 ar  
    44   22   23 ar  
    45   22   49 1   
    46   23   24 ar  
    47   24   25 ar  
    48   24   50 1   
    49   25   26 ar  
    50   25   32 1   
    51   26   51 1   
    52   27   28 ar  
    53   27   52 1   
    54   28   29 ar  
    55   28   53 1   
    56   29   30 ar  
    57   29   54 1   
    58   30   31 ar  
    59   30   55 1   
    60   31   56 1   
    61   32   57 1   
    62   32   58 1   
    63   33   34 2   
    64   33   35 1   
    65   35   47 1   
@<TRIPOS>SUBSTRUCTURE
     1 1T7         1 TEMP              0 ****  ****    0 ROOT
