@<TRIPOS>MOLECULE
1T7
   61    65     1     0     0
SMALL
bcc


@<TRIPOS>ATOM
      1 C1         -1.7220    0.2070   -1.2500 cp        1 1T7      0.005000
      2 C2         -1.7840    0.0550    0.1440 ca        1 1T7     -0.123000
      3 C3         -3.0100    0.0480    0.8040 ca        1 1T7     -0.110000
      4 C4         -4.1940    0.2000    0.0830 ca        1 1T7     -0.130000
      5 C5         -4.1490    0.3640   -1.3000 ca        1 1T7     -0.092000
      6 C6         -2.9190    0.3710   -1.9660 ca        1 1T7     -0.098600
      7 C7          0.0830   -3.6790   -6.4490 ca        1 1T7     -0.141300
      8 C8          0.4950   -3.9670   -5.1210 ca        1 1T7      0.169600
      9 N9          1.2450   -3.0570   -4.3690 nh        1 1T7     -0.724600
     10 C10         1.2960   -1.6580   -4.7670 c3        1 1T7      0.248800
     11 C11         0.3330   -1.2780   -5.9020 c3        1 1T7     -0.087400
     12 C12         0.3540   -2.3210   -7.0140 c3        1 1T7      0.033900
     13 C13        -0.7800   -5.9370   -6.6800 ca        1 1T7     -0.246900
     14 C14        -0.4070   -6.2180   -5.3620 ca        1 1T7     -0.059000
     15 C15         0.2180   -5.2510   -4.5890 ca        1 1T7     -0.199000
     16 C16        -0.5320   -4.6700   -7.2120 ca        1 1T7     -0.067000
     17 C17        -1.4240   -6.9810   -7.5360 ce        1 1T7      0.645800
     18 N18        -2.4820   -7.6770   -6.9100 nh        1 1T7     -0.893800
     19 N19        -1.0290   -7.2870   -8.7380 n2        1 1T7     -0.841100
     20 C20        -0.6040   -1.9240   -8.0960 ca        1 1T7     -0.077300
     21 C21         1.0610   -0.7190   -3.6040 ca        1 1T7     -0.077300
     22 C22        -0.1770   -0.7150   -2.9570 ca        1 1T7     -0.156000
     23 C23        -0.4160    0.1860   -1.9140 cp        1 1T7     -0.020000
     24 C24         0.5900    1.0610   -1.4980 ca        1 1T7     -0.166000
     25 C25         1.8530    1.0500   -2.1320 ca        1 1T7      0.140600
     26 C26         2.0720    0.1490   -3.2000 ca        1 1T7     -0.167000
     27 C27        -0.1290   -1.6790   -9.3900 ca        1 1T7     -0.126500
     28 C28        -1.0070   -1.2870  -10.4000 ca        1 1T7     -0.128500
     29 C29        -2.3660   -1.1360  -10.1270 ca        1 1T7     -0.127000
     30 C30        -2.8460   -1.3800   -8.8400 ca        1 1T7     -0.128500
     31 C31        -1.9700   -1.7710   -7.8290 ca        1 1T7     -0.126500
     32 N32         2.8920    1.8590   -1.6590 nh        1 1T7     -0.818200
     33 C33        -2.9210    0.6080   -3.4230 c         1 1T7      0.654700
     34 O34        -2.9440   -0.5230   -4.1900 oh        1 1T7     -0.606100
     35 O35        -2.9380    1.6800   -4.0320 o         1 1T7     -0.532000
     36 H36        -0.8480   -0.0660    0.7120 ha        1 1T7      0.146000
     37 H37        -3.0430   -0.0780    1.8970 ha        1 1T7      0.139000
     38 H38        -5.1630    0.1920    0.6030 ha        1 1T7      0.141000
     39 H39        -5.0810    0.4930   -1.8720 ha        1 1T7      0.145000
     40 H41         2.3530   -1.5020   -5.1490 h1        1 1T7      0.064700
     41 H42        -0.7100   -1.1730   -5.5000 hc        1 1T7      0.060200
     42 H43         0.6440   -0.2820   -6.3100 hc        1 1T7      0.060200
     43 H44         1.3990   -2.3460   -7.4480 hc        1 1T7      0.066700
     44 H45        -0.6020   -7.2140   -4.9350 ha        1 1T7      0.147000
     45 H46         0.5110   -5.4940   -3.5560 ha        1 1T7      0.136000
     46 H47        -0.8360   -4.4380   -8.2470 ha        1 1T7      0.145000
     47 H48        -3.0280   -7.0960   -6.3140 hn        1 1T7      0.394800
     48 H50        -0.2130   -6.7970   -9.0340 hn        1 1T7      0.393400
     49 H51        -0.9760   -1.4040   -3.2750 ha        1 1T7      0.156000
     50 H52         0.3880    1.7600   -0.6720 ha        1 1T7      0.140000
     51 H53         3.0460    0.1270   -3.7130 ha        1 1T7      0.139000
     52 H54         0.9420   -1.7970   -9.6140 ha        1 1T7      0.133000
     53 H55        -0.6250   -1.0980  -11.4140 ha        1 1T7      0.132500
     54 H56        -3.0580   -0.8260  -10.9240 ha        1 1T7      0.133000
     55 H57        -3.9180   -1.2640   -8.6220 ha        1 1T7      0.132500
     56 H58        -2.3540   -1.9700   -6.8160 ha        1 1T7      0.133000
     57 H60         3.6080    2.0420   -2.3270 hn        1 1T7      0.392800
     58 H59         2.5910    2.6730   -1.1710 hn        1 1T7      0.392800
     59 H49        -3.0310   -8.2490   -7.5150 hn        1 1T7      0.394800
     60 H183       -2.9440   -0.2760   -5.1300 ho        1 1T7      0.444000
     61 H40         1.1700   -3.1900   -3.3810 hn        1 1T7      0.409800
@<TRIPOS>BOND
     1    1    2 ar  
     2    1    6 ar  
     3    1   23 1   
     4    2    3 ar  
     5    2   36 1   
     6    3    4 ar  
     7    3   37 1   
     8    4    5 ar  
     9    4   38 1   
    10    5    6 ar  
    11    5   39 1   
    12    6   33 1   
    13    7    8 ar  
    14    7   12 1   
    15    7   16 ar  
    16    8    9 1   
    17    8   15 ar  
    18    9   10 1   
    19    9   61 1   
    20   10   11 1   
    21   10   21 1   
    22   10   40 1   
    23   11   12 1   
    24   11   41 1   
    25   11   42 1   
    26   12   20 1   
    27   12   43 1   
    28   13   14 ar  
    29   13   16 ar  
    30   13   17 1   
    31   14   15 ar  
    32   14   44 1   
    33   15   45 1   
    34   16   46 1   
    35   17   18 1   
    36   17   19 2   
    37   18   47 1   
    38   18   59 1   
    39   19   48 1   
    40   20   27 ar  
    41   20   31 ar  
    42   21   22 ar  
    43   21   26 ar  
    44   22   23 ar  
    45   22   49 1   
    46   23   24 ar  
    47   24   25 ar  
    48   24   50 1   
    49   25   26 ar  
    50   25   32 1   
    51   26   51 1   
    52   27   28 ar  
    53   27   52 1   
    54   28   29 ar  
    55   28   53 1   
    56   29   30 ar  
    57   29   54 1   
    58   30   31 ar  
    59   30   55 1   
    60   31   56 1   
    61   32   57 1   
    62   32   58 1   
    63   33   34 1   
    64   33   35 2   
    65   34   60 1   
@<TRIPOS>SUBSTRUCTURE
     1 1T7         1 TEMP              0 ****  ****    0 ROOT
