@<TRIPOS>MOLECULE
1T9
   84    81     1     0     0
SMALL
bcc


@<TRIPOS>ATOM
      1 CAI         1.9030    6.8930   -0.1760 c3        1 1T9     -0.158000
      2 CAJ         0.6930    6.0450   -0.5000 c3        1 1T9     -0.157000
      3 CAK         0.9870    5.1870   -1.7100 c3        1 1T9     -0.159000
      4 CAL        -0.3100    4.6610   -2.2840 c3        1 1T9     -0.156000
      5 CAM        -0.0280    3.4460   -3.1390 c3        1 1T9     -0.159000
      6 CAN        -1.3290    2.7420   -3.4600 c3        1 1T9     -0.155000
      7 CAO        -1.0460    1.3010   -3.8220 c3        1 1T9     -0.161000
      8 CAP        -2.3530    0.5680   -4.0300 c3        1 1T9     -0.148000
      9 CAQ        -2.2160   -0.8570   -3.5420 c3        1 1T9     -0.119000
     10 CAE        -3.1430   -1.0800   -2.3680 c2        1 1T9     -0.232000
     11 CAD        -3.3110   -2.3200   -1.8670 c1        1 1T9     -0.133000
     12 CAC        -2.5720   -3.4880   -2.4790 c2        1 1T9      0.047000
     13 OAR        -1.2170   -3.1490   -2.6500 oh        1 1T9     -0.382000
     14 CAB        -2.6800   -4.6870   -1.5640 c3        1 1T9     -0.043000
     15 CAA        -4.1370   -5.0500   -1.3780 c3        1 1T9      0.064000
     16 OBB        -4.2360   -6.3840   -0.9380 os        1 1T9     -0.732000
     17 PAX        -5.6740   -7.0170   -0.7690 p5        1 1T9      1.559500
     18 OAY        -6.7170   -5.9280   -0.8600 o         1 1T9     -0.908500
     19 OAZ        -5.9090   -8.0320   -1.8610 o         1 1T9     -0.908500
     20 OBA        -5.7710   -7.6940    0.5780 o         1 1T9     -0.908500
     21 NAW        -2.1050   -4.3740   -0.3040 n3        1 1T9     -0.347000
     22 CAU        -1.0020   -5.1240    0.1780 c1        1 1T9      0.284000
     23 OAV        -0.5440   -6.0300   -0.4900 o         1 1T9     -0.518000
     24 CAT        -0.3980   -4.8000    1.5270 c2        1 1T9     -0.179000
     25 CBC         0.8990   -5.5610    1.6950 c3        1 1T9     -0.148000
     26 CBD         1.2820   -5.5880    3.1590 c3        1 1T9     -0.158000
     27 CBE         2.7880   -5.6420    3.2850 c3        1 1T9     -0.157000
     28 CBF         3.1720   -5.6470    4.7490 c3        1 1T9     -0.158000
     29 CBG         4.6520   -5.3660    4.8830 c3        1 1T9     -0.160000
     30 CBH         4.9980   -5.1750    6.3430 c3        1 1T9     -0.207000
     31 H1          2.6450    6.3150    0.0910 hc        1 1T9      0.079500
     32 H2          2.1600    7.4090   -0.9670 hc        1 1T9      0.079500
     33 H4         -0.0710    6.6250   -0.6900 hc        1 1T9      0.075500
     34 H5          0.4840    5.4700    0.2640 hc        1 1T9      0.075500
     35 H6          1.4490    5.7230   -2.3850 hc        1 1T9      0.080500
     36 H7          1.5550    4.4350   -1.4470 hc        1 1T9      0.080500
     37 H8         -0.9130    4.4140   -1.5540 hc        1 1T9      0.073500
     38 H9         -0.7290    5.3550   -2.8320 hc        1 1T9      0.073500
     39 H10         0.5610    2.8350   -2.6530 hc        1 1T9      0.081500
     40 H11         0.4060    3.7250   -3.9700 hc        1 1T9      0.081500
     41 H12        -1.9180    2.7730   -2.6800 hc        1 1T9      0.069000
     42 H13        -1.7630    3.1890   -4.2150 hc        1 1T9      0.069000
     43 H14        -0.5460    0.8750   -3.0970 hc        1 1T9      0.087500
     44 H15        -0.5190    1.2680   -4.6450 hc        1 1T9      0.087500
     45 H16        -3.0630    1.0170   -3.5290 hc        1 1T9      0.060500
     46 H17        -2.5780    0.5660   -4.9820 hc        1 1T9      0.060500
     47 H18        -2.4510   -1.4740   -4.2650 hc        1 1T9      0.088500
     48 H19        -1.2920   -1.0190   -3.2630 hc        1 1T9      0.088500
     49 H20        -3.6200   -0.3260   -1.9730 ha        1 1T9      0.100000
     50 H21        -3.9090   -2.4630   -1.1090 ha        1 1T9      0.198000
     51 H22        -2.9660   -3.7040   -3.3470 h4        1 1T9      0.101000
     52 H23        -0.8920   -3.5720   -3.3620 ho        1 1T9      0.228000
     53 H24        -2.2040   -5.4430   -1.9610 h1        1 1T9      0.066000
     54 H25        -4.5380   -4.4560   -0.7110 h1        1 1T9      0.048000
     55 H26        -4.6090   -4.9510   -2.2310 h1        1 1T9      0.048000
     56 H29        -2.4490   -3.6950    0.1980 hn        1 1T9      0.340000
     57 H30        -1.0220   -5.0580    2.2340 ha        1 1T9      0.109500
     58 H31        -0.2210   -3.8390    1.5820 ha        1 1T9      0.109500
     59 H32         0.7840   -6.4770    1.3720 hc        1 1T9      0.086500
     60 H33         1.6050   -5.1200    1.1820 hc        1 1T9      0.086500
     61 H34         0.8900   -6.3770    3.5840 hc        1 1T9      0.076500
     62 H35         0.9460   -4.7810    3.5980 hc        1 1T9      0.076500
     63 H36         3.1800   -4.8590    2.8480 hc        1 1T9      0.075500
     64 H37         3.1220   -6.4550    2.8570 hc        1 1T9      0.075500
     65 H38         2.9700   -6.5230    5.1350 hc        1 1T9      0.076000
     66 H39         2.6640   -4.9570    5.2210 hc        1 1T9      0.076000
     67 H40         4.8760   -4.5540    4.3860 hc        1 1T9      0.075000
     68 H41         5.1610   -6.1200    4.5230 hc        1 1T9      0.075000
     69 H42         5.9370   -4.9040    6.4240 hc        1 1T9      0.063667
     70 H43         4.8590   -6.0170    6.8250 hc        1 1T9      0.063667
     71 H44         4.4230   -4.4810    6.7270 hc        1 1T9      0.063667
     72 C1          1.5670    7.8400    0.9550 c3        1 1T9     -0.157000
     73 C2          2.4450    9.0680    0.8620 c3        1 1T9     -0.158000
     74 C3          1.9040   10.1460    1.7760 c3        1 1T9     -0.159000
     75 C4          2.3470   11.5020    1.2740 c3        1 1T9     -0.209000
     76 H3          0.6280    8.1050    0.8910 hc        1 1T9      0.076000
     77 H45         1.7220    7.3920    1.8110 hc        1 1T9      0.076000
     78 H46         2.4520    9.3950   -0.0590 hc        1 1T9      0.079000
     79 H47         3.3570    8.8390    1.1340 hc        1 1T9      0.079000
     80 H48         0.9260   10.1050    1.7850 hc        1 1T9      0.076000
     81 H49         2.2440   10.0060    2.6820 hc        1 1T9      0.076000
     82 H50         3.3240   11.5680    1.3290 hc        1 1T9      0.069000
     83 H51         2.0650   11.6140    0.3420 hc        1 1T9      0.069000
     84 H52         1.9410   12.2030    1.8250 hc        1 1T9      0.069000
@<TRIPOS>BOND
     1    1    2 1   
     2    1   31 1   
     3    1   32 1   
     4    1   72 1   
     5    2    3 1   
     6    2   33 1   
     7    2   34 1   
     8    3    4 1   
     9    3   35 1   
    10    3   36 1   
    11    4    5 1   
    12    4   37 1   
    13    4   38 1   
    14    5    6 1   
    15    5   39 1   
    16    5   40 1   
    17    6    7 1   
    18    6   41 1   
    19    6   42 1   
    20    7    8 1   
    21    7   43 1   
    22    7   44 1   
    23    8    9 1   
    24    8   45 1   
    25    8   46 1   
    26    9   10 1   
    27    9   47 1   
    28    9   48 1   
    29   10   11 1   
    30   10   49 1   
    31   11   50 1   
    32   12   13 1   
    33   12   14 1   
    34   12   51 1   
    35   13   52 1   
    36   14   15 1   
    37   14   21 1   
    38   14   53 1   
    39   15   16 1   
    40   15   54 1   
    41   15   55 1   
    42   16   17 1   
    43   17   18 1   
    44   17   19 1   
    45   17   20 1   
    46   21   22 1   
    47   21   56 1   
    48   22   23 1   
    49   24   25 1   
    50   24   57 1   
    51   24   58 1   
    52   25   26 1   
    53   25   59 1   
    54   25   60 1   
    55   26   27 1   
    56   26   61 1   
    57   26   62 1   
    58   27   28 1   
    59   27   63 1   
    60   27   64 1   
    61   28   29 1   
    62   28   65 1   
    63   28   66 1   
    64   29   30 1   
    65   29   67 1   
    66   29   68 1   
    67   30   69 1   
    68   30   70 1   
    69   30   71 1   
    70   72   73 1   
    71   72   76 1   
    72   72   77 1   
    73   73   74 1   
    74   73   78 1   
    75   73   79 1   
    76   74   75 1   
    77   74   80 1   
    78   74   81 1   
    79   75   82 1   
    80   75   83 1   
    81   75   84 1   
@<TRIPOS>SUBSTRUCTURE
     1 1T9         1 TEMP              0 ****  ****    0 ROOT
