@<TRIPOS>MOLECULE
1T9
   84    83     1     0     0
SMALL
bcc


@<TRIPOS>ATOM
      1 CAI        11.5960    1.1870    0.1760 c3        1 1T9     -0.078400
      2 CAJ        10.2530    1.5630   -0.4120 c3        1 1T9     -0.079400
      3 CAK         9.1150    1.1100    0.4770 c3        1 1T9     -0.078400
      4 CAL         7.7730    1.4880   -0.1110 c3        1 1T9     -0.079400
      5 CAM         6.6340    1.0350    0.7780 c3        1 1T9     -0.078400
      6 CAN         5.2920    1.4120    0.1890 c3        1 1T9     -0.079400
      7 CAO         4.1520    0.9590    1.0770 c3        1 1T9     -0.079400
      8 CAP         2.8100    1.3350    0.4870 c3        1 1T9     -0.076400
      9 CAQ         1.6690    0.8820    1.3770 c3        1 1T9     -0.030200
     10 CAE         0.3540    1.2630    0.8070 c2        1 1T9     -0.232200
     11 CAD        -0.6630    0.4090    0.6660 c2        1 1T9     -0.123200
     12 CAC        -2.0100    0.7720    0.1280 c3        1 1T9      0.173300
     13 OAR        -1.9110    1.9900   -0.5960 oh        1 1T9     -0.647800
     14 CAB        -2.5630   -0.3920   -0.7500 c3        1 1T9      0.035700
     15 CAA        -3.5400    0.1650   -1.8410 c3        1 1T9      0.200400
     16 OBB        -4.5210    0.9430   -1.2800 os        1 1T9     -0.579200
     17 PAX        -6.1180    0.2560   -1.3480 p5        1 1T9      1.333900
     18 OAY        -5.9630   -0.8710   -0.3380 o         1 1T9     -0.915833
     19 OAZ        -6.9820    1.4020   -0.9280 o         1 1T9     -0.915833
     20 OBA        -6.1830   -0.2170   -2.7690 o         1 1T9     -0.915833
     21 NAW        -3.2520   -1.3670    0.0630 n         1 1T9     -0.544900
     22 CAU        -2.7100   -2.5320    0.4890 c         1 1T9      0.641100
     23 OAV        -1.4790   -2.8120    0.4080 o         1 1T9     -0.740100
     24 CAT        -3.6470   -3.5270    1.1690 c3        1 1T9     -0.131400
     25 CBC        -4.8720   -3.8330    0.3390 c3        1 1T9     -0.123400
     26 CBD        -5.7260   -4.8910    1.0060 c3        1 1T9     -0.060400
     27 CBE        -6.9880   -5.1390    0.2080 c3        1 1T9     -0.087400
     28 CBF        -7.8860   -6.1490    0.8890 c3        1 1T9     -0.074400
     29 CBG        -9.1460   -6.3940    0.0860 c3        1 1T9     -0.084400
     30 CBH       -10.0540   -7.3900    0.7610 c3        1 1T9     -0.087100
     31 H1         11.7050    1.6510    1.1920 hc        1 1T9      0.038200
     32 H2         11.6460    0.0740    0.3150 hc        1 1T9      0.038200
     33 H4         10.2020    2.6760   -0.5510 hc        1 1T9      0.038700
     34 H5         10.1440    1.0990   -1.4280 hc        1 1T9      0.038700
     35 H6          9.1650   -0.0020    0.6150 hc        1 1T9      0.037700
     36 H7          9.2240    1.5740    1.4930 hc        1 1T9      0.037700
     37 H8          7.7210    2.6000   -0.2500 hc        1 1T9      0.038700
     38 H9          7.6630    1.0240   -1.1270 hc        1 1T9      0.038700
     39 H10         6.6840   -0.0780    0.9150 hc        1 1T9      0.036200
     40 H11         6.7430    1.4980    1.7940 hc        1 1T9      0.036200
     41 H12         5.2400    2.5240    0.0510 hc        1 1T9      0.038700
     42 H13         5.1820    0.9480   -0.8260 hc        1 1T9      0.038700
     43 H14         4.2020   -0.1530    1.2150 hc        1 1T9      0.033700
     44 H15         4.2610    1.4230    2.0930 hc        1 1T9      0.033700
     45 H16         2.7580    2.4470    0.3450 hc        1 1T9      0.041700
     46 H17         2.6980    0.8680   -0.5270 hc        1 1T9      0.041700
     47 H18         1.7310   -0.2300    1.5240 hc        1 1T9      0.029200
     48 H19         1.7830    1.3550    2.3910 hc        1 1T9      0.029200
     49 H20         0.2540    2.3140    0.4950 ha        1 1T9      0.126000
     50 H21        -0.5800   -0.6580    0.9500 ha        1 1T9      0.148000
     51 H22        -2.7090    0.9430    1.0010 h1        1 1T9      0.056700
     52 H23        -2.8180    2.2070   -0.8740 ho        1 1T9      0.454000
     53 H24        -1.6920   -0.8810   -1.2740 h1        1 1T9      0.035700
     54 H25        -2.9050    0.7860   -2.5400 h1        1 1T9      0.014700
     55 H26        -3.9840   -0.6910   -2.4250 h1        1 1T9      0.014700
     56 H29        -4.2870   -1.2220    0.0810 hn        1 1T9      0.417500
     57 H30        -3.0620   -4.4630    1.3650 hc        1 1T9      0.035200
     58 H31        -3.9560   -3.1010    2.1590 hc        1 1T9      0.035200
     59 H32        -5.4910   -2.8930    0.1770 hc        1 1T9      0.103200
     60 H33        -4.5580   -4.1910   -0.6760 hc        1 1T9      0.103200
     61 H34        -5.1500   -5.8480    1.1130 hc        1 1T9      0.012200
     62 H35        -5.9990   -4.5530    2.0410 hc        1 1T9      0.012200
     63 H36        -7.5340   -4.1670    0.0730 hc        1 1T9      0.059700
     64 H37        -6.7160   -5.5070   -0.8170 hc        1 1T9      0.059700
     65 H38        -7.3350   -7.1170    1.0270 hc        1 1T9      0.023700
     66 H39        -8.1610   -5.7770    1.9110 hc        1 1T9      0.023700
     67 H40        -9.6890   -5.4230   -0.0550 hc        1 1T9      0.044200
     68 H41        -8.8700   -6.7680   -0.9350 hc        1 1T9      0.044200
     69 H42       -10.3610   -7.0220    1.7700 hc        1 1T9      0.019700
     70 H43       -10.9750   -7.5560    0.1520 hc        1 1T9      0.019700
     71 H44        -9.5360   -8.3720    0.8910 hc        1 1T9      0.019700
     72 C1         12.7330    1.6390   -0.7130 c3        1 1T9     -0.079400
     73 C2         14.0760    1.2630   -0.1250 c3        1 1T9     -0.079400
     74 C3         15.2150    1.7150   -1.0140 c3        1 1T9     -0.080400
     75 C4         16.5540    1.3430   -0.4320 c3        1 1T9     -0.091100
     76 H3         12.6240    1.1750   -1.7290 hc        1 1T9      0.039200
     77 H45        12.6820    2.7520   -0.8520 hc        1 1T9      0.039200
     78 H46        14.1850    1.7280    0.8910 hc        1 1T9      0.038200
     79 H47        14.1270    0.1510    0.0140 hc        1 1T9      0.038200
     80 H48        15.1030    1.2500   -2.0290 hc        1 1T9      0.038200
     81 H49        15.1610    2.8270   -1.1530 hc        1 1T9      0.038200
     82 H50        16.6940    1.8170    0.5700 hc        1 1T9      0.030033
     83 H51        16.6360    0.2350   -0.3090 hc        1 1T9      0.030033
     84 H52        17.3780    1.6850   -1.1030 hc        1 1T9      0.030033
@<TRIPOS>BOND
     1    1    2 1   
     2    1   31 1   
     3    1   32 1   
     4    1   72 1   
     5    2    3 1   
     6    2   33 1   
     7    2   34 1   
     8    3    4 1   
     9    3   35 1   
    10    3   36 1   
    11    4    5 1   
    12    4   37 1   
    13    4   38 1   
    14    5    6 1   
    15    5   39 1   
    16    5   40 1   
    17    6    7 1   
    18    6   41 1   
    19    6   42 1   
    20    7    8 1   
    21    7   43 1   
    22    7   44 1   
    23    8    9 1   
    24    8   45 1   
    25    8   46 1   
    26    9   10 1   
    27    9   47 1   
    28    9   48 1   
    29   10   11 2   
    30   10   49 1   
    31   11   12 1   
    32   11   50 1   
    33   12   13 1   
    34   12   14 1   
    35   12   51 1   
    36   13   52 1   
    37   14   15 1   
    38   14   21 1   
    39   14   53 1   
    40   15   16 1   
    41   15   54 1   
    42   15   55 1   
    43   16   17 1   
    44   17   18 1   
    45   17   19 1   
    46   17   20 1   
    47   21   22 1   
    48   21   56 1   
    49   22   23 2   
    50   22   24 1   
    51   24   25 1   
    52   24   57 1   
    53   24   58 1   
    54   25   26 1   
    55   25   59 1   
    56   25   60 1   
    57   26   27 1   
    58   26   61 1   
    59   26   62 1   
    60   27   28 1   
    61   27   63 1   
    62   27   64 1   
    63   28   29 1   
    64   28   65 1   
    65   28   66 1   
    66   29   30 1   
    67   29   67 1   
    68   29   68 1   
    69   30   69 1   
    70   30   70 1   
    71   30   71 1   
    72   72   73 1   
    73   72   76 1   
    74   72   77 1   
    75   73   74 1   
    76   73   78 1   
    77   73   79 1   
    78   74   75 1   
    79   74   80 1   
    80   74   81 1   
    81   75   82 1   
    82   75   83 1   
    83   75   84 1   
@<TRIPOS>SUBSTRUCTURE
     1 1T9         1 TEMP              0 ****  ****    0 ROOT
