@<TRIPOS>MOLECULE
1T9
   85    77     1     0     0
SMALL
bcc


@<TRIPOS>ATOM
      1 CAI         0.0610   -0.5030   -1.2010 c3        1 1T9     -0.294000
      2 CAJ         0.6870    0.2590   -0.1270 c1        1 1T9     -0.081000
      3 CAK         1.2970   -0.4460    0.9890 c3        1 1T9     -0.222000
      4 CAL         2.6040    0.2020    1.4140 c3        1 1T9     -0.133000
      5 CAM         3.1480   -0.4550    2.6640 c3        1 1T9     -0.161000
      6 CAN         4.4720    0.1550    3.0720 c3        1 1T9     -0.158000
      7 CAO         5.0150   -0.5010    4.3240 c3        1 1T9     -0.155000
      8 CAP         6.3460    0.0960    4.7250 c3        1 1T9     -0.166000
      9 CAQ         6.8860   -0.5600    5.9780 c3        1 1T9     -0.133000
     10 CAE         8.2190    0.0410    6.3790 c3        1 1T9     -0.260000
     11 CAD         8.7040   -0.4560    7.6470 c1        1 1T9     -0.092000
     12 CAC        12.1840    0.0210    6.8400 c1        1 1T9     -0.086000
     13 OAR        12.1640    0.5210    8.0200 oh        1 1T9     -0.167000
     14 CAB        16.3160    4.8820    3.7230 c1        1 1T9     -0.364000
     15 CAA        15.5250    4.3840    4.4710 c1        1 1T9      0.048000
     16 OBB        14.5680    3.8790    5.1940 os        1 1T9     -0.575000
     17 PAX        14.9530    3.2180    6.7000 p5        1 1T9      1.926000
     18 OAY        13.7240    2.4400    7.0020 o         1 1T9     -0.822500
     19 OAZ        16.3210    2.7000    6.7160 o         1 1T9     -0.822500
     20 OBA        14.8730    4.6110    7.5480 os        1 1T9     -0.735000
     21 NAW        10.7170    2.4950    6.4240 n         1 1T9     -0.430000
     22 CAU         9.8560    3.5280    6.2740 c2        1 1T9      0.252000
     23 OAV         8.6150    3.3650    6.2130 o         1 1T9     -0.447000
     24 CAT        13.6160    5.1890    7.7440 c3        1 1T9      0.042000
     25 CBC        13.5460    6.5520    7.0640 c3        1 1T9     -0.189000
     26 CBD        12.2060    7.2050    7.3160 c3        1 1T9     -0.154000
     27 CBE        12.1190    8.5580    6.6430 c3        1 1T9     -0.157000
     28 CBF        10.7770    9.2130    6.8930 c3        1 1T9     -0.159000
     29 CBG        10.6900   10.5660    6.2200 c3        1 1T9     -0.159000
     30 CBH         9.3560   11.2220    6.4660 c3        1 1T9     -0.209000
     31 H1         -1.2430   -1.6990    1.2780 ha        1 1T9      0.002250
     32 H2         -1.8890   -1.8730    1.1680 ha        1 1T9      0.002250
     33 H4         -1.2410    1.1940    1.2180 ha        1 1T9      0.002250
     34 H5         -1.5170    0.6030    1.0300 ha        1 1T9      0.002250
     35 H6          1.4600   -1.5470    0.8150 hc        1 1T9      0.100500
     36 H7          0.5540   -0.3600    1.8390 hc        1 1T9      0.100500
     37 H8          3.3520    0.1090    0.5840 hc        1 1T9      0.091000
     38 H9          2.4380    1.2960    1.5940 hc        1 1T9      0.091000
     39 H10         2.4090   -0.3410    3.5010 hc        1 1T9      0.075500
     40 H11         3.2800   -1.5550    2.4880 hc        1 1T9      0.075500
     41 H12         4.3430    1.2550    3.2500 hc        1 1T9      0.082500
     42 H13         5.2120    0.0400    2.2360 hc        1 1T9      0.082500
     43 H14         5.1350   -1.6030    4.1490 hc        1 1T9      0.074500
     44 H15         4.2800   -0.3780    5.1620 hc        1 1T9      0.074500
     45 H16         6.2300    1.1990    4.9000 hc        1 1T9      0.084500
     46 H17         7.0820   -0.0280    3.8880 hc        1 1T9      0.084500
     47 H18         6.1540   -0.4380    6.8190 hc        1 1T9      0.079500
     48 H19         7.0100   -1.6610    5.8060 hc        1 1T9      0.079500
     49 H20         8.9600   -0.0960    5.5400 hc        1 1T9      0.135500
     50 H21         8.0980    1.1680    6.5050 hc        1 1T9      0.135500
     51 H22         9.7670   -0.2480    7.8620 ha        1 1T9      0.072000
     52 H23        12.9300    1.0840    8.2780 ho        1 1T9      0.213000
     53 H24        13.0700    0.2200    6.1970 ha        1 1T9      0.032000
     54 H25        17.0560    5.2980    3.1010 ha        1 1T9      0.218000
     55 H26        12.8100    4.5110    7.3450 h1        1 1T9      0.065500
     56 H29        10.3830    1.5630    6.5220 hn        1 1T9      0.249500
     57 H30        10.3280    4.5360    6.2000 h5        1 1T9      0.115000
     58 H31        13.4660    5.3210    8.8540 h1        1 1T9      0.065500
     59 H32        13.7140    6.4270    5.9620 hc        1 1T9      0.092500
     60 H33        14.3740    7.1990    7.4540 hc        1 1T9      0.092500
     61 H34        11.3860    6.5410    6.9320 hc        1 1T9      0.073000
     62 H35        12.0440    7.3230    8.4200 hc        1 1T9      0.073000
     63 H36        12.9390    9.2200    7.0260 hc        1 1T9      0.079000
     64 H37        12.2790    8.4380    5.5390 hc        1 1T9      0.079000
     65 H38         9.9580    8.5490    6.5100 hc        1 1T9      0.078000
     66 H39        10.6170    9.3320    7.9970 hc        1 1T9      0.078000
     67 H40        10.8520   10.4440    5.1170 hc        1 1T9      0.076000
     68 H41        11.5110   11.2270    6.6030 hc        1 1T9      0.076000
     69 H42         9.1870   11.3740    7.5600 hc        1 1T9      0.068667
     70 H43         8.5260   10.5870    6.0700 hc        1 1T9      0.068667
     71 H44         9.3120   12.2170    5.9610 hc        1 1T9      0.068667
     72 C1         -0.8820    0.2030   -2.0730 c1        1 1T9     -0.011000
     73 C2         -0.9860    1.6580   -1.9550 c3        1 1T9     -0.119000
     74 C3         -1.8660    2.2560   -2.9160 c1        1 1T9     -0.139000
     75 C4         -2.5960    2.7660   -3.7140 c1        1 1T9     -0.228000
     76 H3          0.8930   -0.8590   -1.8920 hc        1 1T9      0.154500
     77 H45        -0.4500   -1.4480   -0.8420 hc        1 1T9      0.154500
     78 H46        -2.6800   -0.4560   -0.5280 ha        1 1T9      0.002250
     79 H47        -2.9880   -0.4240   -1.1320 ha        1 1T9      0.002250
     80 H48        -1.3350    1.9170   -0.9060 hc        1 1T9      0.143500
     81 H49         0.0460    2.1200   -2.0440 hc        1 1T9      0.143500
     82 H50        -3.2420    3.2180   -4.4210 ha        1 1T9      0.217000
     83 H51        -5.1240   -0.9900   -1.1870 ha        1 1T9      0.002250
     84 H52        -5.7700   -1.1370   -1.3250 ha        1 1T9      0.002250
     85 HAW2       11.7010    2.6340    6.5230 hn        1 1T9      0.249500
@<TRIPOS>BOND
     1    1    2 1   
     2    1   72 1   
     3    1   76 1   
     4    1   77 1   
     5    2    3 1   
     6    3    4 1   
     7    3   35 1   
     8    3   36 1   
     9    4    5 1   
    10    4   37 1   
    11    4   38 1   
    12    5    6 1   
    13    5   39 1   
    14    5   40 1   
    15    6    7 1   
    16    6   41 1   
    17    6   42 1   
    18    7    8 1   
    19    7   43 1   
    20    7   44 1   
    21    8    9 1   
    22    8   45 1   
    23    8   46 1   
    24    9   10 1   
    25    9   47 1   
    26    9   48 1   
    27   10   11 1   
    28   10   49 1   
    29   10   50 1   
    30   11   51 1   
    31   12   13 1   
    32   12   53 1   
    33   13   52 1   
    34   14   15 1   
    35   14   54 1   
    36   15   16 1   
    37   16   17 1   
    38   17   18 1   
    39   17   19 1   
    40   17   20 1   
    41   20   24 1   
    42   21   22 1   
    43   21   56 1   
    44   21   85 1   
    45   22   23 1   
    46   22   57 1   
    47   24   25 1   
    48   24   55 1   
    49   24   58 1   
    50   25   26 1   
    51   25   59 1   
    52   25   60 1   
    53   26   27 1   
    54   26   61 1   
    55   26   62 1   
    56   27   28 1   
    57   27   63 1   
    58   27   64 1   
    59   28   29 1   
    60   28   65 1   
    61   28   66 1   
    62   29   30 1   
    63   29   67 1   
    64   29   68 1   
    65   30   69 1   
    66   30   70 1   
    67   30   71 1   
    68   31   32 1   
    69   33   34 1   
    70   72   73 1   
    71   73   74 1   
    72   73   80 1   
    73   73   81 1   
    74   74   75 1   
    75   75   82 1   
    76   78   79 1   
    77   83   84 1   
@<TRIPOS>SUBSTRUCTURE
     1 1T9         1 TEMP              0 ****  ****    0 ROOT
