@<TRIPOS>MOLECULE
1TB
   45    45     1     0     0
SMALL
bcc


@<TRIPOS>ATOM
      1 C4          0.8740    0.7910   -0.0310 ca        1 1TB     -0.135000
      2 C5          2.1790    0.3120    0.0450 ca        1 1TB      0.001000
      3 C6          2.6600   -0.2070    1.2570 ca        1 1TB     -0.103000
      4 C1          1.8350   -0.2580    2.3710 ca        1 1TB      0.019400
      5 C2          0.4750    0.1510    2.3030 ca        1 1TB     -0.512500
      6 C3          0.0410    0.7170    1.0810 ca        1 1TB      0.045000
      7 C11         2.4270   -0.6690    3.6700 c         1 1TB      0.632700
      8 O12         3.3110   -1.6870    3.5880 os        1 1TB     -0.393900
      9 C13         3.9220   -2.1160    4.8190 c3        1 1TB      0.121700
     10 O11         2.2010   -0.1300    4.7620 o         1 1TB     -0.569000
     11 S7         -0.6040   -0.0340    3.4600 s4        1 1TB      1.651300
     12 N8         -0.0650    1.6600    4.8910 n         1 1TB     -0.710000
     13 C9         -0.2550    2.9790    4.2780 c         1 1TB      0.746100
     14 O7A        -1.8730    0.3740    3.1930 o         1 1TB     -0.425400
     15 O7B        -0.3590   -0.9980    4.3880 o         1 1TB     -0.425400
     16 O9         -0.3510    2.9760    3.0370 o         1 1TB     -0.561100
     17 N10        -0.2650    4.1200    5.0670 n         1 1TB     -0.437300
     18 C2'        -0.7680    5.3450    4.4930 ca        1 1TB      0.786900
     19 N1'         0.0130    6.4720    4.6340 nb        1 1TB     -0.753000
     20 C6'        -0.5090    7.6100    4.0690 ca        1 1TB      0.732300
     21 N5'        -1.7040    7.6780    3.4050 nb        1 1TB     -0.773000
     22 C4'        -2.3960    6.4900    3.3370 ca        1 1TB      0.899300
     23 N3'        -1.9900    5.2780    3.8640 nb        1 1TB     -0.730000
     24 C10         0.0050    4.0820    6.4810 c3        1 1TB      0.067300
     25 O4'        -3.6110    6.4050    2.7100 os        1 1TB     -0.399100
     26 C5'        -4.1500    7.6110    2.1480 c3        1 1TB      0.119700
     27 C7'         0.2920    8.8820    4.1910 c3        1 1TB     -0.148400
     28 H4          0.4950    1.2330   -0.9690 ha        1 1TB      0.182000
     29 H5          2.8420    0.3480   -0.8370 ha        1 1TB      0.177000
     30 H6          3.7020   -0.5710    1.3290 ha        1 1TB      0.187000
     31 H3         -0.9920    1.1190    1.0130 ha        1 1TB      0.191000
     32 H131        4.5740   -2.9630    4.4890 h1        1 1TB      0.073700
     33 H132        4.5150   -1.2760    5.2530 h1        1 1TB      0.073700
     34 H133        3.1320   -2.4510    5.5330 h1        1 1TB      0.073700
     35 HN8        -0.6320    1.5500    5.7190 hn        1 1TB      0.322500
     36 H101        0.0710    5.1250    6.8930 h1        1 1TB      0.069033
     37 H102       -0.8120    3.5340    7.0260 h1        1 1TB      0.069033
     38 H103        0.9890    3.5710    6.6640 h1        1 1TB      0.069033
     39 H5'1       -3.4790    8.0020    1.3470 h1        1 1TB      0.067367
     40 H5'2       -5.1240    7.2550    1.7230 h1        1 1TB      0.067367
     41 H5'3       -4.3120    8.3760    2.9440 h1        1 1TB      0.067367
     42 H7'1        1.3010    8.6870    4.6300 hc        1 1TB      0.080367
     43 H7'2        0.4170    9.3480    3.1820 hc        1 1TB      0.080367
     44 H7'3       -0.2600    9.5980    4.8510 hc        1 1TB      0.080367
     45 H82         0.9080    1.5200    5.1440 hn        1 1TB      0.322500
@<TRIPOS>BOND
     1    1    2 ar  
     2    1    6 ar  
     3    1   28 1   
     4    2    3 ar  
     5    2   29 1   
     6    3    4 ar  
     7    3   30 1   
     8    4    5 ar  
     9    4    7 1   
    10    5    6 ar  
    11    5   11 1   
    12    6   31 1   
    13    7    8 1   
    14    7   10 2   
    15    8    9 1   
    16    9   32 1   
    17    9   33 1   
    18    9   34 1   
    19   11   14 1   
    20   11   15 1   
    21   12   13 1   
    22   12   35 1   
    23   12   45 1   
    24   13   16 2   
    25   13   17 1   
    26   17   18 1   
    27   17   24 1   
    28   18   19 ar  
    29   18   23 ar  
    30   19   20 ar  
    31   20   21 ar  
    32   20   27 1   
    33   21   22 ar  
    34   22   23 ar  
    35   22   25 1   
    36   24   36 1   
    37   24   37 1   
    38   24   38 1   
    39   25   26 1   
    40   26   39 1   
    41   26   40 1   
    42   26   41 1   
    43   27   42 1   
    44   27   43 1   
    45   27   44 1   
@<TRIPOS>SUBSTRUCTURE
     1 1TB         1 TEMP              0 ****  ****    0 ROOT
