@<TRIPOS>MOLECULE
1TB
   44    45     1     0     0
SMALL
bcc


@<TRIPOS>ATOM
      1 C4         -3.2160   -2.4470    2.3740 ca        1 1TB     -0.129000
      2 C5         -3.9840   -1.4140    2.9010 ca        1 1TB     -0.076000
      3 C6         -4.0650   -0.1940    2.2250 ca        1 1TB     -0.112000
      4 C1         -3.3720   -0.0120    1.0270 ca        1 1TB     -0.007600
      5 C2         -2.6150   -1.0540    0.4630 ca        1 1TB     -0.330500
      6 C3         -2.5430   -2.2640    1.1650 ca        1 1TB     -0.020000
      7 C11        -3.4390    1.3250    0.3930 c         1 1TB      0.644700
      8 O12        -4.6990    1.8440    0.3470 os        1 1TB     -0.414900
      9 C13        -4.8440    3.1140   -0.2980 c3        1 1TB      0.123700
     10 O11        -2.5050    2.0130   -0.0330 o         1 1TB     -0.560000
     11 S7         -1.8300   -0.9860   -1.0490 sy        1 1TB      1.514900
     12 N8         -0.5740    0.0390   -0.7600 n         1 1TB     -0.658300
     13 C9          0.5530   -0.1710    0.0450 c         1 1TB      0.830100
     14 O7A        -1.4120   -2.2740   -1.3970 o         1 1TB     -0.628300
     15 O7B        -2.6760   -0.3340   -1.9660 o         1 1TB     -0.628300
     16 O9          0.7240   -1.2560    0.6270 o         1 1TB     -0.552100
     17 N10         1.4740    0.9260    0.1930 n         1 1TB     -0.463300
     18 C2'         2.8580    0.6510    0.1330 ca        1 1TB      0.816900
     19 N1'         3.7270    1.5060    0.8050 nb        1 1TB     -0.793000
     20 C6'         5.0540    1.2210    0.6610 ca        1 1TB      0.725300
     21 N5'         5.5690    0.1840   -0.0700 nb        1 1TB     -0.812000
     22 C4'         4.6190   -0.5930   -0.6940 ca        1 1TB      0.895300
     23 N3'         3.2560   -0.4270   -0.6450 nb        1 1TB     -0.746000
     24 C10         1.0030    2.1380    0.8120 c3        1 1TB      0.083300
     25 O4'         4.9840   -1.6660   -1.4760 os        1 1TB     -0.405100
     26 C5'         6.3820   -1.9500   -1.5820 c3        1 1TB      0.123700
     27 C7'         6.0420    2.1160    1.3730 c3        1 1TB     -0.141400
     28 H4         -3.1380   -3.4090    2.9030 ha        1 1TB      0.150000
     29 H5         -4.5290   -1.5510    3.8490 ha        1 1TB      0.146000
     30 H6         -4.6780    0.6270    2.6310 ha        1 1TB      0.156000
     31 H3         -1.9370   -3.0930    0.7480 ha        1 1TB      0.180000
     32 H131       -4.4830    3.0480   -1.3530 h1        1 1TB      0.058033
     33 H132       -5.9450    3.3030   -0.2500 h1        1 1TB      0.058033
     34 H133       -4.2680    3.8900    0.2610 h1        1 1TB      0.058033
     35 HN8        -0.6520    0.9600   -1.1530 hn        1 1TB      0.359500
     36 H101       -0.1050    2.2420    0.6600 h1        1 1TB      0.060033
     37 H102        1.2220    2.1400    1.9150 h1        1 1TB      0.060033
     38 H103        1.5170    3.0190    0.3420 h1        1 1TB      0.060033
     39 H5'1        6.9230   -1.0970   -2.0550 h1        1 1TB      0.056367
     40 H5'2        6.8140   -2.1880   -0.5810 h1        1 1TB      0.056367
     41 H5'3        6.3920   -2.8520   -2.2480 h1        1 1TB      0.056367
     42 H7'1        6.6260    1.5080    2.1070 hc        1 1TB      0.067700
     43 H7'2        6.7470    2.5580    0.6260 hc        1 1TB      0.067700
     44 H7'3        5.5230    2.9420    1.9160 hc        1 1TB      0.067700
@<TRIPOS>BOND
     1    1    2 ar  
     2    1    6 ar  
     3    1   28 1   
     4    2    3 ar  
     5    2   29 1   
     6    3    4 ar  
     7    3   30 1   
     8    4    5 ar  
     9    4    7 1   
    10    5    6 ar  
    11    5   11 1   
    12    6   31 1   
    13    7    8 1   
    14    7   10 2   
    15    8    9 1   
    16    9   32 1   
    17    9   33 1   
    18    9   34 1   
    19   11   12 1   
    20   11   14 2   
    21   11   15 2   
    22   12   13 1   
    23   12   35 1   
    24   13   16 2   
    25   13   17 1   
    26   17   18 1   
    27   17   24 1   
    28   18   19 ar  
    29   18   23 ar  
    30   19   20 ar  
    31   20   21 ar  
    32   20   27 1   
    33   21   22 ar  
    34   22   23 ar  
    35   22   25 1   
    36   24   36 1   
    37   24   37 1   
    38   24   38 1   
    39   25   26 1   
    40   26   39 1   
    41   26   40 1   
    42   26   41 1   
    43   27   42 1   
    44   27   43 1   
    45   27   44 1   
@<TRIPOS>SUBSTRUCTURE
     1 1TB         1 TEMP              0 ****  ****    0 ROOT
