@<TRIPOS>MOLECULE
1TB
   46    47     1     0     0
SMALL
bcc


@<TRIPOS>ATOM
      1 C4         -0.5330   -2.8720    0.0240 ca        1 1TB     -0.082000
      2 C5          0.7080   -3.0430   -0.5640 ca        1 1TB     -0.049000
      3 C6          1.8670   -2.5090    0.0470 ca        1 1TB      0.006000
      4 C1          1.7200   -1.8220    1.2320 ca        1 1TB     -0.099000
      5 C2          0.4450   -1.6300    1.8660 ca        1 1TB     -0.884000
      6 C3         -0.6670   -2.1660    1.2410 ca        1 1TB      0.057000
      7 C11         2.7700   -1.1990    2.0380 c2        1 1TB      0.515200
      8 O12         4.0470   -1.1980    1.7680 os        1 1TB     -0.229900
      9 C13         4.9690   -0.5520    2.6990 c3        1 1TB      0.120700
     10 O11         2.3370   -0.6040    3.1210 os        1 1TB     -0.390800
     11 S7          0.5230   -0.8080    3.2980 s6        1 1TB      2.074700
     12 N8         -0.9200    3.2430    4.5890 n         1 1TB     -0.588000
     13 C9          0.0250    3.8240    5.3690 c         1 1TB      0.659100
     14 O7A         0.0960    0.4870    3.2600 o         1 1TB     -0.533200
     15 O7B         0.4490   -1.5620    4.4190 o         1 1TB     -0.576800
     16 O9          1.2020    3.4680    5.5130 o         1 1TB     -0.514100
     17 N10        -0.3600    4.9950    6.2980 n4        1 1TB     -0.570900
     18 C2'        -0.6100    6.2610    5.5330 ca        1 1TB      0.783900
     19 N1'        -0.0300    7.3880    6.0370 nb        1 1TB     -0.743000
     20 C6'        -0.2940    8.5440    5.3150 ca        1 1TB      0.769300
     21 N5'        -1.0660    8.5850    4.1940 nb        1 1TB     -0.736000
     22 C4'        -1.5970    7.3780    3.7870 ca        1 1TB      0.929300
     23 N3'        -1.4030    6.1570    4.4230 nb        1 1TB     -0.774000
     24 C10        -1.5240    4.6760    7.1600 c3        1 1TB      0.090100
     25 O4'        -2.3850    7.2680    2.6840 os        1 1TB     -0.393100
     26 C5'        -2.6880    8.4750    1.9540 c3        1 1TB      0.118700
     27 C7'         0.3120    9.8240    5.8280 c3        1 1TB     -0.159400
     28 H4         -1.4390   -3.2930   -0.4530 ha        1 1TB      0.194000
     29 H5          0.8090   -3.6000   -1.5150 ha        1 1TB      0.196000
     30 H6          2.8590   -2.6480   -0.4200 ha        1 1TB      0.195000
     31 H3         -1.6770   -2.0580    1.6790 ha        1 1TB      0.173000
     32 H131        5.9550   -0.7350    2.1970 h1        1 1TB      0.104700
     33 H132        4.7150    0.5320    2.7640 h1        1 1TB      0.104700
     34 H133        4.8930   -1.0570    3.6910 h1        1 1TB      0.104700
     35 HN8        -1.7970    3.6750    4.3990 hn        1 1TB      0.370500
     36 H101       -1.6610    5.4990    7.9150 hx        1 1TB      0.113700
     37 H102       -1.3190    3.7070    7.6920 hx        1 1TB      0.113700
     38 H103       -2.4580    4.5830    6.5440 hx        1 1TB      0.113700
     39 H5'1       -3.2370    9.1940    2.6060 h1        1 1TB      0.082367
     40 H5'2       -3.3460    8.0820    1.1340 h1        1 1TB      0.082367
     41 H5'3       -1.7530    8.9250    1.5470 h1        1 1TB      0.082367
     42 H7'1       -0.1950   10.1080    6.7860 hc        1 1TB      0.098700
     43 H7'2        1.4040    9.6770    6.0290 hc        1 1TB      0.098700
     44 H7'3        0.1840   10.6550    5.0900 hc        1 1TB      0.098700
     45 H82        -0.5950    2.5330    3.9600 hn        1 1TB      0.370500
     46 H104        0.4750    5.1470    6.9010 hn        1 1TB      0.500800
@<TRIPOS>BOND
     1    1    2 ar  
     2    1    6 ar  
     3    1   28 1   
     4    2    3 ar  
     5    2   29 1   
     6    3    4 ar  
     7    3   30 1   
     8    4    5 ar  
     9    4    7 2   
    10    5    6 ar  
    11    5   11 2   
    12    6   31 1   
    13    7    8 1   
    14    7   10 1   
    15    8    9 1   
    16    9   32 1   
    17    9   33 1   
    18    9   34 1   
    19   10   11 1   
    20   11   14 1   
    21   11   15 2   
    22   12   13 1   
    23   12   35 1   
    24   12   45 1   
    25   13   16 2   
    26   13   17 1   
    27   17   18 1   
    28   17   24 1   
    29   17   46 1   
    30   18   19 ar  
    31   18   23 ar  
    32   19   20 ar  
    33   20   21 ar  
    34   20   27 1   
    35   21   22 ar  
    36   22   23 ar  
    37   22   25 1   
    38   24   36 1   
    39   24   37 1   
    40   24   38 1   
    41   25   26 1   
    42   26   39 1   
    43   26   40 1   
    44   26   41 1   
    45   27   42 1   
    46   27   43 1   
    47   27   44 1   
@<TRIPOS>SUBSTRUCTURE
     1 1TB         1 TEMP              0 ****  ****    0 ROOT
