@<TRIPOS>MOLECULE
1TB
   45    46     1     0     0
SMALL
bcc


@<TRIPOS>ATOM
      1 C4          0.9910    0.4840   -0.0420 ca        1 1TB     -0.129000
      2 C5          2.2320   -0.1310    0.0870 ca        1 1TB     -0.015000
      3 C6          2.6720   -0.5520    1.3510 ca        1 1TB     -0.098000
      4 C1          1.8660   -0.3670    2.4670 ca        1 1TB      0.002400
      5 C2          0.5700    0.1960    2.3540 ca        1 1TB     -0.463500
      6 C3          0.1750    0.6460    1.0770 ca        1 1TB      0.028000
      7 C11         2.4230   -0.7090    3.8000 c         1 1TB      0.642700
      8 O12         3.1780   -1.8270    3.8300 os        1 1TB     -0.387900
      9 C13         3.7400   -2.1990    5.1020 c3        1 1TB      0.121700
     10 O11         2.2800   -0.0340    4.8320 o         1 1TB     -0.592000
     11 S7         -0.5360    0.2630    3.5400 sy        1 1TB      1.475200
     12 N8          0.1220    1.7670    4.5730 ny        1 1TB     -0.582700
     13 C9         -0.1430    3.1240    4.0000 c         1 1TB      0.679100
     14 O7A        -1.7870    0.6760    3.1470 o         1 1TB     -0.556300
     15 O7B        -0.4180   -0.7220    4.4980 o         1 1TB     -0.556300
     16 O9         -0.3080    3.1470    2.7730 o         1 1TB     -0.512100
     17 N10        -0.1030    4.2240    4.8390 n         1 1TB     -0.423300
     18 C2'        -0.7190    5.4470    4.3630 ca        1 1TB      0.778900
     19 N1'         0.0250    6.6010    4.4670 nb        1 1TB     -0.747000
     20 C6'        -0.6020    7.7310    3.9960 ca        1 1TB      0.736300
     21 N5'        -1.8590    7.7620    3.4590 nb        1 1TB     -0.768000
     22 C4'        -2.5040    6.5460    3.4170 ca        1 1TB      0.904300
     23 N3'        -1.9920    5.3380    3.8590 nb        1 1TB     -0.733000
     24 C10         0.2460    4.1360    6.2340 c3        1 1TB      0.059300
     25 O4'        -3.7710    6.4230    2.9160 os        1 1TB     -0.395100
     26 C5'        -4.4110    7.6160    2.4360 c3        1 1TB      0.119700
     27 C7'         0.1550    9.0330    4.0760 c3        1 1TB     -0.149400
     28 H4          0.6440    0.8430   -1.0270 ha        1 1TB      0.179000
     29 H5          2.8770   -0.2840   -0.7960 ha        1 1TB      0.175000
     30 H6          3.6620   -1.0300    1.4620 ha        1 1TB      0.184000
     31 H3         -0.8110    1.1420    0.9610 ha        1 1TB      0.190000
     32 H131        4.4300   -1.3960    5.4550 h1        1 1TB      0.073367
     33 H132        2.9190   -2.3660    5.8390 h1        1 1TB      0.073367
     34 H133        4.2860   -3.1460    4.8630 h1        1 1TB      0.073367
     35 HN8        -0.2780    1.6890    5.5080 hn        1 1TB      0.468800
     36 H101        1.2310    3.6060    6.3440 h1        1 1TB      0.074700
     37 H102       -0.5480    3.5920    6.8150 h1        1 1TB      0.074700
     38 H103        0.3580    5.1680    6.6640 h1        1 1TB      0.074700
     39 H5'1       -4.5280    8.3560    3.2620 h1        1 1TB      0.069367
     40 H5'2       -5.4060    7.2250    2.0980 h1        1 1TB      0.069367
     41 H5'3       -3.8380    8.0510    1.5830 h1        1 1TB      0.069367
     42 H7'1        0.2380    9.4780    3.0530 hc        1 1TB      0.082367
     43 H7'2       -0.4050    9.7440    4.7340 hc        1 1TB      0.082367
     44 H7'3        1.1820    8.8830    4.4920 hc        1 1TB      0.082367
     45 H82         1.1380    1.6580    4.6800 hn        1 1TB      0.468800
@<TRIPOS>BOND
     1    1    2 ar  
     2    1    6 ar  
     3    1   28 1   
     4    2    3 ar  
     5    2   29 1   
     6    3    4 ar  
     7    3   30 1   
     8    4    5 ar  
     9    4    7 1   
    10    5    6 ar  
    11    5   11 1   
    12    6   31 1   
    13    7    8 1   
    14    7   10 2   
    15    8    9 1   
    16    9   32 1   
    17    9   33 1   
    18    9   34 1   
    19   11   12 1   
    20   11   14 2   
    21   11   15 2   
    22   12   13 1   
    23   12   35 1   
    24   12   45 1   
    25   13   16 2   
    26   13   17 1   
    27   17   18 1   
    28   17   24 1   
    29   18   19 ar  
    30   18   23 ar  
    31   19   20 ar  
    32   20   21 ar  
    33   20   27 1   
    34   21   22 ar  
    35   22   23 ar  
    36   22   25 1   
    37   24   36 1   
    38   24   37 1   
    39   24   38 1   
    40   25   26 1   
    41   26   39 1   
    42   26   40 1   
    43   26   41 1   
    44   27   42 1   
    45   27   43 1   
    46   27   44 1   
@<TRIPOS>SUBSTRUCTURE
     1 1TB         1 TEMP              0 ****  ****    0 ROOT
