@<TRIPOS>MOLECULE
1TB
   44    39     1     0     0
SMALL
bcc


@<TRIPOS>ATOM
      1 C4          0.4210    4.5110    3.1370 c1        1 1TB     -0.085250
      2 C5          1.2660    5.4540    2.5560 c1        1 1TB     -0.085250
      3 C6          2.2230    5.0560    1.6330 c1        1 1TB     -0.085250
      4 C1          2.3390    3.7110    1.2840 c1        1 1TB      0.013000
      5 C2          1.4940    2.7670    1.8630 c1        1 1TB     -0.768000
      6 C3          0.5320    3.1720    2.7940 c1        1 1TB     -0.085250
      7 C11         3.4290    3.2700    0.3190 c2        1 1TB      0.343000
      8 O12         4.6510    2.8220    0.8110 os        1 1TB     -0.258000
      9 C13         5.7420    3.0960   -0.0290 c3        1 1TB     -0.065000
     10 O11         3.2330    3.3180   -0.9060 o         1 1TB     -0.360000
     11 S7          1.5760    1.0040    1.3350 s4        1 1TB      2.070800
     12 N8          0.0170    0.3730    1.1630 n2        1 1TB     -0.826000
     13 C9         -0.2520   -0.6440    0.1520 c2        1 1TB      0.460000
     14 O7A         2.3520    0.8480    0.0990 o         1 1TB     -0.518900
     15 O7B         2.3710    0.2090    2.2730 o         1 1TB     -0.518900
     16 O9          0.4610   -0.7220   -0.8460 o         1 1TB     -0.354000
     17 N10        -1.4390   -1.4750    0.2590 n         1 1TB     -0.267000
     18 C2'        -1.7790   -2.3890   -0.8050 c2        1 1TB      0.207000
     19 N1'        -1.1730   -3.5750   -0.8820 n2        1 1TB     -0.279000
     20 C6'        -1.5390   -4.4620   -1.8310 c1        1 1TB      0.116000
     21 N5'        -2.5160   -4.1500   -2.6990 n1        1 1TB     -0.282000
     22 C4'        -3.1300   -2.9480   -2.6210 c1        1 1TB      0.199000
     23 N3'        -2.7640   -2.0740   -1.6800 n1        1 1TB     -0.240000
     24 C10        -2.2580   -1.4190    1.4390 c3        1 1TB     -0.065000
     25 O4'        -4.0200   -2.5460   -3.6440 os        1 1TB     -0.168000
     26 C5'        -5.2040   -3.3860   -3.7550 c3        1 1TB     -0.066000
     27 C7'        -0.9270   -5.8860   -1.8330 c3        1 1TB     -0.169000
     28 H4         -0.2240    4.7820    3.7600 ha        1 1TB      0.157000
     29 H5          1.1850    6.4010    2.8010 ha        1 1TB      0.157000
     30 H6          2.8400    5.7460    1.2110 ha        1 1TB      0.157000
     31 H3         -0.0850    2.4860    3.2190 ha        1 1TB      0.157000
     32 H131        6.0910    4.0370    0.1610 h1        1 1TB      0.096333
     33 H132        6.4720    2.4260    0.1440 h1        1 1TB      0.096333
     34 H133        5.4440    3.0320   -1.0040 h1        1 1TB      0.096333
     35 HN8        -0.6480    0.6260    1.7520 hn        1 1TB      0.282000
     36 H101       -1.7440   -1.7020    2.2030 h1        1 1TB      0.103333
     37 H102       -2.5770   -0.4790    1.5830 h1        1 1TB      0.103333
     38 H103       -3.0520   -2.0290    1.3250 h1        1 1TB      0.103333
     39 H5'1       -5.5110   -3.6460   -2.8510 h1        1 1TB      0.097000
     40 H5'2       -5.9080   -2.8940   -4.2060 h1        1 1TB      0.097000
     41 H5'3       -4.9930   -4.1700   -4.2560 h1        1 1TB      0.097000
     42 H7'1       -1.6400   -6.5470   -1.7420 hc        1 1TB      0.111667
     43 H7'2       -0.4750   -6.0260   -2.6290 hc        1 1TB      0.111667
     44 H7'3       -0.2790   -5.9770   -1.0560 hc        1 1TB      0.111667
@<TRIPOS>BOND
     1    1    6 1   
     2    1   28 1   
     3    2    3 1   
     4    2   29 1   
     5    3   30 1   
     6    4    5 1   
     7    4    7 1   
     8    5   11 1   
     9    6   31 1   
    10    7    8 1   
    11    7   10 1   
    12    8    9 1   
    13    9   32 1   
    14    9   33 1   
    15    9   34 1   
    16   11   14 1   
    17   11   15 1   
    18   12   13 1   
    19   12   35 1   
    20   13   16 1   
    21   13   17 1   
    22   17   18 1   
    23   17   24 1   
    24   18   19 1   
    25   18   23 1   
    26   19   20 1   
    27   20   27 1   
    28   21   22 1   
    29   22   25 1   
    30   24   36 1   
    31   24   37 1   
    32   24   38 1   
    33   25   26 1   
    34   26   39 1   
    35   26   40 1   
    36   26   41 1   
    37   27   42 1   
    38   27   43 1   
    39   27   44 1   
@<TRIPOS>SUBSTRUCTURE
     1 1TB         1 TEMP              0 ****  ****    0 ROOT
