@<TRIPOS>MOLECULE
1TD
   30    32     1     0     0
SMALL
bcc


@<TRIPOS>ATOM
      1 C1          0.4610   -0.0560   -0.1450 ca        1 1TD     -0.166000
      2 C2          1.8400   -0.0050    0.0170 ca        1 1TD     -0.110000
      3 C3         -4.2120   -1.5060    1.6030 ca        1 1TD     -0.172000
      4 C4         -0.3990   -0.0700    0.9640 ca        1 1TD     -0.076000
      5 C5         -3.0200   -1.2940    2.2900 ca        1 1TD     -0.131000
      6 C6         -5.3200   -0.6950    1.8510 ca        1 1TD     -0.084000
      7 C7          2.4230    0.0440    1.2900 ca        1 1TD     -0.181000
      8 C8         -4.0570    0.5290    3.5030 ca        1 1TD     -0.073000
      9 C9          0.1420   -0.0400    2.2350 ca        1 1TD     -0.072800
     10 C10        -2.9310   -0.2680    3.2440 ca        1 1TD     -0.141800
     11 C11        -5.2480    0.3270    2.8010 ca        1 1TD     -0.133600
     12 C12         1.5770    0.0310    2.3940 ca        1 1TD      0.047600
     13 C13        -0.4550   -0.0140    3.5710 cc        1 1TD     -0.174400
     14 C14         0.7080    0.1120    4.5240 c         1 1TD      0.703700
     15 C15        -1.7230   -0.0580    4.0150 cf        1 1TD      0.057800
     16 C16        -6.4600    1.2100    3.0750 c         1 1TD      0.909200
     17 N17         1.9000    0.0770    3.7610 ns        1 1TD     -0.484100
     18 O18        -6.3460    2.1080    3.9540 o         1 1TD     -0.824800
     19 O19         0.7010    0.2040    5.7590 o         1 1TD     -0.625500
     20 O20        -7.5080    0.9880    2.4060 o         1 1TD     -0.824800
     21 H1          0.0290   -0.0820   -1.1550 ha        1 1TD      0.128000
     22 H2          2.4950    0.0020   -0.8670 ha        1 1TD      0.120000
     23 H4         -1.4910   -0.0960    0.8200 ha        1 1TD      0.163000
     24 H6         -6.2720   -0.8420    1.3140 ha        1 1TD      0.156000
     25 H7          3.5130    0.0950    1.4040 ha        1 1TD      0.127000
     26 H8         -4.0250    1.3350    4.2560 ha        1 1TD      0.159000
     27 H9         -1.8890    0.0810    5.1040 ha        1 1TD      0.146000
     28 H10         2.7990    0.2770    4.1100 hn        1 1TD      0.326500
     29 H3         -4.2770   -2.3170    0.8640 ha        1 1TD      0.111000
     30 H5         -2.1490   -1.9380    2.1010 ha        1 1TD      0.117000
@<TRIPOS>BOND
     1    1    2 ar  
     2    1    4 ar  
     3    1   21 1   
     4    2    7 ar  
     5    2   22 1   
     6    3    5 ar  
     7    3    6 ar  
     8    3   29 1   
     9    4    9 ar  
    10    4   23 1   
    11    5   10 ar  
    12    5   30 1   
    13    6   11 ar  
    14    6   24 1   
    15    7   12 ar  
    16    7   25 1   
    17    8   10 ar  
    18    8   11 ar  
    19    8   26 1   
    20    9   12 ar  
    21    9   13 1   
    22   10   15 1   
    23   11   16 1   
    24   12   17 1   
    25   13   14 1   
    26   13   15 2   
    27   14   17 1   
    28   14   19 2   
    29   15   27 1   
    30   16   18 1   
    31   16   20 1   
    32   17   28 1   
@<TRIPOS>SUBSTRUCTURE
     1 1TD         1 TEMP              0 ****  ****    0 ROOT
