@<TRIPOS>MOLECULE
1TD
   30    32     1     0     0
SMALL
bcc


@<TRIPOS>ATOM
      1 C1          0.4620   -0.0680   -0.1450 ca        1 1TD     -0.166000
      2 C2          1.8410   -0.0200    0.0170 ca        1 1TD     -0.110000
      3 C3         -4.2150   -1.5030    1.6060 ca        1 1TD     -0.172000
      4 C4         -0.3990   -0.0770    0.9640 ca        1 1TD     -0.077000
      5 C5         -3.0230   -1.2910    2.2930 ca        1 1TD     -0.131000
      6 C6         -5.3210   -0.6890    1.8530 ca        1 1TD     -0.084000
      7 C7          2.4230    0.0330    1.2910 ca        1 1TD     -0.181000
      8 C8         -4.0560    0.5370    3.5010 ca        1 1TD     -0.073000
      9 C9          0.1420   -0.0440    2.2350 ca        1 1TD     -0.072800
     10 C10        -2.9320   -0.2630    3.2440 ca        1 1TD     -0.141800
     11 C11        -5.2470    0.3360    2.8000 ca        1 1TD     -0.133600
     12 C12         1.5770    0.0250    2.3950 ca        1 1TD      0.047600
     13 C13        -0.4550   -0.0120    3.5710 cc        1 1TD     -0.174400
     14 C14         0.7080    0.1140    4.5240 c         1 1TD      0.703700
     15 C15        -1.7230   -0.0530    4.0150 cf        1 1TD      0.057800
     16 C16        -6.4580    1.2210    3.0710 c         1 1TD      0.909200
     17 N17         1.9000    0.0740    3.7610 n         1 1TD     -0.484100
     18 O18        -6.3420    2.1220    3.9470 o         1 1TD     -0.824800
     19 O19         0.7000    0.2100    5.7580 o         1 1TD     -0.625500
     20 O20        -7.5060    1.0000    2.4020 o         1 1TD     -0.824800
     21 H1          0.0290   -0.0970   -1.1550 ha        1 1TD      0.128000
     22 H2          2.4960   -0.0170   -0.8660 ha        1 1TD      0.120000
     23 H4         -1.4910   -0.1010    0.8200 ha        1 1TD      0.163000
     24 H6         -6.2730   -0.8360    1.3160 ha        1 1TD      0.156000
     25 H7          3.5130    0.0810    1.4040 ha        1 1TD      0.127000
     26 H8         -4.0230    1.3450    4.2510 ha        1 1TD      0.159000
     27 H9         -1.8890    0.0910    5.1040 ha        1 1TD      0.146000
     28 H10         2.7990    0.2730    4.1090 hn        1 1TD      0.326500
     29 H3         -4.2820   -2.3160    0.8700 ha        1 1TD      0.111000
     30 H5         -2.1520   -1.9370    2.1070 ha        1 1TD      0.117000
@<TRIPOS>BOND
     1    1    2 ar  
     2    1    4 ar  
     3    1   21 1   
     4    2    7 ar  
     5    2   22 1   
     6    3    5 ar  
     7    3    6 ar  
     8    3   29 1   
     9    4    9 ar  
    10    4   23 1   
    11    5   10 ar  
    12    5   30 1   
    13    6   11 ar  
    14    6   24 1   
    15    7   12 ar  
    16    7   25 1   
    17    8   10 ar  
    18    8   11 ar  
    19    8   26 1   
    20    9   12 ar  
    21    9   13 1   
    22   10   15 1   
    23   11   16 1   
    24   12   17 1   
    25   13   14 1   
    26   13   15 2   
    27   14   17 1   
    28   14   19 2   
    29   15   27 1   
    30   16   18 1   
    31   16   20 1   
    32   17   28 1   
@<TRIPOS>SUBSTRUCTURE
     1 1TD         1 TEMP              0 ****  ****    0 ROOT
