@<TRIPOS>MOLECULE
1TD
   30    32     1     0     0
SMALL
bcc


@<TRIPOS>ATOM
      1 C1          0.4590   -0.0760   -0.1460 ca        1 1TD     -0.166000
      2 C2          1.8390   -0.0290    0.0140 ca        1 1TD     -0.110000
      3 C3         -4.2180   -1.5000    1.6110 ca        1 1TD     -0.172000
      4 C4         -0.4000   -0.0820    0.9630 ca        1 1TD     -0.076000
      5 C5         -3.0250   -1.2890    2.2970 ca        1 1TD     -0.131000
      6 C6         -5.3230   -0.6830    1.8570 ca        1 1TD     -0.084000
      7 C7          2.4220    0.0240    1.2870 ca        1 1TD     -0.181000
      8 C8         -4.0540    0.5440    3.5020 ca        1 1TD     -0.073000
      9 C9          0.1420   -0.0480    2.2330 ca        1 1TD     -0.072800
     10 C10        -2.9320   -0.2600    3.2460 ca        1 1TD     -0.141800
     11 C11        -5.2450    0.3440    2.8020 ca        1 1TD     -0.133600
     12 C12         1.5770    0.0190    2.3920 ca        1 1TD      0.047600
     13 C13        -0.4530   -0.0130    3.5710 cc        1 1TD     -0.174400
     14 C14         0.7100    0.1120    4.5210 c         1 1TD      0.703700
     15 C15        -1.7210   -0.0510    4.0150 cf        1 1TD      0.057800
     16 C16        -6.4550    1.2320    3.0730 c         1 1TD      0.909200
     17 N17         1.9020    0.0690    3.7580 n         1 1TD     -0.484100
     18 O18        -6.3360    2.1350    3.9470 o         1 1TD     -0.824800
     19 O19         0.7040    0.2100    5.7560 o         1 1TD     -0.625500
     20 O20        -7.5030    1.0120    2.4050 o         1 1TD     -0.824800
     21 H1          0.0260   -0.1050   -1.1560 ha        1 1TD      0.128000
     22 H2          2.4930   -0.0280   -0.8700 ha        1 1TD      0.120000
     23 H4         -1.4930   -0.1040    0.8200 ha        1 1TD      0.163000
     24 H6         -6.2750   -0.8280    1.3210 ha        1 1TD      0.156000
     25 H7          3.5120    0.0710    1.3990 ha        1 1TD      0.127000
     26 H8         -4.0180    1.3530    4.2510 ha        1 1TD      0.159000
     27 H9         -1.8870    0.0940    5.1040 ha        1 1TD      0.146000
     28 H10         2.8010    0.2670    4.1050 hn        1 1TD      0.326500
     29 H3         -4.2870   -2.3140    0.8760 ha        1 1TD      0.111000
     30 H5         -2.1570   -1.9380    2.1110 ha        1 1TD      0.117000
@<TRIPOS>BOND
     1    1    2 ar  
     2    1    4 ar  
     3    1   21 1   
     4    2    7 ar  
     5    2   22 1   
     6    3    5 ar  
     7    3    6 ar  
     8    3   29 1   
     9    4    9 ar  
    10    4   23 1   
    11    5   10 ar  
    12    5   30 1   
    13    6   11 ar  
    14    6   24 1   
    15    7   12 ar  
    16    7   25 1   
    17    8   10 ar  
    18    8   11 ar  
    19    8   26 1   
    20    9   12 ar  
    21    9   13 1   
    22   10   15 1   
    23   11   16 1   
    24   12   17 1   
    25   13   14 1   
    26   13   15 2   
    27   14   17 1   
    28   14   19 2   
    29   15   27 1   
    30   16   18 1   
    31   16   20 1   
    32   17   28 1   
@<TRIPOS>SUBSTRUCTURE
     1 1TD         1 TEMP              0 ****  ****    0 ROOT
