@<TRIPOS>MOLECULE
1TE
   45    48     1     0     0
SMALL
bcc


@<TRIPOS>ATOM
      1 OAU         2.8980   -0.0460    2.0490 o         1 1TE     -0.813300
      2 CAL         3.3780    0.6960    1.1590 c         1 1TE      0.941600
      3 OAV         4.1450    1.6790    1.3370 o         1 1TE     -0.813300
      4 CAG         2.9190    0.3880   -0.3260 c3        1 1TE     -0.077300
      5 NAA         3.7770   -0.6060   -0.9580 n         1 1TE     -0.326800
      6 CAE         3.2600   -1.5050   -1.9510 c         1 1TE      0.665500
      7 OAT         2.4370   -2.4130   -1.9380 o         1 1TE     -0.581500
      8 CAD         4.2090   -0.9540   -3.0450 cy        1 1TE     -0.195700
      9 CAJ         5.2760   -1.9190   -3.5140 c3        1 1TE      0.155100
     10 CAK         4.6660   -3.1300   -4.1980 c3        1 1TE     -0.136100
     11 OAW         6.1120   -1.2000   -4.4220 oh        1 1TE     -0.605800
     12 CAF         4.6630    0.0740   -1.9640 cy        1 1TE      0.039700
     13 CAI         4.2310    1.5430   -2.0840 c3        1 1TE     -0.061700
     14 CAS         4.0500    2.0010   -3.5060 c3        1 1TE     -0.094100
     15 CAH         2.9990    1.6840   -1.1730 c3        1 1TE     -0.001600
     16 SAX         1.4190    1.8810   -1.9800 ss        1 1TE     -0.286200
     17 CAM         1.2060    3.6120   -2.0410 cy        1 1TE     -0.049600
     18 CAN        -0.2830    4.0360   -2.1600 cy        1 1TE      0.169300
     19 CAO         1.4360    4.3110   -3.4100 cy        1 1TE      0.169300
     20 NAB        -0.0050    4.6580   -3.4790 nh        1 1TE     -0.689300
     21 CAP        -0.3750    5.9730   -3.7380 cc        1 1TE      0.639300
     22 NAC        -1.3490    6.6780   -3.1220 nd        1 1TE     -0.698000
     23 CAR        -1.5250    7.8860   -3.7680 cd        1 1TE      0.360200
     24 CAQ        -0.6980    8.1240   -4.8510 cc        1 1TE     -0.282400
     25 SAY         0.3270    6.8240   -5.1110 ss        1 1TE     -0.165300
     26 H2          1.8620    0.0040   -0.2660 h1        1 1TE      0.083700
     27 H3          3.6670   -0.5080   -3.9090 hc        1 1TE      0.094700
     28 H4          5.9000   -2.2520   -2.6340 h1        1 1TE      0.045700
     29 H5          5.4560   -3.8860   -4.4210 hc        1 1TE      0.046033
     30 H6          3.8950   -3.5900   -3.5330 hc        1 1TE      0.046033
     31 H7          4.1810   -2.8280   -5.1570 hc        1 1TE      0.046033
     32 H8          6.7740   -1.8270   -4.7330 ho        1 1TE      0.390000
     33 H9          5.7420   -0.0130   -1.6930 h1        1 1TE      0.085700
     34 H10         5.0500    2.1610   -1.6130 hc        1 1TE      0.073700
     35 H11         3.9940    3.1170   -3.5460 hc        1 1TE      0.036033
     36 H12         3.1070    1.5940   -3.9470 hc        1 1TE      0.036033
     37 H13         4.9150    1.6640   -4.1290 hc        1 1TE      0.036033
     38 H14         3.1600    2.5480   -0.4740 h1        1 1TE      0.118700
     39 H15         1.7450    4.1150   -1.2070 h1        1 1TE      0.093700
     40 H16        -1.0020    3.1880   -2.2750 h1        1 1TE      0.075450
     41 H17        -0.6290    4.7270   -1.3550 h1        1 1TE      0.075450
     42 H18         2.1390    5.1780   -3.3770 h1        1 1TE      0.075450
     43 H19         1.7140    3.6180   -4.2410 h1        1 1TE      0.075450
     44 H20        -2.2910    8.5670   -3.3800 h4        1 1TE      0.034100
     45 H21        -0.6930    9.0220   -5.4610 h4        1 1TE      0.171000
@<TRIPOS>BOND
     1    1    2 1   
     2    2    3 1   
     3    2    4 1   
     4    4    5 1   
     5    4   15 1   
     6    4   26 1   
     7    5    6 1   
     8    5   12 1   
     9    6    7 2   
    10    6    8 1   
    11    8    9 1   
    12    8   12 1   
    13    8   27 1   
    14    9   10 1   
    15    9   11 1   
    16    9   28 1   
    17   10   29 1   
    18   10   30 1   
    19   10   31 1   
    20   11   32 1   
    21   12   13 1   
    22   12   33 1   
    23   13   14 1   
    24   13   15 1   
    25   13   34 1   
    26   14   35 1   
    27   14   36 1   
    28   14   37 1   
    29   15   16 1   
    30   15   38 1   
    31   16   17 1   
    32   17   18 1   
    33   17   19 1   
    34   17   39 1   
    35   18   20 1   
    36   18   40 1   
    37   18   41 1   
    38   19   20 1   
    39   19   42 1   
    40   19   43 1   
    41   20   21 1   
    42   21   22 2   
    43   21   25 1   
    44   22   23 1   
    45   23   24 2   
    46   23   44 1   
    47   24   25 1   
    48   24   45 1   
@<TRIPOS>SUBSTRUCTURE
     1 1TE         1 TEMP              0 ****  ****    0 ROOT
