@<TRIPOS>MOLECULE
1TE
   45    48     1     0     0
SMALL
bcc


@<TRIPOS>ATOM
      1 OAU         2.7570   -0.1520    2.0130 o         1 1TE     -0.813300
      2 CAL         3.2590    0.6150    1.1580 c         1 1TE      0.941600
      3 OAV         4.0080    1.6020    1.3850 o         1 1TE     -0.813300
      4 CAG         2.8560    0.3370   -0.3490 c3        1 1TE     -0.077300
      5 NAA         3.7470   -0.6330   -0.9740 n         1 1TE     -0.326800
      6 CAE         3.2750   -1.5140   -2.0040 c         1 1TE      0.665500
      7 OAT         2.4620   -2.4310   -2.0400 o         1 1TE     -0.581500
      8 CAD         4.2540   -0.9280   -3.0510 cy        1 1TE     -0.195700
      9 CAJ         5.3480   -1.8700   -3.5040 c3        1 1TE      0.155100
     10 CAK         4.7760   -3.0720   -4.2370 c3        1 1TE     -0.136100
     11 OAW         6.2070   -1.1220   -4.3660 oh        1 1TE     -0.605800
     12 CAF         4.6590    0.0800   -1.9320 cy        1 1TE      0.039700
     13 CAI         4.2140    1.5460   -2.0340 c3        1 1TE     -0.061700
     14 CAS         4.0790    2.0350   -3.4500 c3        1 1TE     -0.094100
     15 CAH         2.9500    1.6530   -1.1630 c3        1 1TE     -0.001600
     16 SAX         1.3970    1.8530   -2.0200 ss        1 1TE     -0.286200
     17 CAM         1.1670    3.5810   -2.0490 cy        1 1TE     -0.049600
     18 CAN        -0.3220    3.9920   -2.2110 cy        1 1TE      0.169300
     19 CAO         1.4360    4.3150   -3.3930 cy        1 1TE      0.169300
     20 NAB        -0.0060    4.6480   -3.5050 nh        1 1TE     -0.689300
     21 CAP        -0.3810    5.9650   -3.7470 cc        1 1TE      0.639300
     22 NAC        -1.3840    6.6440   -3.1490 nd        1 1TE     -0.698000
     23 CAR        -1.5510    7.8650   -3.7740 cd        1 1TE      0.360200
     24 CAQ        -0.6900    8.1370   -4.8210 cc        1 1TE     -0.282400
     25 SAY         0.3590    6.8540   -5.0750 ss        1 1TE     -0.165300
     26 H2          1.8020   -0.0590   -0.3350 h1        1 1TE      0.083700
     27 H3          3.7380   -0.4680   -3.9230 hc        1 1TE      0.094700
     28 H4          5.9450   -2.2170   -2.6110 h1        1 1TE      0.045700
     29 H5          4.3220   -2.7530   -5.2050 hc        1 1TE      0.046033
     30 H6          5.5820   -3.8140   -4.4490 hc        1 1TE      0.046033
     31 H7          3.9870   -3.5550   -3.6100 hc        1 1TE      0.046033
     32 H8          6.8870   -1.7340   -4.6670 ho        1 1TE      0.390000
     33 H9          5.7290   -0.0030   -1.6250 h1        1 1TE      0.085700
     34 H10         5.0090    2.1620   -1.5210 hc        1 1TE      0.073700
     35 H11         4.9680    1.7210   -4.0500 hc        1 1TE      0.036033
     36 H12         4.0110    3.1510   -3.4670 hc        1 1TE      0.036033
     37 H13         3.1550    1.6280   -3.9340 hc        1 1TE      0.036033
     38 H14         3.0770    2.5030   -0.4400 h1        1 1TE      0.118700
     39 H15         1.6700    4.0710   -1.1860 h1        1 1TE      0.093700
     40 H16        -0.7040    4.6610   -1.4030 h1        1 1TE      0.075450
     41 H17        -1.0270    3.1400   -2.3710 h1        1 1TE      0.075450
     42 H18         2.1280    5.1880   -3.3160 h1        1 1TE      0.075450
     43 H19         1.7510    3.6440   -4.2300 h1        1 1TE      0.075450
     44 H20        -2.3380    8.5290   -3.3980 h4        1 1TE      0.034100
     45 H21        -0.6730    9.0490   -5.4100 h4        1 1TE      0.171000
@<TRIPOS>BOND
     1    1    2 1   
     2    2    3 1   
     3    2    4 1   
     4    4    5 1   
     5    4   15 1   
     6    4   26 1   
     7    5    6 1   
     8    5   12 1   
     9    6    7 2   
    10    6    8 1   
    11    8    9 1   
    12    8   12 1   
    13    8   27 1   
    14    9   10 1   
    15    9   11 1   
    16    9   28 1   
    17   10   29 1   
    18   10   30 1   
    19   10   31 1   
    20   11   32 1   
    21   12   13 1   
    22   12   33 1   
    23   13   14 1   
    24   13   15 1   
    25   13   34 1   
    26   14   35 1   
    27   14   36 1   
    28   14   37 1   
    29   15   16 1   
    30   15   38 1   
    31   16   17 1   
    32   17   18 1   
    33   17   19 1   
    34   17   39 1   
    35   18   20 1   
    36   18   40 1   
    37   18   41 1   
    38   19   20 1   
    39   19   42 1   
    40   19   43 1   
    41   20   21 1   
    42   21   22 2   
    43   21   25 1   
    44   22   23 1   
    45   23   24 2   
    46   23   44 1   
    47   24   25 1   
    48   24   45 1   
@<TRIPOS>SUBSTRUCTURE
     1 1TE         1 TEMP              0 ****  ****    0 ROOT
