@<TRIPOS>MOLECULE
1TJ
   36    39     1     0     0
SMALL
bcc


@<TRIPOS>ATOM
      1 OAD        -0.0090    0.7710    0.0400 o         1 1TJ     -0.484100
      2 CAV         1.1690    0.4080    0.0340 c         1 1TJ      0.581900
      3 CAT         1.9600    0.1830    1.2780 cc        1 1TJ      0.005600
      4 CAS         1.3050   -0.2880    2.4860 ca        1 1TJ     -0.112800
      5 CAO         0.0490   -0.9300    2.4830 ca        1 1TJ      0.180100
      6 OAE        -0.4990   -1.2500    1.2650 oh        1 1TJ     -0.492100
      7 CAJ        -0.5880   -1.2860    3.6820 ca        1 1TJ     -0.220000
      8 CAN         0.0420   -1.0430    4.9020 ca        1 1TJ     -0.007300
      9 CAA        -0.6270   -1.3930    6.1770 c3        1 1TJ     -0.062800
     10 CAK         1.3190   -0.4670    4.9160 ca        1 1TJ     -0.171000
     11 CAQ         1.9510   -0.1060    3.7280 ca        1 1TJ     -0.007300
     12 CAL         3.3150    0.4840    3.7820 c3        1 1TJ     -0.149100
     13 CAM         4.0900    0.3230    2.5010 c         1 1TJ      0.585300
     14 OAB         5.3010    0.0970    2.5020 o         1 1TJ     -0.493100
     15 CAR         3.2870    0.4700    1.2690 cd        1 1TJ     -0.241400
     16 CAU         3.9650    0.9320    0.0320 c         1 1TJ      0.594900
     17 OAC         4.9570    1.6620    0.0540 o         1 1TJ     -0.467100
     18 CAX         3.3210    0.4660   -1.2150 ca        1 1TJ     -0.164600
     19 CAW         1.9370    0.2150   -1.2200 ca        1 1TJ     -0.099600
     20 CAI         1.2860   -0.1940   -2.3830 ca        1 1TJ     -0.121000
     21 CAG         2.0180   -0.3790   -3.5600 ca        1 1TJ     -0.078000
     22 CAH         3.3870   -0.1510   -3.5800 ca        1 1TJ     -0.204000
     23 CAP         4.0420    0.2770   -2.4080 ca        1 1TJ      0.174100
     24 OAF         5.3920    0.5060   -2.3730 oh        1 1TJ     -0.463100
     25 H1         -1.4550   -1.3540    1.3800 ho        1 1TJ      0.431000
     26 H2         -1.5790   -1.7610    3.6520 ha        1 1TJ      0.141000
     27 H3         -1.4460   -2.1360    6.0150 hc        1 1TJ      0.052033
     28 H4          0.1070   -1.8260    6.9020 hc        1 1TJ      0.052033
     29 H5         -1.0710   -0.4740    6.6350 hc        1 1TJ      0.052033
     30 H6          1.8290   -0.3040    5.8770 ha        1 1TJ      0.142000
     31 H7          3.9010    0.0270    4.6260 hc        1 1TJ      0.093200
     32 H8          3.2320    1.5880    3.9930 hc        1 1TJ      0.093200
     33 H9          0.1990   -0.3630   -2.3660 ha        1 1TJ      0.157000
     34 H10         1.5030   -0.7070   -4.4760 ha        1 1TJ      0.142000
     35 H11         3.9650   -0.2980   -4.5040 ha        1 1TJ      0.142000
     36 H12         5.7460    0.3590   -3.2640 ho        1 1TJ      0.423000
@<TRIPOS>BOND
     1    1    2 2   
     2    2    3 1   
     3    2   19 1   
     4    3    4 1   
     5    3   15 2   
     6    4    5 ar  
     7    4   11 ar  
     8    5    6 1   
     9    5    7 ar  
    10    6   25 1   
    11    7    8 ar  
    12    7   26 1   
    13    8    9 1   
    14    8   10 ar  
    15    9   27 1   
    16    9   28 1   
    17    9   29 1   
    18   10   11 ar  
    19   10   30 1   
    20   11   12 1   
    21   12   13 1   
    22   12   31 1   
    23   12   32 1   
    24   13   14 2   
    25   13   15 1   
    26   15   16 1   
    27   16   17 2   
    28   16   18 1   
    29   18   19 ar  
    30   18   23 ar  
    31   19   20 ar  
    32   20   21 ar  
    33   20   33 1   
    34   21   22 ar  
    35   21   34 1   
    36   22   23 ar  
    37   22   35 1   
    38   23   24 1   
    39   24   36 1   
@<TRIPOS>SUBSTRUCTURE
     1 1TJ         1 TEMP              0 ****  ****    0 ROOT
