@<TRIPOS>MOLECULE
1TJ
   36    39     1     0     0
SMALL
bcc


@<TRIPOS>ATOM
      1 OAD        -0.0120    0.7490    0.0290 o         1 1TJ     -0.484100
      2 CAV         1.1680    0.3920    0.0280 c         1 1TJ      0.581900
      3 CAT         1.9590    0.1850    1.2760 cc        1 1TJ      0.005600
      4 CAS         1.3060   -0.2770    2.4880 ca        1 1TJ     -0.112800
      5 CAO         0.0530   -0.9260    2.4910 ca        1 1TJ      0.180100
      6 OAE        -0.4920   -1.2610    1.2760 oh        1 1TJ     -0.492100
      7 CAJ        -0.5830   -1.2720    3.6920 ca        1 1TJ     -0.221000
      8 CAN         0.0440   -1.0120    4.9110 ca        1 1TJ     -0.007300
      9 CAA        -0.6240   -1.3530    6.1880 c3        1 1TJ     -0.062800
     10 CAK         1.3170   -0.4290    4.9200 ca        1 1TJ     -0.171000
     11 CAQ         1.9500   -0.0780    3.7280 ca        1 1TJ     -0.007300
     12 CAL         3.3090    0.5210    3.7780 c3        1 1TJ     -0.149100
     13 CAM         4.0870    0.3500    2.4990 c         1 1TJ      0.585300
     14 OAB         5.2990    0.1310    2.5040 o         1 1TJ     -0.493100
     15 CAR         3.2840    0.4800    1.2650 cd        1 1TJ     -0.241400
     16 CAU         3.9610    0.9320    0.0240 c         1 1TJ      0.594900
     17 OAC         4.9490    1.6680    0.0380 o         1 1TJ     -0.467100
     18 CAX         3.3210    0.4500   -1.2190 ca        1 1TJ     -0.164600
     19 CAW         1.9380    0.1900   -1.2230 ca        1 1TJ     -0.099600
     20 CAI         1.2910   -0.2340   -2.3820 ca        1 1TJ     -0.121000
     21 CAG         2.0250   -0.4280   -3.5560 ca        1 1TJ     -0.078000
     22 CAH         3.3930   -0.1920   -3.5770 ca        1 1TJ     -0.204000
     23 CAP         4.0440    0.2510   -2.4090 ca        1 1TJ      0.174100
     24 OAF         5.3930    0.4880   -2.3750 oh        1 1TJ     -0.463100
     25 H1         -1.4470   -1.3700    1.3910 ho        1 1TJ      0.431000
     26 H2         -1.5720   -1.7530    3.6670 ha        1 1TJ      0.141000
     27 H3         -1.4310   -2.1110    6.0350 hc        1 1TJ      0.052033
     28 H4          0.1130   -1.7620    6.9230 hc        1 1TJ      0.052033
     29 H5         -1.0850   -0.4330    6.6300 hc        1 1TJ      0.052033
     30 H6          1.8260   -0.2530    5.8800 ha        1 1TJ      0.142000
     31 H7          3.8970    0.0760    4.6270 hc        1 1TJ      0.093200
     32 H8          3.2200    1.6270    3.9760 hc        1 1TJ      0.093200
     33 H9          0.2050   -0.4100   -2.3640 ha        1 1TJ      0.157000
     34 H10         1.5130   -0.7680   -4.4690 ha        1 1TJ      0.142000
     35 H11         3.9730   -0.3450   -4.4990 ha        1 1TJ      0.142000
     36 H12         5.7490    0.3350   -3.2640 ho        1 1TJ      0.423000
@<TRIPOS>BOND
     1    1    2 2   
     2    2    3 1   
     3    2   19 1   
     4    3    4 1   
     5    3   15 2   
     6    4    5 ar  
     7    4   11 ar  
     8    5    6 1   
     9    5    7 ar  
    10    6   25 1   
    11    7    8 ar  
    12    7   26 1   
    13    8    9 1   
    14    8   10 ar  
    15    9   27 1   
    16    9   28 1   
    17    9   29 1   
    18   10   11 ar  
    19   10   30 1   
    20   11   12 1   
    21   12   13 1   
    22   12   31 1   
    23   12   32 1   
    24   13   14 2   
    25   13   15 1   
    26   15   16 1   
    27   16   17 2   
    28   16   18 1   
    29   18   19 ar  
    30   18   23 ar  
    31   19   20 ar  
    32   20   21 ar  
    33   20   33 1   
    34   21   22 ar  
    35   21   34 1   
    36   22   23 ar  
    37   22   35 1   
    38   23   24 1   
    39   24   36 1   
@<TRIPOS>SUBSTRUCTURE
     1 1TJ         1 TEMP              0 ****  ****    0 ROOT
