@<TRIPOS>MOLECULE
1TJ
   36    29     1     0     0
SMALL
bcc


@<TRIPOS>ATOM
      1 OAD        -1.8110    0.0600   -1.3990 o         1 1TJ     -0.272000
      2 CAV        -0.5960    0.0600   -1.3990 c1        1 1TJ      0.315000
      3 CAT         0.1600    0.0600   -0.0890 c1        1 1TJ      0.002000
      4 CAS        -0.5960    0.2000    1.2450 c1        1 1TJ     -0.088000
      5 CAO        -1.9950    0.2310    1.2380 c1        1 1TJ      0.044000
      6 OAE        -2.9800    0.7930    0.4060 o         1 1TJ     -0.277000
      7 CAJ        -2.7000    0.1380    2.4350 c1        1 1TJ     -0.162000
      8 CAN        -2.0100    0.0140    3.6450 c1        1 1TJ      0.044000
      9 CAA        -2.7530   -0.0550    4.9620 c2        1 1TJ     -0.187000
     10 CAK        -0.6180   -0.0170    3.6540 c1        1 1TJ     -0.162000
     11 CAQ         0.0920    0.0760    2.4520 c1        1 1TJ     -0.018000
     12 CAL         1.6340    0.3250    2.5030 c3        1 1TJ     -0.184000
     13 CAM         2.3620   -0.0250    1.2130 c2        1 1TJ      0.276000
     14 OAB         3.5420   -0.3120    1.2410 o         1 1TJ     -0.251000
     15 CAR         1.6040   -0.0730   -0.0890 c2        1 1TJ     -0.192000
     16 CAU         2.3470   -0.2150   -1.4000 c2        1 1TJ      0.314000
     17 OAC         3.5520   -0.3650   -1.4020 o         1 1TJ     -0.225000
     18 CAX         1.5640   -0.2130   -2.7370 c1        1 1TJ     -0.144000
     19 CAW         0.1780   -0.0080   -2.7380 c1        1 1TJ     -0.081000
     20 CAI        -0.5140    0.0820   -3.9490 c1        1 1TJ     -0.117000
     21 CAG         0.1760   -0.0310   -5.1560 c1        1 1TJ     -0.140000
     22 CAH         1.5620   -0.2360   -5.1550 c1        1 1TJ     -0.140000
     23 CAP         2.2540   -0.3270   -3.9480 c1        1 1TJ      0.129000
     24 OAF         3.5360   -0.8690   -4.1440 oh        1 1TJ     -0.217000
     25 H1         -3.6050    0.1860    0.2360 ho        1 1TJ      0.239000
     26 H2         -3.6760    0.1480    2.4280 ha        1 1TJ      0.144500
     27 H3         -2.3200   -0.7060    5.5470 ha        1 1TJ      0.091000
     28 H4         -3.6770   -0.3260    4.8010 ha        1 1TJ      0.091000
     29 H5         -2.7410    0.8230    5.3890 ha        1 1TJ      0.091000
     30 H6         -0.1370   -0.1040    4.4990 ha        1 1TJ      0.144500
     31 H7          1.7480    1.2050    2.9100 hc        1 1TJ      0.132000
     32 H8          2.0720   -0.2310    3.1750 hc        1 1TJ      0.132000
     33 H9         -1.4790    0.2250   -3.9510 ha        1 1TJ      0.158000
     34 H10        -0.3070    0.0320   -6.0010 ha        1 1TJ      0.143500
     35 H11         2.0440   -0.3150   -6.0000 ha        1 1TJ      0.143500
     36 H12         4.0870   -0.2310   -4.4230 ho        1 1TJ      0.223000
@<TRIPOS>BOND
     1    1    2 1   
     2    2   19 1   
     3    3   15 1   
     4    4   11 1   
     5    5    7 1   
     6    6   25 1   
     7    7   26 1   
     8    8   10 1   
     9    9   27 1   
    10    9   28 1   
    11    9   29 1   
    12   10   30 1   
    13   11   12 1   
    14   12   13 1   
    15   12   31 1   
    16   12   32 1   
    17   13   14 1   
    18   13   15 1   
    19   15   16 1   
    20   16   17 1   
    21   16   18 1   
    22   18   23 1   
    23   19   20 1   
    24   20   33 1   
    25   21   22 1   
    26   21   34 1   
    27   22   35 1   
    28   23   24 1   
    29   24   36 1   
@<TRIPOS>SUBSTRUCTURE
     1 1TJ         1 TEMP              0 ****  ****    0 ROOT
