@<TRIPOS>MOLECULE
1TJ
   36    39     1     0     0
SMALL
bcc


@<TRIPOS>ATOM
      1 OAD        -0.0450   -2.2030    1.1630 o         1 1TJ     -0.492100
      2 CAV        -0.5250   -1.2470    0.5420 c         1 1TJ      0.554900
      3 CAT         0.3060   -0.0900    0.1030 cc        1 1TJ     -0.000400
      4 CAS         1.7450   -0.2180   -0.0750 ca        1 1TJ     -0.172800
      5 CAO         2.4250   -1.4090   -0.4030 ca        1 1TJ      0.198100
      6 OAE         1.8400   -2.5880   -0.7820 oh        1 1TJ     -0.482100
      7 CAJ         3.8360   -1.4670   -0.4100 ca        1 1TJ     -0.174000
      8 CAN         4.5830   -0.3280   -0.1410 ca        1 1TJ     -0.007300
      9 CAA         6.0630   -0.3770   -0.1170 c3        1 1TJ     -0.063800
     10 CAK         3.9210    0.8880    0.0920 ca        1 1TJ     -0.175000
     11 CAQ         2.5330    0.9500    0.1020 ca        1 1TJ     -0.005300
     12 CAL         1.8830    2.2750    0.2920 c3        1 1TJ     -0.148100
     13 CAM         0.5090    2.3240   -0.3140 c         1 1TJ      0.586300
     14 OAB         0.1050    3.2790   -0.9780 o         1 1TJ     -0.487100
     15 CAR        -0.3030    1.1190   -0.0210 cd        1 1TJ     -0.238400
     16 CAU        -1.7590    1.3020    0.1500 c         1 1TJ      0.599900
     17 OAC        -2.2550    2.4140    0.3800 o         1 1TJ     -0.523100
     18 CAX        -2.5790    0.0840    0.0280 ca        1 1TJ     -0.228600
     19 CAW        -1.9670   -1.1730    0.2180 ca        1 1TJ     -0.106600
     20 CAI        -2.7040   -2.3480    0.1280 ca        1 1TJ     -0.119000
     21 CAG        -4.0720   -2.2930   -0.1770 ca        1 1TJ     -0.082000
     22 CAH        -4.6990   -1.0770   -0.3670 ca        1 1TJ     -0.145000
     23 CAP        -3.9560    0.1250   -0.2510 ca        1 1TJ      0.199100
     24 OAF        -4.6870    1.2610   -0.4400 oh        1 1TJ     -0.493100
     25 H1          0.8790   -2.4880   -0.7990 ho        1 1TJ      0.426000
     26 H2          4.3200   -2.4290   -0.6380 ha        1 1TJ      0.159000
     27 H3          6.4890    0.4200   -0.7770 hc        1 1TJ      0.053033
     28 H4          6.4320   -0.2020    0.9250 hc        1 1TJ      0.053033
     29 H5          6.4440   -1.3680   -0.4650 hc        1 1TJ      0.053033
     30 H6          4.5120    1.8020    0.2550 ha        1 1TJ      0.142000
     31 H7          1.7860    2.4930    1.3930 hc        1 1TJ      0.093200
     32 H8          2.5180    3.0870   -0.1560 hc        1 1TJ      0.093200
     33 H9         -2.2120   -3.3180    0.3050 ha        1 1TJ      0.158000
     34 H10        -4.6470   -3.2290   -0.2570 ha        1 1TJ      0.148000
     35 H11        -5.7730   -1.0100   -0.6010 ha        1 1TJ      0.163000
     36 H12        -4.1270    2.0470   -0.3220 ho        1 1TJ      0.462000
@<TRIPOS>BOND
     1    1    2 2   
     2    2    3 1   
     3    2   19 1   
     4    3    4 1   
     5    3   15 2   
     6    4    5 ar  
     7    4   11 ar  
     8    5    6 1   
     9    5    7 ar  
    10    6   25 1   
    11    7    8 ar  
    12    7   26 1   
    13    8    9 1   
    14    8   10 ar  
    15    9   27 1   
    16    9   28 1   
    17    9   29 1   
    18   10   11 ar  
    19   10   30 1   
    20   11   12 1   
    21   12   13 1   
    22   12   31 1   
    23   12   32 1   
    24   13   14 2   
    25   13   15 1   
    26   15   16 1   
    27   16   17 2   
    28   16   18 1   
    29   18   19 ar  
    30   18   23 ar  
    31   19   20 ar  
    32   20   21 ar  
    33   20   33 1   
    34   21   22 ar  
    35   21   34 1   
    36   22   23 ar  
    37   22   35 1   
    38   23   24 1   
    39   24   36 1   
@<TRIPOS>SUBSTRUCTURE
     1 1TJ         1 TEMP              0 ****  ****    0 ROOT
