@<TRIPOS>MOLECULE
1TL
   36    37     1     0     0
SMALL
bcc


@<TRIPOS>ATOM
      1 P          -4.3480   -0.0760   -0.8870 p4        1 1TL      1.722200
      2 N1          1.6270    1.4080   -0.2030 n         1 1TL     -0.347000
      3 C2          0.7760    2.5960   -0.2530 c         1 1TL      0.799500
      4 O2         -0.3230    2.5340   -0.7670 o         1 1TL     -0.672500
      5 N3          1.2500    3.8620    0.3070 n         1 1TL     -0.598500
      6 C4          2.4980    3.9180    0.9780 c         1 1TL      0.721700
      7 O4          2.8890    4.9670    1.4460 o         1 1TL     -0.689500
      8 C5          3.3550    2.7270    1.0310 cc        1 1TL     -0.397200
      9 C6          2.8770    1.4580    0.4680 cd        1 1TL      0.110600
     10 C1'         1.2210    0.1660   -0.9370 c3        1 1TL      0.267500
     11 C2'         1.5920   -0.9670   -0.1900 c3        1 1TL     -0.005900
     12 O2A         1.2440   -2.1610   -0.7140 os        1 1TL     -0.439600
     13 C3'         0.3650   -0.8830    0.7390 c3        1 1TL      0.331100
     14 O3'         0.2730   -1.9020    1.5370 oh        1 1TL     -0.906800
     15 C4'        -0.6150   -0.9760   -0.4620 c3        1 1TL     -0.015200
     16 O4'        -0.1170    0.1490   -1.0920 os        1 1TL     -0.453600
     17 C5'        -2.0750   -0.9470   -0.0680 c3        1 1TL      0.227400
     18 O5'        -2.7680   -0.0490   -0.9000 os        1 1TL     -0.581200
     19 C6'        -0.1170   -2.1740   -0.8890 c3        1 1TL      0.161100
     20 C7'        -0.7600   -3.3640   -0.0250 c3        1 1TL     -0.101100
     21 OP1        -4.8360   -0.2960    0.5240 o         1 1TL     -0.853500
     22 OP2        -4.8790    1.2400   -1.4040 o         1 1TL     -0.902300
     23 OP3        -4.8400   -1.1990   -1.7700 os        1 1TL     -0.841000
     24 H5          4.2130    2.7640    1.4920 ha        1 1TL      0.165000
     25 H6          3.4450    0.6640    0.5010 h4        1 1TL      0.215000
     26 H1'         1.6560    0.1420   -1.8120 h2        1 1TL      0.071700
     27 H2'         2.4480   -0.9250    0.2780 h1        1 1TL      0.075700
     28 H3'         0.3060   -0.0240    1.2020 h1        1 1TL     -0.083300
     29 HO3'        0.5020   -1.6560    2.3590 ho        1 1TL      0.477000
     30 H5'        -2.4580   -1.8430   -0.1660 h1        1 1TL      0.025700
     31 H5'A       -2.1570   -0.6580    0.8650 h1        1 1TL      0.025700
     32 H6'        -0.3290   -2.3010   -1.8380 h1        1 1TL      0.015700
     33 H7'        -0.0530   -3.9730    0.2680 hc        1 1TL      0.049367
     34 H7'A       -1.4060   -3.8540   -0.5740 hc        1 1TL      0.049367
     35 H7'B       -1.2140   -2.9900    0.7590 hc        1 1TL      0.049367
     36 HN3         0.7570    4.6220    0.1970 hn        1 1TL      0.326500
@<TRIPOS>BOND
     1    1   18 1   
     2    1   21 1   
     3    1   22 2   
     4    2    3 1   
     5    2    9 1   
     6    2   10 1   
     7    3    4 2   
     8    3    5 1   
     9    5    6 1   
    10    5   36 1   
    11    6    7 2   
    12    6    8 1   
    13    8    9 2   
    14    8   24 1   
    15    9   25 1   
    16   10   11 1   
    17   10   16 1   
    18   10   26 1   
    19   11   12 1   
    20   11   13 1   
    21   11   27 1   
    22   12   19 1   
    23   13   14 1   
    24   13   15 1   
    25   13   28 1   
    26   14   29 1   
    27   15   16 1   
    28   15   17 1   
    29   15   19 1   
    30   17   18 1   
    31   17   30 1   
    32   17   31 1   
    33   19   20 1   
    34   19   32 1   
    35   20   33 1   
    36   20   34 1   
    37   20   35 1   
@<TRIPOS>SUBSTRUCTURE
     1 1TL         1 TEMP              0 ****  ****    0 ROOT
