@<TRIPOS>MOLECULE
1TL
   36    38     1     0     0
SMALL
bcc


@<TRIPOS>ATOM
      1 P           3.9410    0.4550   -1.2290 p5        1 1TL      1.439800
      2 N1         -2.6700    0.0790    0.2720 n         1 1TL     -0.347000
      3 C2         -4.0160   -0.2410    0.5520 c         1 1TL      0.799500
      4 O2         -4.3580   -1.2400    1.2280 o         1 1TL     -0.672500
      5 N3         -5.0270    0.6120    0.0610 n         1 1TL     -0.598500
      6 C4         -4.7510    1.7830   -0.6670 c         1 1TL      0.721700
      7 O4         -5.7180    2.4780   -1.0520 o         1 1TL     -0.689500
      8 C5         -3.3450    2.0760   -0.8920 cc        1 1TL     -0.397200
      9 C6         -2.3760    1.2300   -0.4250 cd        1 1TL      0.110600
     10 C1'        -1.6060   -0.8080    0.7880 c3        1 1TL      0.267500
     11 C2'        -1.1190   -1.9300   -0.1880 c3        1 1TL     -0.005900
     12 O2A        -0.3030   -2.7570    0.6540 os        1 1TL     -0.439600
     13 C3'        -0.0660   -1.1120   -1.0920 c3        1 1TL      0.420800
     14 O3'         0.6030   -1.7880   -1.9620 o         1 1TL     -0.795500
     15 C4'         0.6820   -0.6410    0.2640 c3        1 1TL     -0.015200
     16 O4'        -0.4220   -0.0450    1.0500 os        1 1TL     -0.453600
     17 C5'         1.7510    0.4310    0.1960 c3        1 1TL      0.227400
     18 O5'         3.0340   -0.0810    0.0590 os        1 1TL     -0.581200
     19 C6'         0.9170   -2.0050    0.9520 c3        1 1TL      0.161100
     20 C7'         2.1110   -2.7780    0.4580 c3        1 1TL     -0.101100
     21 OP1         3.4890   -0.6860   -2.2840 oh        1 1TL     -0.808400
     22 OP2         3.3800    1.7630   -1.6390 o         1 1TL     -0.853500
     23 OP3         5.3630    0.2670   -0.8720 o         1 1TL     -0.853500
     24 H5         -3.1010    2.9840   -1.4530 ha        1 1TL      0.165000
     25 H6         -1.2890    1.4260   -0.5720 h4        1 1TL      0.215000
     26 H1'        -1.9770   -1.2100    1.7740 h2        1 1TL      0.071700
     27 H2'        -1.8830   -2.5540   -0.6730 h1        1 1TL      0.075700
     28 H3'        -0.6030   -0.2000   -1.5010 h1        1 1TL     -0.083300
     29 HO3'        2.5890   -1.0040   -2.1930 ho        1 1TL      0.477000
     30 H5'         1.5080    1.1210   -0.6630 h1        1 1TL      0.025700
     31 H5'A        1.7070    1.0240    1.1600 h1        1 1TL      0.025700
     32 H6'         0.9310   -1.8990    2.0700 h1        1 1TL      0.015700
     33 H7'         2.1290   -2.7600   -0.6630 hc        1 1TL      0.049367
     34 H7'A        3.0460   -2.3060    0.8430 hc        1 1TL      0.049367
     35 H7'B        2.0510   -3.8360    0.8090 hc        1 1TL      0.049367
     36 HN3        -5.9670    0.3510    0.2480 hn        1 1TL      0.326500
@<TRIPOS>BOND
     1    1   18 1   
     2    1   21 1   
     3    1   22 1   
     4    1   23 1   
     5    2    3 1   
     6    2    9 1   
     7    2   10 1   
     8    3    4 2   
     9    3    5 1   
    10    5    6 1   
    11    5   36 1   
    12    6    7 2   
    13    6    8 1   
    14    8    9 2   
    15    8   24 1   
    16    9   25 1   
    17   10   11 1   
    18   10   16 1   
    19   10   26 1   
    20   11   12 1   
    21   11   13 1   
    22   11   27 1   
    23   12   19 1   
    24   13   14 1   
    25   13   15 1   
    26   13   28 1   
    27   15   16 1   
    28   15   17 1   
    29   15   19 1   
    30   17   18 1   
    31   17   30 1   
    32   17   31 1   
    33   19   20 1   
    34   19   32 1   
    35   20   33 1   
    36   20   34 1   
    37   20   35 1   
    38   21   29 1   
@<TRIPOS>SUBSTRUCTURE
     1 1TL         1 TEMP              0 ****  ****    0 ROOT
