@<TRIPOS>MOLECULE
1TM
   33    26     1     0     0
SMALL
bcc


@<TRIPOS>ATOM
      1 CAO         1.1510    1.5630    0.7760 c1        1 1TM     -0.089000
      2 CAP         2.5360    1.5610    0.8370 c1        1 1TM     -0.159000
      3 CAQ         3.2800    1.3180   -0.3070 c1        1 1TM      0.076000
      4 OAT         4.6840    1.2550   -0.2330 o         1 1TM     -0.252000
      5 CAR         2.6390    1.0770   -1.5120 c2        1 1TM     -0.217000
      6 CAS         1.2540    1.0800   -1.5730 c1        1 1TM     -0.088000
      7 CAN         0.5100    1.3230   -0.4290 c1        1 1TM     -0.040000
      8 CAJ        -1.0020    1.2760   -0.4850 c2        1 1TM     -0.159000
      9 CAK        -1.8250    2.3120   -0.8210 c1        1 1TM      0.002500
     10 NAM        -1.4120    3.6200   -1.1850 n2        1 1TM     -0.285000
     11 NAL        -3.1000    1.8880   -0.6980 n2        1 1TM     -0.143000
     12 NAA        -3.0750    0.5810   -0.2840 n2        1 1TM     -0.143000
     13 CAB        -1.7850    0.2080   -0.1540 c1        1 1TM      0.002500
     14 CAC        -1.2930   -1.1420    0.3190 c1        1 1TM     -0.070000
     15 CAD        -1.3410   -1.4640    1.6660 c1        1 1TM     -0.150000
     16 CAE        -0.9650   -2.7290    2.0910 c1        1 1TM     -0.150000
     17 CAF        -0.5400   -3.6720    1.1680 c1        1 1TM      0.089000
     18 OAI        -0.1220   -4.9430    1.6040 oh        1 1TM     -0.247000
     19 CAG        -0.4920   -3.3500   -0.1790 c1        1 1TM     -0.158000
     20 CAH        -0.8680   -2.0860   -0.6040 c1        1 1TM     -0.066000
     21 H1          0.6280    1.7340    1.5820 ha        1 1TM      0.142000
     22 H2          2.9880    1.7300    1.6860 ha        1 1TM      0.151000
     23 H3          5.0360    1.9120   -0.7180 ho        1 1TM      0.218000
     24 H4          3.1620    0.9060   -2.3180 ha        1 1TM      0.134000
     25 H5          0.8020    0.9110   -2.4220 ha        1 1TM      0.150000
     26 H6         -2.0280    4.2280   -1.4790 hn        1 1TM      0.186000
     27 H7         -0.5340    3.8600   -1.1070 hn        1 1TM      0.186000
     28 H9         -1.6400   -0.7990    2.3160 ha        1 1TM      0.136000
     29 H10        -0.9990   -2.9550    3.0390 ha        1 1TM      0.136000
     30 H11        -0.8180   -5.3870    1.9340 ho        1 1TM      0.220000
     31 H12        -0.1930   -4.0150   -0.8290 ha        1 1TM      0.156000
     32 H13        -0.8340   -1.8590   -1.5530 ha        1 1TM      0.155000
     33 H8         -3.8030    0.0550   -0.1240 DU        1 1TM      0.272000
@<TRIPOS>BOND
     1    1    7 1   
     2    1   21 1   
     3    2    3 1   
     4    2   22 1   
     5    3    5 1   
     6    4   23 1   
     7    5    6 1   
     8    5   24 1   
     9    6   25 1   
    10    7    8 1   
    11    8    9 1   
    12    8   13 1   
    13    9   11 1   
    14   10   26 1   
    15   10   27 1   
    16   11   12 1   
    17   12   13 1   
    18   14   20 1   
    19   15   16 1   
    20   15   28 1   
    21   16   29 1   
    22   17   18 1   
    23   17   19 1   
    24   18   30 1   
    25   19   31 1   
    26   20   32 1   
@<TRIPOS>SUBSTRUCTURE
     1 1TM         1 TEMP              0 ****  ****    0 ROOT
