@<TRIPOS>MOLECULE
1TM
   33    35     1     0     0
SMALL
bcc


@<TRIPOS>ATOM
      1 CAO        -2.5830   -0.3190    0.8510 ca        1 1TM     -0.088500
      2 CAP        -3.2680   -1.5270    0.7510 ca        1 1TM     -0.188500
      3 CAQ        -2.9160   -2.4360   -0.2550 ca        1 1TM      0.121100
      4 OAT        -3.5460   -3.6490   -0.4170 oh        1 1TM     -0.498100
      5 CAR        -1.8810   -2.1420   -1.1590 ca        1 1TM     -0.188500
      6 CAS        -1.2090   -0.9310   -1.0460 ca        1 1TM     -0.088500
      7 CAN        -1.5490   -0.0060   -0.0440 ca        1 1TM     -0.038000
      8 CAJ        -0.8620    1.2560    0.0490 cc        1 1TM     -0.226300
      9 CAK        -1.5020    2.5740    0.1420 cc        1 1TM      0.515200
     10 NAM        -2.8770    2.7810    0.2720 nh        1 1TM     -0.887500
     11 NAL        -0.5330    3.5570    0.1660 nd        1 1TM     -0.558800
     12 NAA         0.6390    2.9290    0.0910 na        1 1TM     -0.013600
     13 CAB         0.5220    1.5340    0.0370 cd        1 1TM     -0.012300
     14 CAC         1.6680    0.6460   -0.0090 ca        1 1TM     -0.070000
     15 CAD         1.6390   -0.5650    0.6970 ca        1 1TM     -0.074000
     16 CAE         2.7330   -1.4230    0.6740 ca        1 1TM     -0.187000
     17 CAF         3.8720   -1.0660   -0.0630 ca        1 1TM      0.134100
     18 OAI         4.9920   -1.8590   -0.1310 oh        1 1TM     -0.494100
     19 CAG         3.9150    0.1430   -0.7780 ca        1 1TM     -0.187000
     20 CAH         2.8130    0.9890   -0.7450 ca        1 1TM     -0.074000
     21 H1         -2.8500    0.3930    1.6480 ha        1 1TM      0.146000
     22 H2         -4.0760   -1.7650    1.4560 ha        1 1TM      0.142000
     23 H3         -4.2320   -3.7200    0.2630 ho        1 1TM      0.419000
     24 H4         -1.6200   -2.8680   -1.9410 ha        1 1TM      0.142000
     25 H5         -0.3960   -0.6920   -1.7490 ha        1 1TM      0.146000
     26 H6         -3.3970    2.0650   -0.1940 hn        1 1TM      0.390800
     27 H7         -3.1750    3.6990    0.0140 hn        1 1TM      0.390800
     28 H9          0.7360   -0.8380    1.2670 ha        1 1TM      0.144500
     29 H10         2.7050   -2.3720    1.2280 ha        1 1TM      0.147000
     30 H11         4.8280   -2.6560    0.3940 ho        1 1TM      0.422000
     31 H12         4.8150    0.4010   -1.3530 ha        1 1TM      0.147000
     32 H13         2.8430    1.9290   -1.3160 ha        1 1TM      0.144500
     33 H8          1.4830    3.4420    0.2010 hn        1 1TM      0.322700
@<TRIPOS>BOND
     1    1    2 ar  
     2    1    7 ar  
     3    1   21 1   
     4    2    3 ar  
     5    2   22 1   
     6    3    4 1   
     7    3    5 ar  
     8    4   23 1   
     9    5    6 ar  
    10    5   24 1   
    11    6    7 ar  
    12    6   25 1   
    13    7    8 1   
    14    8    9 1   
    15    8   13 2   
    16    9   10 1   
    17    9   11 2   
    18   10   26 1   
    19   10   27 1   
    20   11   12 1   
    21   12   13 1   
    22   12   33 1   
    23   13   14 1   
    24   14   15 ar  
    25   14   20 ar  
    26   15   16 ar  
    27   15   28 1   
    28   16   17 ar  
    29   16   29 1   
    30   17   18 1   
    31   17   19 ar  
    32   18   30 1   
    33   19   20 ar  
    34   19   31 1   
    35   20   32 1   
@<TRIPOS>SUBSTRUCTURE
     1 1TM         1 TEMP              0 ****  ****    0 ROOT
