@<TRIPOS>MOLECULE
1TM
   33    35     1     0     0
SMALL
bcc


@<TRIPOS>ATOM
      1 CAO         0.0350    0.2580   -0.0990 ca        1 1TM     -0.088500
      2 CAP         1.4220    0.3210   -0.1590 ca        1 1TM     -0.188500
      3 CAQ         2.1690    0.0830    1.0060 ca        1 1TM      0.120100
      4 OAT         3.5380    0.1610    0.8850 oh        1 1TM     -0.498100
      5 CAR         1.5320   -0.2180    2.2170 ca        1 1TM     -0.188500
      6 CAS         0.1420   -0.2770    2.2600 ca        1 1TM     -0.088500
      7 CAN        -0.6220   -0.0390    1.1070 ca        1 1TM     -0.039000
      8 CAJ        -2.0610   -0.0760    1.1620 cc        1 1TM     -0.226300
      9 CAK        -2.9630    0.9650    0.6560 cc        1 1TM      0.517200
     10 NAM        -2.5540    2.0880   -0.0660 nh        1 1TM     -0.887500
     11 NAL        -4.2710    0.6150    0.9300 nd        1 1TM     -0.559800
     12 NAA        -4.2200   -0.5550    1.5650 na        1 1TM     -0.013600
     13 CAB        -2.9180   -1.0470    1.7230 cd        1 1TM     -0.014300
     14 CAC        -2.6260   -2.3240    2.3460 ca        1 1TM     -0.070000
     15 CAD        -1.6170   -3.1420    1.8180 ca        1 1TM     -0.074000
     16 CAE        -1.3330   -4.3750    2.3960 ca        1 1TM     -0.187500
     17 CAF        -2.0670   -4.7960    3.5150 ca        1 1TM      0.134100
     18 OAI        -1.8460   -6.0000    4.1390 oh        1 1TM     -0.494100
     19 CAG        -3.0790   -3.9860    4.0580 ca        1 1TM     -0.187500
     20 CAH        -3.3500   -2.7570    3.4690 ca        1 1TM     -0.074000
     21 H1         -0.5570    0.4330   -1.0120 ha        1 1TM      0.146500
     22 H2          1.9410    0.5520   -1.1000 ha        1 1TM      0.142500
     23 H3          3.9240   -0.0150    1.7550 ho        1 1TM      0.418000
     24 H4          2.1230   -0.4040    3.1240 ha        1 1TM      0.142500
     25 H5         -0.3660   -0.5130    3.2070 ha        1 1TM      0.146500
     26 H6         -1.6390    2.3840    0.2080 hn        1 1TM      0.391800
     27 H7         -3.2160    2.8360   -0.0640 hn        1 1TM      0.391800
     28 H9         -1.0440   -2.7980    0.9420 ha        1 1TM      0.145000
     29 H10        -0.5430   -5.0140    1.9780 ha        1 1TM      0.146500
     30 H11        -1.1330   -6.4560    3.6670 ho        1 1TM      0.422000
     31 H12        -3.6380   -4.3320    4.9380 ha        1 1TM      0.146500
     32 H13        -4.1350   -2.1160    3.9000 ha        1 1TM      0.145000
     33 H8         -5.0590   -1.0500    1.7560 hn        1 1TM      0.322700
@<TRIPOS>BOND
     1    1    2 ar  
     2    1    7 ar  
     3    1   21 1   
     4    2    3 ar  
     5    2   22 1   
     6    3    4 1   
     7    3    5 ar  
     8    4   23 1   
     9    5    6 ar  
    10    5   24 1   
    11    6    7 ar  
    12    6   25 1   
    13    7    8 1   
    14    8    9 1   
    15    8   13 2   
    16    9   10 1   
    17    9   11 2   
    18   10   26 1   
    19   10   27 1   
    20   11   12 1   
    21   12   13 1   
    22   12   33 1   
    23   13   14 1   
    24   14   15 ar  
    25   14   20 ar  
    26   15   16 ar  
    27   15   28 1   
    28   16   17 ar  
    29   16   29 1   
    30   17   18 1   
    31   17   19 ar  
    32   18   30 1   
    33   19   20 ar  
    34   19   31 1   
    35   20   32 1   
@<TRIPOS>SUBSTRUCTURE
     1 1TM         1 TEMP              0 ****  ****    0 ROOT
