@<TRIPOS>MOLECULE
1TM
   33    35     1     0     0
SMALL
bcc


@<TRIPOS>ATOM
      1 CAO         0.0400    0.2520   -0.0990 ca        1 1TM     -0.088500
      2 CAP         1.4270    0.3150   -0.1560 ca        1 1TM     -0.188500
      3 CAQ         2.1720    0.0800    1.0120 ca        1 1TM      0.120100
      4 OAT         3.5410    0.1560    0.8950 oh        1 1TM     -0.498100
      5 CAR         1.5310   -0.2180    2.2220 ca        1 1TM     -0.188500
      6 CAS         0.1410   -0.2760    2.2610 ca        1 1TM     -0.088500
      7 CAN        -0.6200   -0.0410    1.1060 ca        1 1TM     -0.039000
      8 CAJ        -2.0590   -0.0760    1.1580 cc        1 1TM     -0.226300
      9 CAK        -2.9590    0.9640    0.6470 cc        1 1TM      0.517200
     10 NAM        -2.5470    2.0840   -0.0770 nv        1 1TM     -0.887500
     11 NAL        -4.2670    0.6150    0.9180 nd        1 1TM     -0.559800
     12 NAA        -4.2190   -0.5530    1.5560 na        1 1TM     -0.013600
     13 CAB        -2.9180   -1.0460    1.7180 cd        1 1TM     -0.014300
     14 CAC        -2.6290   -2.3220    2.3450 ca        1 1TM     -0.070000
     15 CAD        -1.6180   -3.1410    1.8220 ca        1 1TM     -0.074000
     16 CAE        -1.3370   -4.3730    2.4040 ca        1 1TM     -0.187500
     17 CAF        -2.0750   -4.7910    3.5210 ca        1 1TM      0.134100
     18 OAI        -1.8560   -5.9950    4.1480 oh        1 1TM     -0.494100
     19 CAG        -3.0880   -3.9790    4.0580 ca        1 1TM     -0.187500
     20 CAH        -3.3570   -2.7520    3.4660 ca        1 1TM     -0.074000
     21 H1         -0.5490    0.4250   -1.0140 ha        1 1TM      0.146500
     22 H2          1.9490    0.5420   -1.0960 ha        1 1TM      0.142500
     23 H3          3.9240   -0.0180    1.7660 ho        1 1TM      0.418000
     24 H4          2.1190   -0.4020    3.1320 ha        1 1TM      0.142500
     25 H5         -0.3690   -0.5090    3.2080 ha        1 1TM      0.146500
     26 H6         -3.2080    2.8330   -0.0790 hn        1 1TM      0.391800
     27 H7         -1.6330    2.3800    0.1990 hn        1 1TM      0.391800
     28 H9         -1.0420   -2.7990    0.9480 ha        1 1TM      0.145000
     29 H10        -0.5450   -5.0130    1.9900 ha        1 1TM      0.146500
     30 H11        -1.1420   -6.4510    3.6800 ho        1 1TM      0.422000
     31 H12        -3.6510   -4.3240    4.9370 ha        1 1TM      0.146500
     32 H13        -4.1430   -2.1100    3.8930 ha        1 1TM      0.145000
     33 H8         -5.0600   -1.0480    1.7450 hn        1 1TM      0.322700
@<TRIPOS>BOND
     1    1    2 ar  
     2    1    7 ar  
     3    1   21 1   
     4    2    3 ar  
     5    2   22 1   
     6    3    4 1   
     7    3    5 ar  
     8    4   23 1   
     9    5    6 ar  
    10    5   24 1   
    11    6    7 ar  
    12    6   25 1   
    13    7    8 1   
    14    8    9 1   
    15    8   13 2   
    16    9   10 1   
    17    9   11 2   
    18   10   26 1   
    19   10   27 1   
    20   11   12 1   
    21   12   13 1   
    22   12   33 1   
    23   13   14 1   
    24   14   15 ar  
    25   14   20 ar  
    26   15   16 ar  
    27   15   28 1   
    28   16   17 ar  
    29   16   29 1   
    30   17   18 1   
    31   17   19 ar  
    32   18   30 1   
    33   19   20 ar  
    34   19   31 1   
    35   20   32 1   
@<TRIPOS>SUBSTRUCTURE
     1 1TM         1 TEMP              0 ****  ****    0 ROOT
