@<TRIPOS>MOLECULE
1TM
   34    36     1     0     0
SMALL
bcc


@<TRIPOS>ATOM
      1 CAO         0.0180    0.1450   -0.1050 ca        1 1TM     -0.085000
      2 CAP         1.3950    0.2510   -0.2180 ca        1 1TM     -0.181500
      3 CAQ         2.1840    0.2130    0.9500 ca        1 1TM      0.162100
      4 OAT         3.5350    0.3330    0.7690 oh        1 1TM     -0.475100
      5 CAR         1.5880    0.0630    2.2110 ca        1 1TM     -0.181500
      6 CAS         0.2040   -0.0430    2.3060 ca        1 1TM     -0.085000
      7 CAN        -0.5940    0.0060    1.1540 ca        1 1TM     -0.119000
      8 CAJ        -2.0300   -0.0740    1.2500 cc        1 1TM     -0.133300
      9 CAK        -2.9500    0.9470    0.7780 cc        1 1TM      0.285200
     10 NAM        -2.5440    2.1790    0.1420 n4        1 1TM     -0.770300
     11 NAL        -4.2610    0.5910    1.0370 nd        1 1TM     -0.449800
     12 NAA        -4.1940   -0.5810    1.6280 na        1 1TM      0.036400
     13 CAB        -2.8780   -1.0620    1.8010 cd        1 1TM      0.035700
     14 CAC        -2.5850   -2.3390    2.4140 ca        1 1TM     -0.129000
     15 CAD        -1.5840   -3.1590    1.8720 ca        1 1TM     -0.055500
     16 CAE        -1.3000   -4.3940    2.4440 ca        1 1TM     -0.186500
     17 CAF        -2.0230   -4.8140    3.5720 ca        1 1TM      0.173100
     18 OAI        -1.8060   -6.0120    4.1940 oh        1 1TM     -0.474100
     19 CAG        -3.0280   -3.9960    4.1290 ca        1 1TM     -0.186500
     20 CAH        -3.3010   -2.7690    3.5460 ca        1 1TM     -0.055500
     21 H1         -0.5970    0.1270   -1.0190 ha        1 1TM      0.142000
     22 H2          1.8870    0.3490   -1.1980 ha        1 1TM      0.163500
     23 H3          3.9730    0.2570    1.6320 ho        1 1TM      0.438000
     24 H4          2.2090    0.0230    3.1180 ha        1 1TM      0.163500
     25 H5         -0.2670   -0.1690    3.2940 ha        1 1TM      0.142000
     26 H6         -1.5230    2.1290   -0.0030 hn        1 1TM      0.471467
     27 H7         -2.7720    2.9780    0.7470 hn        1 1TM      0.471467
     28 H9         -1.0200   -2.8230    0.9880 ha        1 1TM      0.143000
     29 H10        -0.5170   -5.0370    2.0150 ha        1 1TM      0.163000
     30 H11        -1.1060   -6.4870    3.7190 ho        1 1TM      0.437000
     31 H12        -3.5770   -4.3440    5.0170 ha        1 1TM      0.163000
     32 H13        -4.0780   -2.1270    3.9900 ha        1 1TM      0.143000
     33 H8         -5.0340   -1.0490    1.9100 hn        1 1TM      0.359700
     34 HAM3       -3.0200    2.2900   -0.7600 hn        1 1TM      0.471467
@<TRIPOS>BOND
     1    1    2 ar  
     2    1    7 ar  
     3    1   21 1   
     4    2    3 ar  
     5    2   22 1   
     6    3    4 1   
     7    3    5 ar  
     8    4   23 1   
     9    5    6 ar  
    10    5   24 1   
    11    6    7 ar  
    12    6   25 1   
    13    7    8 1   
    14    8    9 1   
    15    8   13 2   
    16    9   10 1   
    17    9   11 2   
    18   10   26 1   
    19   10   27 1   
    20   10   34 1   
    21   11   12 1   
    22   12   13 1   
    23   12   33 1   
    24   13   14 1   
    25   14   15 ar  
    26   14   20 ar  
    27   15   16 ar  
    28   15   28 1   
    29   16   17 ar  
    30   16   29 1   
    31   17   18 1   
    32   17   19 ar  
    33   18   30 1   
    34   19   20 ar  
    35   19   31 1   
    36   20   32 1   
@<TRIPOS>SUBSTRUCTURE
     1 1TM         1 TEMP              0 ****  ****    0 ROOT
