@<TRIPOS>MOLECULE
1TN
   44    41     1     0     0
SMALL
bcc


@<TRIPOS>ATOM
      1 C10         1.5220    0.4540   -0.9170 c3        1 1TN     -0.196000
      2 C15         5.7420    0.4770   -6.3210 c2        1 1TN      0.142000
      3 C17         6.0560   -0.8420   -8.6190 c1        1 1TN      0.282000
      4 C20         7.1070    1.0570   -6.5230 c3        1 1TN     -0.250000
      5 C01         5.5400   -2.9020   -3.2200 c1        1 1TN     -0.123000
      6 C02         5.9250   -1.8770   -3.6990 c1        1 1TN     -0.196000
      7 C03         6.4130   -0.6550   -4.2880 c3        1 1TN      0.196000
      8 C04         6.6360    0.4250   -3.2550 c2        1 1TN     -0.019000
      9 C05         5.6630    0.9130   -2.4630 c2        1 1TN     -0.175000
     10 C06         5.8290    1.9480   -1.4670 c2        1 1TN     -0.146000
     11 C07         4.8350    2.3460   -0.6670 c2        1 1TN     -0.185000
     12 C08         2.2370    0.3700   -3.2950 c2        1 1TN     -0.225000
     13 C09         2.0150   -0.2320   -2.1280 c2        1 1TN     -0.178000
     14 C11        -1.6270   -0.9750    0.6680 c2        1 1TN     -0.220000
     15 O14         5.3750   -0.2120   -5.2110 os        1 1TN     -0.159000
     16 C16         4.8170    0.6120   -7.3300 c2        1 1TN     -0.313000
     17 C18         7.3360   -0.5080   -8.4430 c2        1 1TN     -0.543000
     18 C19         7.9180    0.4400   -7.5740 c1        1 1TN      0.005000
     19 N21         3.4620    0.0530   -7.3230 no        1 1TN      0.585000
     20 O22         2.7140    0.4000   -8.2020 o         1 1TN     -0.361500
     21 O23         3.1200   -0.7140   -6.4630 o         1 1TN     -0.361500
     22 H1          2.2180    0.2750   -0.0590 hc        1 1TN      0.079667
     23 H2          1.4310    1.5580   -1.0720 hc        1 1TN      0.079667
     24 H3          4.9730    1.3160   -8.1680 h4        1 1TN      0.199000
     25 H4          7.7110    1.0510   -5.5680 hc        1 1TN      0.175500
     26 H5          5.2040   -3.8140   -2.7930 ha        1 1TN      0.232000
     27 H6          7.3710   -0.8660   -4.8500 h1        1 1TN      0.139000
     28 H7          4.6410    0.4970   -2.5780 ha        1 1TN      0.169000
     29 H8          6.8240    2.4200   -1.3870 ha        1 1TN      0.110000
     30 H9          3.8260    1.9090   -0.7110 ha        1 1TN      0.121500
     31 H10         4.9730    3.1350    0.0830 ha        1 1TN      0.121500
     32 H11         2.1880   -1.3150   -2.0100 ha        1 1TN      0.117000
     33 H12         0.5120    0.0560   -0.6330 hc        1 1TN      0.079667
     34 H13        -0.7390   -1.6200    0.6250 ha        1 1TN      0.110500
     35 H15         8.1230    1.3890   -2.5110 ho        1 1TN      0.230000
     36 H16         8.0740   -1.0160   -9.1110 ha        1 1TN      0.216000
     37 H17         7.0070    2.1490   -6.8090 hc        1 1TN      0.175500
     38 C12        -2.1450   -0.3970   -0.4070 c2        1 1TN     -0.220000
     39 H18         2.5980   -0.1720   -4.1820 ha        1 1TN      0.122500
     40 H19         2.0650    1.4450   -3.4460 ha        1 1TN      0.122500
     41 H14        -1.7200   -0.5240   -1.4120 ha        1 1TN      0.110500
     42 H20        -2.0520   -0.8500    1.6730 ha        1 1TN      0.110500
     43 H21        -3.0340    0.2470   -0.3640 ha        1 1TN      0.110500
     44 O13         7.9550    0.8270   -3.2810 oh        1 1TN     -0.270000
@<TRIPOS>BOND
     1    1   13 1   
     2    1   22 1   
     3    1   23 1   
     4    1   33 1   
     5    2    4 1   
     6    2   15 1   
     7    2   16 1   
     8    3   17 1   
     9    4   18 1   
    10    4   25 1   
    11    4   37 1   
    12    5    6 1   
    13    5   26 1   
    14    6    7 1   
    15    7    8 1   
    16    7   15 1   
    17    7   27 1   
    18    8    9 1   
    19    8   44 1   
    20    9   10 1   
    21    9   28 1   
    22   10   11 1   
    23   10   29 1   
    24   11   30 1   
    25   11   31 1   
    26   12   13 1   
    27   12   39 1   
    28   12   40 1   
    29   13   32 1   
    30   14   34 1   
    31   14   38 1   
    32   14   42 1   
    33   16   19 1   
    34   16   24 1   
    35   17   18 1   
    36   17   36 1   
    37   19   20 1   
    38   19   21 1   
    39   35   44 1   
    40   38   41 1   
    41   38   43 1   
@<TRIPOS>SUBSTRUCTURE
     1 1TN         1 TEMP              0 ****  ****    0 ROOT
