@<TRIPOS>MOLECULE
1TN
   44    42     1     0     0
SMALL
bcc


@<TRIPOS>ATOM
      1 C10        -0.4390    0.7940   -0.6290 c3        1 1TN     -0.190000
      2 C15         6.8610   -0.1540   -7.1570 c2        1 1TN      0.141000
      3 C17        11.0870    0.9760   -9.2300 c1        1 1TN      0.403000
      4 C20         8.3040    0.1540   -6.9230 c3        1 1TN     -0.207000
      5 C01         5.0580   -1.3020   -2.8810 c3        1 1TN     -0.209000
      6 C02         5.9470   -1.5250   -3.9980 c1        1 1TN      0.018000
      7 C03         6.5030   -0.3860   -4.7750 c3        1 1TN      0.017000
      8 C04         6.0830    0.9800   -4.2990 c2        1 1TN     -0.004000
      9 C05         5.2960    1.1820   -3.2230 c2        1 1TN     -0.206000
     10 C06         4.7610    0.0900   -2.4320 c2        1 1TN     -0.085000
     11 C07         4.0190    0.3170   -1.3380 c2        1 1TN     -0.207000
     12 C08        -0.0570    0.5490   -3.0700 c2        1 1TN     -0.218000
     13 C09         0.4090    0.6200   -1.8250 c2        1 1TN     -0.173000
     14 C11        -1.2710   -0.9890    2.8180 c2        1 1TN     -0.219500
     15 O14         6.0670   -0.5980   -6.1270 os        1 1TN     -0.147000
     16 C16         6.3040   -0.0520   -8.3920 c2        1 1TN     -0.253000
     17 C18        10.4170    0.6450   -8.1290 c2        1 1TN     -0.546000
     18 C19         9.0090    0.5050   -8.1550 c1        1 1TN     -0.019000
     19 N21         4.8990   -0.2950   -8.7160 no        1 1TN      0.570000
     20 O22         4.5660   -0.1920   -9.8720 o         1 1TN     -0.373000
     21 O23         4.1040   -0.5780   -7.8580 o         1 1TN     -0.373000
     22 H1         -0.1440    1.7230   -0.0780 hc        1 1TN      0.079333
     23 H2         -1.5220    0.8730   -0.8940 hc        1 1TN      0.079333
     24 H3          6.9120    0.2340   -9.2730 h4        1 1TN      0.222000
     25 H4          8.7850   -0.7270   -6.4070 hc        1 1TN      0.141500
     26 H5          5.4350   -1.9180   -2.0110 hc        1 1TN      0.166500
     27 H6          7.6270   -0.4730   -4.6720 h1        1 1TN      0.133000
     28 H7          5.0290    2.2030   -2.9050 ha        1 1TN      0.137000
     29 H8          4.0930   -1.8080   -3.2120 hc        1 1TN      0.166500
     30 H9          3.7800    1.3290   -0.9880 ha        1 1TN      0.119500
     31 H10         3.6100   -0.5010   -0.7310 ha        1 1TN      0.119500
     32 H11         1.4920    0.5480   -1.6200 ha        1 1TN      0.115000
     33 H12        -0.3110   -0.0750    0.0660 hc        1 1TN      0.079333
     34 H13        -0.7370   -1.4960    2.0030 ha        1 1TN      0.109500
     35 H15         6.2140    2.8260   -4.8050 ho        1 1TN      0.229000
     36 H16        11.0010    0.4800   -7.1960 ha        1 1TN      0.172000
     37 H17         8.3620    1.0400   -6.2160 hc        1 1TN      0.141500
     38 C12        -1.7390    0.2460    2.7040 c2        1 1TN     -0.219500
     39 H18         0.6030    0.4190   -3.9370 ha        1 1TN      0.114000
     40 H19        -1.1260    0.6170   -3.3090 ha        1 1TN      0.114000
     41 H14        -1.6220    0.8400    1.7850 ha        1 1TN      0.109500
     42 H20        -1.3860   -1.5870    3.7320 ha        1 1TN      0.109500
     43 H21        -2.2750    0.7570    3.5150 ha        1 1TN      0.109500
     44 O13         6.6380    1.9890   -5.0490 oh        1 1TN     -0.269000
@<TRIPOS>BOND
     1    1   13 1   
     2    1   22 1   
     3    1   23 1   
     4    1   33 1   
     5    2    4 1   
     6    2   15 1   
     7    2   16 1   
     8    3   17 1   
     9    4   18 1   
    10    4   25 1   
    11    4   37 1   
    12    5    6 1   
    13    5   10 1   
    14    5   26 1   
    15    5   29 1   
    16    6    7 1   
    17    7    8 1   
    18    7   15 1   
    19    7   27 1   
    20    8    9 1   
    21    8   44 1   
    22    9   10 1   
    23    9   28 1   
    24   10   11 1   
    25   11   30 1   
    26   11   31 1   
    27   12   13 1   
    28   12   39 1   
    29   12   40 1   
    30   13   32 1   
    31   14   34 1   
    32   14   38 1   
    33   14   42 1   
    34   16   19 1   
    35   16   24 1   
    36   17   18 1   
    37   17   36 1   
    38   19   20 1   
    39   19   21 1   
    40   35   44 1   
    41   38   41 1   
    42   38   43 1   
@<TRIPOS>SUBSTRUCTURE
     1 1TN         1 TEMP              0 ****  ****    0 ROOT
