@<TRIPOS>MOLECULE
1TP
   54    55     1     0     0
SMALL
bcc


@<TRIPOS>ATOM
      1 N1'        -1.6170   -1.5520    2.0380 nb        1 1TP     -0.766000
      2 C2'        -1.1070   -1.3430    0.7870 ca        1 1TP      0.636300
      3 C2A        -1.7750   -2.0800   -0.3520 c3        1 1TP     -0.118400
      4 N3'        -0.0690   -0.5250    0.4630 nb        1 1TP     -0.792000
      5 C4'         0.5380    0.1600    1.4970 ca        1 1TP      0.686200
      6 N4'         1.7040    0.8650    1.2310 nv        1 1TP     -0.902500
      7 C5'         0.0370    0.0320    2.8430 ca        1 1TP     -0.338900
      8 C6'        -1.0420   -0.8410    3.0330 ca        1 1TP      0.447200
      9 C7'         0.6150    0.7860    4.0070 c3        1 1TP      0.221100
     10 N3          0.2120    2.1900    4.0430 n3        1 1TP     -0.709600
     11 C2          1.3280    3.1110    4.2440 c3        1 1TP      0.282600
     12 S1          1.2970    3.6890    5.9930 ss        1 1TP     -0.475200
     13 C5         -0.2600    2.8680    6.4040 c3        1 1TP      0.055400
     14 C4         -0.8520    2.4960    5.0270 c3        1 1TP      0.166500
     15 C4A        -1.9330    1.4440    5.2140 c3        1 1TP     -0.121100
     16 C5A        -1.1750    3.7400    7.2280 c3        1 1TP     -0.112400
     17 C5B        -1.2580    3.3180    8.7100 c3        1 1TP      0.216400
     18 O5G        -1.4580    1.9660    8.8870 os        1 1TP     -0.586200
     19 P1         -3.0510    1.4810    9.2540 p5        1 1TP      1.573800
     20 O11        -3.3960    2.2850   10.5480 os        1 1TP     -0.816800
     21 O12        -3.7420    1.9570    8.0150 o         1 1TP     -0.926500
     22 O13        -2.9060    0.0090    9.4330 o         1 1TP     -0.926500
     23 P2         -3.9260    3.1040   12.0360 p5        1 1TP      1.461900
     24 O21        -5.3830    2.7400   12.1520 o         1 1TP     -0.964167
     25 O22        -3.0620    2.5320   13.1270 o         1 1TP     -0.964167
     26 O23        -3.6610    4.5560   11.7380 o         1 1TP     -0.964167
     27 C15         1.3970    4.2900    3.2290 c3        1 1TP      0.065800
     28 O25         2.3910    5.2120    3.6890 oh        1 1TP     -0.615800
     29 C35         0.1030    5.0640    3.1090 c3        1 1TP     -0.063100
     30 C25         1.8960    3.7570    1.8570 c         1 1TP      0.881600
     31 O35         1.1440    3.7070    0.8450 o         1 1TP     -0.860800
     32 O45         3.1150    3.3850    1.8120 o         1 1TP     -0.860800
     33 H2A1       -1.1600   -2.0370   -1.2820 hc        1 1TP      0.034367
     34 H2A2       -1.9360   -3.1500   -0.0770 hc        1 1TP      0.034367
     35 H2A3       -2.7680   -1.6080   -0.5550 hc        1 1TP      0.034367
     36 H4'1        1.7450    1.3340    0.3470 hn        1 1TP      0.435300
     37 H4'2        1.9950    1.4760    1.9740 hn        1 1TP      0.435300
     38 H6'        -1.4880   -0.9730    4.0400 h4        1 1TP      0.047100
     39 H7'1        1.7400    0.6860    3.9560 h1        1 1TP      0.045700
     40 H7'2        0.3070    0.2500    4.9540 h1        1 1TP      0.045700
     41 H2          2.3230    2.5910    4.1390 h2        1 1TP      0.058700
     42 H5         -0.0250    1.9420    6.9920 h1        1 1TP      0.112700
     43 H4         -1.3500    3.4220    4.6030 h1        1 1TP      0.062700
     44 H4A1       -1.5390    0.5210    5.7030 hc        1 1TP      0.065033
     45 H4A2       -2.3970    1.1740    4.2360 hc        1 1TP      0.065033
     46 H4A3       -2.7230    1.8530    5.9120 hc        1 1TP      0.065033
     47 H5A1       -0.8340    4.8060    7.1800 hc        1 1TP      0.047700
     48 H5A2       -2.2170    3.6900    6.8080 hc        1 1TP      0.047700
     49 H5B1       -0.2760    3.5970    9.1950 h1        1 1TP      0.017700
     50 H5B2       -2.0880    3.9070    9.1930 h1        1 1TP      0.017700
     51 H25         3.2440    4.7860    3.5250 ho        1 1TP      0.403000
     52 H351       -0.6470    4.4350    2.5740 hc        1 1TP      0.038033
     53 H352        0.2790    5.9950    2.5190 hc        1 1TP      0.038033
     54 H353       -0.2770    5.3410    4.1220 hc        1 1TP      0.038033
@<TRIPOS>BOND
     1    1    2 ar  
     2    1    8 ar  
     3    2    3 1   
     4    2    4 ar  
     5    3   33 1   
     6    3   34 1   
     7    3   35 1   
     8    4    5 ar  
     9    5    6 1   
    10    5    7 ar  
    11    6   36 1   
    12    6   37 1   
    13    7    8 ar  
    14    7    9 1   
    15    8   38 1   
    16    9   10 1   
    17    9   39 1   
    18    9   40 1   
    19   10   11 1   
    20   10   14 1   
    21   11   12 1   
    22   11   27 1   
    23   11   41 1   
    24   12   13 1   
    25   13   14 1   
    26   13   16 1   
    27   13   42 1   
    28   14   15 1   
    29   14   43 1   
    30   15   44 1   
    31   15   45 1   
    32   15   46 1   
    33   16   17 1   
    34   16   47 1   
    35   16   48 1   
    36   17   18 1   
    37   17   49 1   
    38   17   50 1   
    39   18   19 1   
    40   19   20 1   
    41   19   21 1   
    42   19   22 1   
    43   20   23 1   
    44   23   24 1   
    45   23   25 1   
    46   23   26 1   
    47   27   28 1   
    48   27   29 1   
    49   27   30 1   
    50   28   51 1   
    51   29   52 1   
    52   29   53 1   
    53   29   54 1   
    54   30   31 1   
    55   30   32 1   
@<TRIPOS>SUBSTRUCTURE
     1 1TP         1 TEMP              0 ****  ****    0 ROOT
