@<TRIPOS>MOLECULE
1TP
   54    52     1     0     0
SMALL
bcc


@<TRIPOS>ATOM
      1 N1'         4.7480    1.9010   -1.5850 n1        1 1TP     -0.577800
      2 C2'         5.5160    2.4610   -0.5910 c1        1 1TP      0.381700
      3 C2A         7.0040    2.7520   -0.8420 c3        1 1TP     -0.053000
      4 N3'         4.9360    2.8370    0.5900 n1        1 1TP     -0.619800
      5 C4'         3.6180    2.6600    0.7790 c1        1 1TP      0.243800
      6 N4'         3.0290    2.9670    2.0500 n3        1 1TP     -0.786400
      7 C5'         2.8460    2.0950   -0.2240 c1        1 1TP     -0.171100
      8 C6'         3.4280    1.7210   -1.4000 c1        1 1TP      0.359300
      9 C7'         1.2580    1.9970   -0.0530 c3        1 1TP      0.205900
     10 N3          0.9100    0.7140    0.5710 n3        1 1TP     -0.748600
     11 C2         -0.2410    0.8830    1.3720 c3        1 1TP      0.317600
     12 S1         -1.0840   -0.5600    1.2360 ss        1 1TP     -0.424200
     13 C5         -0.3290   -1.3890   -0.0530 c3        1 1TP      0.067400
     14 C4          0.4900   -0.4410   -0.6590 c3        1 1TP      0.180500
     15 C4A         1.6510   -1.0590   -1.1590 c3        1 1TP     -0.093100
     16 C5A        -1.4420   -1.9250   -1.1000 c3        1 1TP     -0.120400
     17 C5B        -2.0180   -3.2300   -0.5940 c3        1 1TP      0.243400
     18 O5G        -3.4360   -3.2800   -0.8810 os        1 1TP     -0.564200
     19 P1         -4.2520   -4.6680   -0.5420 p5        1 1TP      1.578800
     20 O11        -5.7980   -4.3840   -0.5380 os        1 1TP     -0.805800
     21 O12        -3.8340   -5.1750    0.8060 o         1 1TP     -0.930500
     22 O13        -3.9310   -5.7220   -1.6080 o         1 1TP     -0.930500
     23 P2         -6.8740   -5.2990    0.2470 p5        1 1TP      1.465900
     24 O21        -6.2430   -5.8540    1.5000 o         1 1TP     -0.964167
     25 O22        -7.3120   -6.4390   -0.6420 o         1 1TP     -0.964167
     26 O23        -8.0830   -4.4520    0.6180 o         1 1TP     -0.964167
     27 C15        -1.1130    2.0850    0.8300 c3        1 1TP      0.025800
     28 O25        -1.0920    2.0820   -0.5620 oh        1 1TP     -0.613800
     29 C35        -2.5110    1.9400    1.3010 c3        1 1TP     -0.099100
     30 C25        -0.5540    3.3770    1.3340 c         1 1TP      0.883600
     31 O35        -0.5820    4.4220    0.5880 o         1 1TP     -0.849800
     32 O45        -0.1210    3.4590    2.5270 o         1 1TP     -0.849800
     33 H2A1        7.5270    2.5070   -0.0420 hc        1 1TP      0.036033
     34 H2A2        7.3170    2.2210   -1.6140 hc        1 1TP      0.036033
     35 H2A3        7.1230    3.7090   -1.0330 hc        1 1TP      0.036033
     36 H4'1        2.3700    2.4380    2.3860 hn        1 1TP      0.449800
     37 H4'2        3.3440    3.7110    2.5520 hn        1 1TP      0.449800
     38 H6'         2.8860    1.2870   -2.1020 ha        1 1TP      0.102500
     39 H7'1        0.8310    2.0620   -0.9220 h1        1 1TP      0.055700
     40 H7'2        0.9530    2.7170    0.5070 h1        1 1TP      0.055700
     41 H2          0.0210    1.0460    2.3320 h2        1 1TP      0.079700
     42 H5          0.2150   -2.1460    0.2930 h1        1 1TP      0.072700
     43 H4          0.0170   -0.0040   -1.3740 h1        1 1TP      0.047700
     44 H4A1        2.4220   -0.8390   -0.5680 hc        1 1TP      0.046033
     45 H4A2        1.8310   -0.7350   -2.0640 hc        1 1TP      0.046033
     46 H4A3        1.5190   -2.0650   -1.1800 hc        1 1TP      0.046033
     47 H5A1       -2.1770   -1.2450   -1.1890 hc        1 1TP      0.058700
     48 H5A2       -1.0190   -2.0730   -1.9860 hc        1 1TP      0.058700
     49 H5B1       -1.8750   -3.2960    0.4020 h1        1 1TP     -0.010800
     50 H5B2       -1.5620   -3.9890   -1.0450 h1        1 1TP     -0.010800
     51 H25        -1.8510    2.4740   -0.8760 ho        1 1TP      0.411000
     52 H351       -2.5160    1.5320    2.1920 hc        1 1TP      0.037033
     53 H352       -3.0120    1.3620    0.6690 hc        1 1TP      0.037033
     54 H353       -2.9460    2.8480    1.3450 hc        1 1TP      0.037033
@<TRIPOS>BOND
     1    1    8 3   
     2    2    3 1   
     3    2    4 3   
     4    3   33 1   
     5    3   34 1   
     6    3   35 1   
     7    5    6 1   
     8    5    7 3   
     9    6   36 1   
    10    6   37 1   
    11    7    9 1   
    12    8   38 1   
    13    9   10 1   
    14    9   39 1   
    15    9   40 1   
    16   10   11 1   
    17   10   14 1   
    18   11   12 1   
    19   11   27 1   
    20   11   41 1   
    21   12   13 1   
    22   13   14 1   
    23   13   16 1   
    24   13   42 1   
    25   14   15 1   
    26   14   43 1   
    27   15   44 1   
    28   15   45 1   
    29   15   46 1   
    30   16   17 1   
    31   16   47 1   
    32   16   48 1   
    33   17   18 1   
    34   17   49 1   
    35   17   50 1   
    36   18   19 1   
    37   19   20 1   
    38   19   21 1   
    39   19   22 1   
    40   20   23 1   
    41   23   24 1   
    42   23   25 1   
    43   23   26 1   
    44   27   28 1   
    45   27   29 1   
    46   27   30 1   
    47   28   51 1   
    48   29   52 1   
    49   29   53 1   
    50   29   54 1   
    51   30   31 1   
    52   30   32 1   
@<TRIPOS>SUBSTRUCTURE
     1 1TP         1 TEMP              0 ****  ****    0 ROOT
