@<TRIPOS>MOLECULE
1TP
   54    55     1     0     0
SMALL
bcc


@<TRIPOS>ATOM
      1 N1'        -1.3940   -1.6930    2.1560 nb        1 1TP     -0.766000
      2 C2'        -0.9230   -1.4830    0.8900 ca        1 1TP      0.636300
      3 C2A        -1.5540   -2.3010   -0.2140 c3        1 1TP     -0.118400
      4 N3'         0.0440   -0.5990    0.5230 nb        1 1TP     -0.792000
      5 C4'         0.6150    0.1590    1.5260 ca        1 1TP      0.686200
      6 N4'         1.7190    0.9420    1.2180 nh        1 1TP     -0.902500
      7 C5'         0.1490    0.0330    2.8850 ca        1 1TP     -0.338900
      8 C6'        -0.8560   -0.9120    3.1200 ca        1 1TP      0.447200
      9 C7'         0.6900    0.8610    4.0160 c3        1 1TP      0.221100
     10 N3          0.1820    2.2320    4.0220 n3        1 1TP     -0.709600
     11 C2          1.2290    3.2390    4.1750 c3        1 1TP      0.282600
     12 S1          1.1860    3.8630    5.9080 ss        1 1TP     -0.475200
     13 C5         -0.2980    2.9400    6.3720 c3        1 1TP      0.055400
     14 C4         -0.8840    2.4850    5.0180 c3        1 1TP      0.166500
     15 C4A        -1.8790    1.3600    5.2550 c3        1 1TP     -0.121100
     16 C5A        -1.2610    3.7650    7.1900 c3        1 1TP     -0.112400
     17 C5B        -1.2850    3.3810    8.6840 c3        1 1TP      0.216400
     18 O5G        -1.3790    2.0230    8.9030 os        1 1TP     -0.586200
     19 P1         -2.9240    1.4310    9.3150 p5        1 1TP      1.573800
     20 O11        -3.3060    2.2440   10.5920 os        1 1TP     -0.816800
     21 O12        -3.6710    1.8170    8.0760 o         1 1TP     -0.926500
     22 O13        -2.6650   -0.0200    9.5310 o         1 1TP     -0.926500
     23 P2         -3.8700    3.0630   12.0670 p5        1 1TP      1.461900
     24 O21        -5.2930    2.5940   12.2230 o         1 1TP     -0.964167
     25 O22        -2.9450    2.5900   13.1560 o         1 1TP     -0.964167
     26 O23        -3.7210    4.5210   11.7240 o         1 1TP     -0.964167
     27 C15         1.1910    4.3910    3.1270 c3        1 1TP      0.065800
     28 O25         2.1200    5.3970    3.5420 oh        1 1TP     -0.615800
     29 C35        -0.1600    5.0610    3.0120 c3        1 1TP     -0.063100
     30 C25         1.7030    3.8570    1.7600 c         1 1TP      0.881600
     31 O35         0.9400    3.7210    0.7660 o         1 1TP     -0.860800
     32 O45         2.9460    3.5760    1.7010 o         1 1TP     -0.860800
     33 H2A1       -1.6190   -3.3730    0.0900 hc        1 1TP      0.034367
     34 H2A2       -0.9660   -2.2320   -1.1600 hc        1 1TP      0.034367
     35 H2A3       -2.5860   -1.9170   -0.4040 hc        1 1TP      0.034367
     36 H4'1        1.9770    1.5940    1.9380 hn        1 1TP      0.435300
     37 H4'2        1.7090    1.3870    0.3210 hn        1 1TP      0.435300
     38 H6'        -1.2740   -1.0480    4.1390 h4        1 1TP      0.047100
     39 H7'1        0.4400    0.3320    4.9840 h1        1 1TP      0.045700
     40 H7'2        1.8180    0.8440    3.9460 h1        1 1TP      0.045700
     41 H2          2.2580    2.7920    4.0650 h2        1 1TP      0.058700
     42 H5          0.0170    2.0510    6.9800 h1        1 1TP      0.112700
     43 H4         -1.4580    3.3590    4.5780 h1        1 1TP      0.062700
     44 H4A1       -2.6840    1.7280    5.9570 hc        1 1TP      0.065033
     45 H4A2       -1.4070    0.4840    5.7610 hc        1 1TP      0.065033
     46 H4A3       -2.3380    1.0290    4.2940 hc        1 1TP      0.065033
     47 H5A1       -2.3030    3.6240    6.7930 hc        1 1TP      0.047700
     48 H5A2       -1.0020    4.8520    7.1050 hc        1 1TP      0.047700
     49 H5B1       -0.3190    3.7470    9.1420 h1        1 1TP      0.017700
     50 H5B2       -2.1490    3.9200    9.1680 h1        1 1TP      0.017700
     51 H25         3.0000    5.0320    3.3720 ho        1 1TP      0.403000
     52 H351       -0.0660    5.9860    2.3930 hc        1 1TP      0.038033
     53 H352       -0.8700    4.3630    2.5090 hc        1 1TP      0.038033
     54 H353       -0.5420    5.3380    4.0240 hc        1 1TP      0.038033
@<TRIPOS>BOND
     1    1    2 ar  
     2    1    8 ar  
     3    2    3 1   
     4    2    4 ar  
     5    3   33 1   
     6    3   34 1   
     7    3   35 1   
     8    4    5 ar  
     9    5    6 1   
    10    5    7 ar  
    11    6   36 1   
    12    6   37 1   
    13    7    8 ar  
    14    7    9 1   
    15    8   38 1   
    16    9   10 1   
    17    9   39 1   
    18    9   40 1   
    19   10   11 1   
    20   10   14 1   
    21   11   12 1   
    22   11   27 1   
    23   11   41 1   
    24   12   13 1   
    25   13   14 1   
    26   13   16 1   
    27   13   42 1   
    28   14   15 1   
    29   14   43 1   
    30   15   44 1   
    31   15   45 1   
    32   15   46 1   
    33   16   17 1   
    34   16   47 1   
    35   16   48 1   
    36   17   18 1   
    37   17   49 1   
    38   17   50 1   
    39   18   19 1   
    40   19   20 1   
    41   19   21 1   
    42   19   22 1   
    43   20   23 1   
    44   23   24 1   
    45   23   25 1   
    46   23   26 1   
    47   27   28 1   
    48   27   29 1   
    49   27   30 1   
    50   28   51 1   
    51   29   52 1   
    52   29   53 1   
    53   29   54 1   
    54   30   31 1   
    55   30   32 1   
@<TRIPOS>SUBSTRUCTURE
     1 1TP         1 TEMP              0 ****  ****    0 ROOT
