@<TRIPOS>MOLECULE
1TQ
   31    32     1     0     0
SMALL
bcc


@<TRIPOS>ATOM
      1 N          -4.6130    1.1520    5.2970 n3        1 1TQ     -0.885800
      2 CA         -3.6580    1.2820    6.3900 c3        1 1TQ      0.020500
      3 C          -4.0650    2.3250    7.4830 c         1 1TQ      0.887600
      4 O          -3.3250    2.4100    8.5050 o         1 1TQ     -0.842300
      5 CB         -2.2370    1.6160    5.8980 c3        1 1TQ     -0.008200
      6 CG         -1.3380    0.4540    5.9600 cc        1 1TQ     -0.048400
      7 CD1        -0.7480   -0.2380    4.9160 cd        1 1TQ     -0.175100
      8 CD2        -0.8800   -0.1730    7.1960 ca        1 1TQ     -0.092800
      9 NE1         0.0100   -1.3440    5.3960 na        1 1TQ     -0.181400
     10 CE2        -0.0030   -1.2440    6.8050 ca        1 1TQ     -0.078200
     11 CE3        -1.1350    0.0650    8.5420 ca        1 1TQ     -0.051000
     12 CZ2         0.6010   -2.0560    7.7720 ca        1 1TQ     -0.004900
     13 CZ3        -0.5160   -0.7310    9.5000 ca        1 1TQ     -0.179000
     14 CH2         0.3520   -1.7930    9.1440 ca        1 1TQ      0.054600
     15 OXT        -5.1100    3.0080    7.2990 o         1 1TQ     -0.842300
     16 O2          1.4770   -3.0680    7.4040 oh        1 1TQ     -0.533100
     17 CH3         0.9940   -2.4830   11.4660 c         1 1TQ      0.661900
     18 N2          0.9840   -2.6140   10.0980 n         1 1TQ     -0.470100
     19 O1          0.3990   -1.6230   12.1320 o         1 1TQ     -0.591100
     20 H          -4.6730    2.0390    4.8250 hn        1 1TQ      0.330800
     21 H2         -5.5170    0.9970    5.7110 hn        1 1TQ      0.330800
     22 HA         -3.6270    0.2820    6.9150 h1        1 1TQ      0.051700
     23 HB2        -2.2530    2.0270    4.8540 hc        1 1TQ      0.054200
     24 HB3        -1.8210    2.4150    6.5750 hc        1 1TQ      0.054200
     25 HD1        -0.8520   -0.0860    3.8420 h4        1 1TQ      0.158000
     26 HE1         0.8570   -1.5880    4.9440 hn        1 1TQ      0.256700
     27 HE3        -1.8390    0.8820    8.8260 ha        1 1TQ      0.224000
     28 HZ3        -0.7150   -0.5260   10.5660 ha        1 1TQ      0.169000
     29 HO2         0.9510   -3.6930    6.8830 ho        1 1TQ      0.406000
     30 HH3         1.6150   -3.2770   11.9540 h5        1 1TQ      0.007200
     31 HN2         1.5550   -3.3310    9.7040 hn        1 1TQ      0.319500
@<TRIPOS>BOND
     1    1    2 1   
     2    1   20 1   
     3    1   21 1   
     4    2    3 1   
     5    2    5 1   
     6    2   22 1   
     7    3    4 1   
     8    3   15 1   
     9    5    6 1   
    10    5   23 1   
    11    5   24 1   
    12    6    7 2   
    13    6    8 1   
    14    7    9 1   
    15    7   25 1   
    16    8   10 ar  
    17    8   11 ar  
    18    9   10 1   
    19    9   26 1   
    20   10   12 ar  
    21   11   13 ar  
    22   11   27 1   
    23   12   14 ar  
    24   12   16 1   
    25   13   14 ar  
    26   13   28 1   
    27   14   18 1   
    28   16   29 1   
    29   17   18 1   
    30   17   19 2   
    31   17   30 1   
    32   18   31 1   
@<TRIPOS>SUBSTRUCTURE
     1 1TQ         1 TEMP              0 ****  ****    0 ROOT
