@<TRIPOS>MOLECULE
1TR
   47    50     1     0     0
SMALL
bcc


@<TRIPOS>ATOM
      1 C4         -0.2610    0.1760    0.2300 ca        1 1TR      0.538100
      2 C5         -0.1460   -0.9160    1.1100 ca        1 1TR     -0.390600
      3 C6          0.4050   -0.6490    2.3820 ca        1 1TR      0.476200
      4 N1          0.8140    0.5610    2.7700 nb        1 1TR     -0.726000
      5 N3          0.1420    1.4300    0.5620 nb        1 1TR     -0.786000
      6 CAV        -3.2470   -1.2000    0.5730 ca        1 1TR     -0.071500
      7 CAW        -4.0630   -1.9700    1.3920 ca        1 1TR     -0.171500
      8 CAX        -4.3840   -3.2880    1.0110 ca        1 1TR      0.153900
      9 FAY        -5.1760   -4.0440    1.8040 f         1 1TR     -0.125900
     10 CAZ        -3.8840   -3.8180   -0.1940 ca        1 1TR     -0.171500
     11 CBA        -3.0730   -3.0330   -1.0050 ca        1 1TR     -0.071500
     12 CAU        -2.7420   -1.7240   -0.6250 ca        1 1TR     -0.075800
     13 CAI        -1.9120   -0.9020   -1.4940 cc        1 1TR      0.171400
     14 NAH        -2.1070   -0.8440   -2.8660 nc        1 1TR     -0.242600
     15 CAG        -1.1820    0.0390   -3.3430 cd        1 1TR     -0.059300
     16 CAF        -0.9340    0.4770   -4.6800 cd        1 1TR     -0.033000
     17 CAE         0.0640    1.3950   -4.9070 cc        1 1TR     -0.180300
     18 CAD         0.3740    1.8550   -6.2870 c3        1 1TR      0.179100
     19 NAB        -0.1900    3.2340   -6.5490 n4        1 1TR     -0.685400
     20 CAC         0.4720    3.8600   -7.7200 c3        1 1TR      0.080600
     21 CAA        -1.6620    3.1820   -6.7380 c3        1 1TR      0.080600
     22 CAM         0.8500    1.8940   -3.8250 cc        1 1TR     -0.207000
     23 CAL         0.6250    1.4700   -2.5340 cd        1 1TR     -0.007300
     24 NAK        -0.3780    0.5670   -2.2690 na        1 1TR      0.040700
     25 CAJ        -0.8320   -0.0440   -1.0980 cd        1 1TR     -0.198900
     26 C2          0.6840    1.5880    1.8300 ca        1 1TR      0.877900
     27 NAQ         1.1930    2.8410    2.1670 nh        1 1TR     -0.925500
     28 H1         -0.4790   -1.9210    0.8270 ha        1 1TR      0.172000
     29 H2          0.5190   -1.4580    3.1300 h4        1 1TR      0.044100
     30 H3         -2.9980   -0.1680    0.8680 ha        1 1TR      0.148500
     31 H4         -4.4650   -1.5620    2.3310 ha        1 1TR      0.160500
     32 H5         -4.1440   -4.8470   -0.4850 ha        1 1TR      0.160500
     33 H6         -2.6920   -3.4450   -1.9530 ha        1 1TR      0.148500
     34 H7         -1.5520    0.0450   -5.4830 ha        1 1TR      0.170000
     35 H8          1.4930    1.9160   -6.4320 hx        1 1TR      0.107200
     36 H9         -0.0550    1.1570   -7.0610 hx        1 1TR      0.107200
     37 H11         0.0120    4.8660   -7.9140 hx        1 1TR      0.104867
     38 H12         1.5690    3.9840   -7.5090 hx        1 1TR      0.104867
     39 H13         0.3370    3.2070   -8.6230 hx        1 1TR      0.104867
     40 H14        -1.9000    2.6530   -7.6990 hx        1 1TR      0.104867
     41 H15        -2.1220    2.6220   -5.8780 hx        1 1TR      0.104867
     42 H16        -2.0710    4.2270   -6.7740 hx        1 1TR      0.104867
     43 H17         1.6690    2.6010   -4.0190 ha        1 1TR      0.150000
     44 H18         1.2260    1.8300   -1.6770 h4        1 1TR      0.207000
     45 H19         1.4000    2.9980    3.1270 hn        1 1TR      0.435300
     46 H20         0.8600    3.6210    1.6510 hn        1 1TR      0.435300
     47 HAB1        0.0040    3.8060   -5.7140 hn        1 1TR      0.453800
@<TRIPOS>BOND
     1    1    2 ar  
     2    1    5 ar  
     3    1   25 1   
     4    2    3 ar  
     5    2   28 1   
     6    3    4 ar  
     7    3   29 1   
     8    4   26 ar  
     9    5   26 ar  
    10    6    7 ar  
    11    6   12 ar  
    12    6   30 1   
    13    7    8 ar  
    14    7   31 1   
    15    8    9 1   
    16    8   10 ar  
    17   10   11 ar  
    18   10   32 1   
    19   11   12 ar  
    20   11   33 1   
    21   12   13 1   
    22   13   14 1   
    23   13   25 2   
    24   14   15 2   
    25   15   16 1   
    26   15   24 1   
    27   16   17 2   
    28   16   34 1   
    29   17   18 1   
    30   17   22 1   
    31   18   19 1   
    32   18   35 1   
    33   18   36 1   
    34   19   20 1   
    35   19   21 1   
    36   19   47 1   
    37   20   37 1   
    38   20   38 1   
    39   20   39 1   
    40   21   40 1   
    41   21   41 1   
    42   21   42 1   
    43   22   23 2   
    44   22   43 1   
    45   23   24 1   
    46   23   44 1   
    47   24   25 1   
    48   26   27 1   
    49   27   45 1   
    50   27   46 1   
@<TRIPOS>SUBSTRUCTURE
     1 1TR         1 TEMP              0 ****  ****    0 ROOT
