@<TRIPOS>MOLECULE
1TR
   47    50     1     0     0
SMALL
bcc


@<TRIPOS>ATOM
      1 C4         -0.2540    0.1890    0.2300 ca        1 1TR      0.538100
      2 C5         -0.1280   -0.9000    1.1120 ca        1 1TR     -0.390600
      3 C6          0.4230   -0.6250    2.3820 ca        1 1TR      0.476200
      4 N1          0.8220    0.5900    2.7660 nb        1 1TR     -0.726000
      5 N3          0.1390    1.4470    0.5570 nb        1 1TR     -0.786000
      6 CAV        -3.2280   -1.2120    0.5820 ca        1 1TR     -0.071500
      7 CAW        -4.0350   -1.9870    1.4040 ca        1 1TR     -0.171500
      8 CAX        -4.3450   -3.3090    1.0280 ca        1 1TR      0.153900
      9 FAY        -5.1280   -4.0700    1.8240 f         1 1TR     -0.125900
     10 CAZ        -3.8420   -3.8390   -0.1760 ca        1 1TR     -0.171500
     11 CBA        -3.0390   -3.0480   -0.9920 ca        1 1TR     -0.071500
     12 CAU        -2.7190   -1.7360   -0.6160 ca        1 1TR     -0.075800
     13 CAI        -1.8980   -0.9090   -1.4880 cc        1 1TR      0.171400
     14 NAH        -2.0960   -0.8570   -2.8610 nc        1 1TR     -0.241600
     15 CAG        -1.1800    0.0330   -3.3420 cd        1 1TR     -0.059300
     16 CAF        -0.9390    0.4690   -4.6800 cd        1 1TR     -0.033000
     17 CAE         0.0510    1.3950   -4.9110 cc        1 1TR     -0.180300
     18 CAD         0.3550    1.8550   -6.2940 c3        1 1TR      0.179100
     19 NAB        -0.2210    3.2280   -6.5580 nx        1 1TR     -0.685400
     20 CAC         0.4340    3.8570   -7.7320 c3        1 1TR      0.080600
     21 CAA        -1.6930    3.1640   -6.7440 c3        1 1TR      0.080600
     22 CAM         0.8350    1.9050   -3.8320 cc        1 1TR     -0.207000
     23 CAL         0.6150    1.4820   -2.5400 cd        1 1TR     -0.007300
     24 NAK        -0.3790    0.5710   -2.2710 na        1 1TR      0.040700
     25 CAJ        -0.8250   -0.0400   -1.0970 cd        1 1TR     -0.198900
     26 C2          0.6810    1.6130    1.8230 ca        1 1TR      0.877900
     27 NAQ         1.1800    2.8720    2.1560 nv        1 1TR     -0.925500
     28 H1         -0.4520   -1.9090    0.8330 ha        1 1TR      0.172000
     29 H2          0.5460   -1.4300    3.1320 h4        1 1TR      0.044100
     30 H3         -2.9870   -0.1780    0.8730 ha        1 1TR      0.148500
     31 H4         -4.4390   -1.5800    2.3430 ha        1 1TR      0.160500
     32 H5         -4.0920   -4.8700   -0.4640 ha        1 1TR      0.160500
     33 H6         -2.6560   -3.4600   -1.9390 ha        1 1TR      0.148500
     34 H7         -1.5530    0.0300   -5.4810 ha        1 1TR      0.170000
     35 H8         -0.0700    1.1510   -7.0650 hx        1 1TR      0.107200
     36 H9          1.4720    1.9240   -6.4410 hx        1 1TR      0.107200
     37 H11         0.3010    3.2000   -8.6330 hx        1 1TR      0.104867
     38 H12        -0.0360    4.8580   -7.9280 hx        1 1TR      0.104867
     39 H13         1.5290    3.9900   -7.5240 hx        1 1TR      0.104867
     40 H14        -2.1470    2.6020   -5.8810 hx        1 1TR      0.104867
     41 H15        -1.9290    2.6310   -7.7030 hx        1 1TR      0.104867
     42 H16        -2.1100    4.2050   -6.7810 hx        1 1TR      0.104867
     43 H17         1.6470    2.6180   -4.0300 ha        1 1TR      0.150000
     44 H18         1.2160    1.8500   -1.6850 h4        1 1TR      0.207000
     45 H19         1.3870    3.0340    3.1160 hn        1 1TR      0.435300
     46 H20         0.8390    3.6480    1.6390 hn        1 1TR      0.435300
     47 HAB1       -0.0300    3.8040   -5.7250 hn        1 1TR      0.453800
@<TRIPOS>BOND
     1    1    2 ar  
     2    1    5 ar  
     3    1   25 1   
     4    2    3 ar  
     5    2   28 1   
     6    3    4 ar  
     7    3   29 1   
     8    4   26 ar  
     9    5   26 ar  
    10    6    7 ar  
    11    6   12 ar  
    12    6   30 1   
    13    7    8 ar  
    14    7   31 1   
    15    8    9 1   
    16    8   10 ar  
    17   10   11 ar  
    18   10   32 1   
    19   11   12 ar  
    20   11   33 1   
    21   12   13 1   
    22   13   14 1   
    23   13   25 2   
    24   14   15 2   
    25   15   16 1   
    26   15   24 1   
    27   16   17 2   
    28   16   34 1   
    29   17   18 1   
    30   17   22 1   
    31   18   19 1   
    32   18   35 1   
    33   18   36 1   
    34   19   20 1   
    35   19   21 1   
    36   19   47 1   
    37   20   37 1   
    38   20   38 1   
    39   20   39 1   
    40   21   40 1   
    41   21   41 1   
    42   21   42 1   
    43   22   23 2   
    44   22   43 1   
    45   23   24 1   
    46   23   44 1   
    47   24   25 1   
    48   26   27 1   
    49   27   45 1   
    50   27   46 1   
@<TRIPOS>SUBSTRUCTURE
     1 1TR         1 TEMP              0 ****  ****    0 ROOT
