@<TRIPOS>MOLECULE
1TS
   81    72     1     0     0
SMALL
bcc


@<TRIPOS>ATOM
      1 S8          0.6840   -3.5610   -0.1460 ss        1 1TS      2.862000
      2 CL          5.6350   -4.9830   -0.9000 cl        1 1TS      0.015000
      3 C35         2.3430   -3.5550    0.5950 c1        1 1TS     -0.835000
      4 C10         6.6600   -5.4250    2.6590 c3        1 1TS     -0.073000
      5 O9          6.1630   -4.2610    2.0110 os        1 1TS     -0.222000
      6 C5          4.7770   -4.3150    1.7150 c1        1 1TS      0.124000
      7 O1         -0.1600   -4.5470    0.4730 o         1 1TS     -0.931000
      8 O10         0.7200   -4.0340   -1.5010 o         1 1TS     -0.931000
      9 C7          2.6050   -3.2900    1.9330 c1        1 1TS     -0.083500
     10 C3          3.2980   -4.2000   -0.1860 c1        1 1TS      0.002000
     11 C6          3.8230   -3.6700    2.4950 c1        1 1TS     -0.083500
     12 C4          4.5160   -4.5810    0.3750 c1        1 1TS     -0.112000
     13 C13        -2.4030   -2.3650   -0.0410 c1        1 1TS      0.281000
     14 N11        -0.0030   -2.0280   -0.0530 n2        1 1TS     -0.898000
     15 O14        -3.2100   -3.0740    0.5330 o         1 1TS     -0.367000
     16 C15        -2.6980    0.9570    4.3400 c3        1 1TS      0.013000
     17 C31        -1.7910    1.6080    5.3890 c2        1 1TS     -0.081000
     18 C32        -0.8070    2.5000    4.9960 c2        1 1TS     -0.119000
     19 C33         0.0380    3.0670    5.9460 c1        1 1TS     -0.095000
     20 C44        -0.1060    2.7380    7.2860 c1        1 1TS     -0.014000
     21 C8         -1.0920    1.8440    7.6790 c1        1 1TS     -0.095000
     22 C9         -1.9340    1.2790    6.7320 c1        1 1TS     -0.126000
     23 C40         0.8440    3.3200    8.3140 c1        1 1TS     -0.095000
     24 N63         1.5610    3.7580    9.0900 n1        1 1TS     -0.040000
     25 C45        -1.1810   -1.8240    0.7230 c3        1 1TS      0.045000
     26 C12        -1.3620   -0.3570    0.9850 c3        1 1TS     -0.198000
     27 C46        -2.3760   -0.1610    2.1330 c2        1 1TS      0.305000
     28 O22        -3.5700   -0.2070    1.9040 o         1 1TS     -0.389000
     29 N14        -1.9080    0.1310    3.4680 n         1 1TS     -0.370000
     30 N15        -2.5030   -2.1730   -1.5230 n2        1 1TS     -0.315000
     31 C16        -1.6970   -1.4290   -2.3020 c3        1 1TS      0.004000
     32 C17        -1.0770   -0.2260   -1.5900 c1        1 1TS      0.290000
     33 O18        -0.3760   -0.3960   -0.6230 o         1 1TS     -0.398000
     34 C34        -2.6730   -1.0230   -3.5660 c3        1 1TS     -0.171000
     35 C1         -3.4230   -2.0500   -3.8060 c3        1 1TS     -0.175000
     36 C2         -3.5520   -2.7930   -2.4640 c3        1 1TS     -0.041000
     37 N19        -1.2000    1.1170   -2.1800 n2        1 1TS     -0.354000
     38 C20        -0.2170    2.1380   -1.8740 c3        1 1TS      0.000000
     39 C21        -0.0130    3.0450   -3.1140 c2        1 1TS     -0.097000
     40 C26        -1.0480    3.8580   -3.5570 c2        1 1TS     -0.127000
     41 C25        -0.8380    4.7380   -4.6130 c1        1 1TS     -0.115000
     42 C24         0.4060    4.8040   -5.2250 c1        1 1TS     -0.107000
     43 C27         0.6360    5.7620   -6.3760 c2        1 1TS      0.113000
     44 N29         1.1310    6.9540   -6.1480 n1        1 1TS     -0.298000
     45 N28         0.3140    5.3670   -7.7080 n3        1 1TS     -0.331000
     46 C23         1.4410    3.9910   -4.7820 c1        1 1TS     -0.096000
     47 C22         1.2310    3.1110   -3.7260 c1        1 1TS     -0.116000
     48 H110        7.6420   -5.4250    2.6240 h1        1 1TS      0.089000
     49 H210        6.3170   -6.2230    2.2040 h1        1 1TS      0.089000
     50 H310        6.3640   -5.4310    3.5960 h1        1 1TS      0.089000
     51 H7          1.9380   -2.8390    2.4780 ha        1 1TS      0.162500
     52 H3          3.0880   -4.4460   -1.1050 ha        1 1TS      0.168000
     53 H6          4.0060   -3.4840    3.4340 ha        1 1TS      0.162500
     54 HN11        0.4310   -1.3150   -0.4140 hn        1 1TS      0.267000
     55 H115       -3.3740    0.4060    4.7890 h1        1 1TS      0.108500
     56 H215       -3.1420    1.6550    3.8150 h1        1 1TS      0.108500
     57 H32        -0.7060    2.7310    4.0550 ha        1 1TS      0.164000
     58 H33         0.7300    3.6950    5.6700 ha        1 1TS      0.146000
     59 H8         -1.1940    1.6110    8.6250 ha        1 1TS      0.145000
     60 H9         -2.6270    0.6510    7.0080 ha        1 1TS      0.140000
     61 H45        -1.0950   -2.2990    1.5750 h1        1 1TS      0.146000
     62 H112       -1.6960    0.0790    0.1780 hc        1 1TS      0.132500
     63 H212       -0.5040    0.0370    1.2370 hc        1 1TS      0.132500
     64 HN14       -1.1460   -0.2590    3.7770 hn        1 1TS      0.250000
     65 H16        -0.9040   -1.9220   -2.5910 h1        1 1TS      0.139000
     66 H134       -3.2290   -0.2500   -3.3260 hc        1 1TS      0.107000
     67 H234       -2.1310   -0.8130   -4.3530 hc        1 1TS      0.107000
     68 H11        -4.3090   -1.7570   -4.1190 hc        1 1TS      0.098000
     69 H21        -3.0020   -2.6280   -4.4740 hc        1 1TS      0.098000
     70 H12        -4.4530   -2.6670   -2.0940 h1        1 1TS      0.105000
     71 H22        -3.3700   -3.7450   -2.5880 h1        1 1TS      0.105000
     72 HN19       -1.8810    1.2990   -2.7640 hn        1 1TS      0.234000
     73 H120        0.6300    1.7150   -1.6380 h1        1 1TS      0.117500
     74 H220       -0.5330    2.6790   -1.1230 h1        1 1TS      0.117500
     75 H26        -1.9240    3.8110   -3.1270 ha        1 1TS      0.136000
     76 H25        -1.5660    5.3100   -4.9250 ha        1 1TS      0.141000
     77 H129        1.3380    7.2080   -5.2930 DU        1 1TS      0.152000
     78 H128       -0.1120    4.5670   -7.8590 hn        1 1TS      0.194000
     79 H228        0.5340    5.9100   -8.4130 hn        1 1TS      0.194000
     80 H23         2.3150    4.0380   -5.2120 ha        1 1TS      0.154000
     81 H22A        1.9570    2.5420   -3.4160 ha        1 1TS      0.146000
@<TRIPOS>BOND
     1    1    7 1   
     2    1    8 1   
     3    2   12 1   
     4    3   10 1   
     5    4    5 1   
     6    4   48 1   
     7    4   49 1   
     8    4   50 1   
     9    5    6 1   
    10    6   12 1   
    11    9   11 1   
    12    9   51 1   
    13   10   52 1   
    14   11   53 1   
    15   13   15 1   
    16   13   25 1   
    17   14   25 1   
    18   14   54 1   
    19   16   17 1   
    20   16   29 1   
    21   16   55 1   
    22   16   56 1   
    23   17   18 1   
    24   17   22 1   
    25   18   19 1   
    26   18   57 1   
    27   19   58 1   
    28   20   21 1   
    29   20   23 1   
    30   21   59 1   
    31   22   60 1   
    32   23   24 1   
    33   25   26 1   
    34   25   61 1   
    35   26   27 1   
    36   26   62 1   
    37   26   63 1   
    38   27   28 1   
    39   27   29 1   
    40   29   64 1   
    41   30   31 1   
    42   30   36 1   
    43   31   32 1   
    44   31   34 1   
    45   31   65 1   
    46   32   33 1   
    47   34   35 1   
    48   34   66 1   
    49   34   67 1   
    50   35   36 1   
    51   35   68 1   
    52   35   69 1   
    53   36   70 1   
    54   36   71 1   
    55   37   38 1   
    56   37   72 1   
    57   38   39 1   
    58   38   73 1   
    59   38   74 1   
    60   39   40 1   
    61   39   47 1   
    62   40   41 1   
    63   40   75 1   
    64   41   76 1   
    65   42   43 1   
    66   42   46 1   
    67   43   44 1   
    68   43   45 1   
    69   45   78 1   
    70   45   79 1   
    71   46   80 1   
    72   47   81 1   
@<TRIPOS>SUBSTRUCTURE
     1 1TS         1 TEMP              0 ****  ****    0 ROOT
