@<TRIPOS>MOLECULE
1TS
   81    84     1     0     0
SMALL
bcc


@<TRIPOS>ATOM
      1 S8         -1.6930    2.7750    0.2930 sy        1 1TS      1.535200
      2 CL          2.4660    5.8260    1.6250 cl        1 1TS     -0.053400
      3 C35        -0.5090    3.8710   -0.1580 ca        1 1TS     -0.431500
      4 C10         2.5100    7.1280   -2.5330 c3        1 1TS      0.108700
      5 O9          2.4370    6.6570   -1.1870 os        1 1TS     -0.302900
      6 C5          1.4510    5.7490   -0.9010 ca        1 1TS      0.207100
      7 O1         -2.7800    2.8990   -0.5980 o         1 1TS     -0.660800
      8 O10        -1.9800    2.9090    1.6660 o         1 1TS     -0.660800
      9 C7         -0.4360    4.3520   -1.4720 ca        1 1TS      0.024000
     10 C3          0.4090    4.3560    0.7840 ca        1 1TS      0.022000
     11 C6          0.5270    5.2770   -1.8490 ca        1 1TS     -0.230000
     12 C4          1.3860    5.2830    0.4350 ca        1 1TS     -0.043600
     13 C13         0.4590   -0.2900    1.1860 c         1 1TS      0.647100
     14 N11        -0.9560    1.3500    0.0240 n3        1 1TS     -0.916100
     15 O14         1.3120   -0.2710    0.2710 o         1 1TS     -0.630100
     16 C15        -5.3270    0.4360    0.1310 c3        1 1TS      0.127300
     17 C31        -6.1750   -0.2760   -0.8870 ca        1 1TS     -0.097300
     18 C32        -6.3640   -1.6590   -0.7870 ca        1 1TS     -0.122000
     19 C33        -7.1690   -2.3260   -1.7060 ca        1 1TS     -0.096000
     20 C44        -7.7910   -1.6070   -2.7370 ca        1 1TS     -0.018000
     21 C8         -7.6030   -0.2220   -2.8400 ca        1 1TS     -0.096000
     22 C9         -6.7940    0.4380   -1.9170 ca        1 1TS     -0.122000
     23 C40        -8.6140   -2.2830   -3.6790 cg        1 1TS      0.234800
     24 N63        -9.2870   -2.8370   -4.4500 n1        1 1TS     -0.366800
     25 C45        -0.9810    0.2260    0.9150 c3        1 1TS      0.192500
     26 C12        -1.7710   -0.9830    0.3780 c3        1 1TS     -0.174400
     27 C46        -3.2640   -0.8250    0.6090 c         1 1TS      0.647100
     28 O22        -3.8640   -1.6010    1.3810 o         1 1TS     -0.609100
     29 N14        -3.9100    0.2250   -0.0110 n         1 1TS     -0.558900
     30 N15         0.7540   -0.8340    2.4140 n         1 1TS     -0.452800
     31 C16         2.1030   -1.2750    2.7590 c3        1 1TS      0.032700
     32 C17         2.4080   -2.7180    2.2890 c         1 1TS      0.647100
     33 O18         2.7670   -3.5960    3.0980 o         1 1TS     -0.615100
     34 C34         2.2270   -1.1640    4.2950 c3        1 1TS     -0.087400
     35 C1          0.8130   -0.9620    4.8250 c3        1 1TS     -0.089400
     36 C2         -0.0680   -0.6600    3.6020 c3        1 1TS      0.080000
     37 N19         2.2600   -2.9840    0.9450 n         1 1TS     -0.549900
     38 C20         2.6370   -4.2530    0.3800 c3        1 1TS      0.128300
     39 C21         4.0590   -4.3350   -0.1010 ca        1 1TS     -0.111300
     40 C26         5.1020   -4.3960    0.8310 ca        1 1TS     -0.124000
     41 C25         6.4220   -4.5000    0.4000 ca        1 1TS     -0.103500
     42 C24         6.7070   -4.5460   -0.9700 ca        1 1TS     -0.137900
     43 C27         8.1240   -4.6600   -1.4420 ce        1 1TS      0.651800
     44 N29         8.5460   -3.8250   -2.3430 n2        1 1TS     -0.828100
     45 N28         8.8770   -5.6540   -0.7790 nh        1 1TS     -0.959800
     46 C23         5.6690   -4.4750   -1.9030 ca        1 1TS     -0.103500
     47 C22         4.3480   -4.3710   -1.4670 ca        1 1TS     -0.124000
     48 H110        1.5710    7.6640   -2.8120 h1        1 1TS      0.055367
     49 H210        3.3780    7.8350   -2.5030 h1        1 1TS      0.055367
     50 H310        2.7110    6.2820   -3.2340 h1        1 1TS      0.055367
     51 H7         -1.1720    3.9990   -2.2170 ha        1 1TS      0.158000
     52 H3          0.3420    4.0020    1.8300 ha        1 1TS      0.168000
     53 H6          0.5590    5.6360   -2.8880 ha        1 1TS      0.153000
     54 HN11       -0.3630    1.1990   -0.7620 hn        1 1TS      0.461800
     55 H115       -5.6390    0.0890    1.1600 h1        1 1TS      0.078700
     56 H215       -5.5040    1.5490    0.0570 h1        1 1TS      0.078700
     57 H32        -5.8690   -2.2130    0.0290 ha        1 1TS      0.154000
     58 H33        -7.3180   -3.4130   -1.6240 ha        1 1TS      0.145000
     59 H8         -8.0920    0.3430   -3.6480 ha        1 1TS      0.145000
     60 H9         -6.6460    1.5260   -2.0000 ha        1 1TS      0.154000
     61 H45        -1.4630    0.5640    1.8850 h1        1 1TS      0.102700
     62 H112       -1.5640   -1.1470   -0.7100 hc        1 1TS      0.091200
     63 H212       -1.4490   -1.9050    0.9340 hc        1 1TS      0.091200
     64 HN14       -3.4710    0.6920   -0.7720 hn        1 1TS      0.326500
     65 H16         2.8580   -0.6050    2.2510 h1        1 1TS      0.086700
     66 H134        2.8760   -0.2900    4.5490 hc        1 1TS      0.076200
     67 H234        2.6950   -2.0840    4.7260 hc        1 1TS      0.076200
     68 H11         0.7700   -0.1180    5.5550 hc        1 1TS      0.062200
     69 H21         0.4480   -1.8850    5.3410 hc        1 1TS      0.062200
     70 H12        -0.9440   -1.3630    3.5510 h1        1 1TS      0.058700
     71 H22        -0.4590    0.3940    3.6630 h1        1 1TS      0.058700
     72 HN19        2.1880   -2.2160    0.3130 hn        1 1TS      0.333500
     73 H120        2.4780   -5.0540    1.1620 h1        1 1TS      0.068700
     74 H220        1.9390   -4.4560   -0.4840 h1        1 1TS      0.068700
     75 H26         4.8660   -4.3600    1.9080 ha        1 1TS      0.145000
     76 H25         7.2370   -4.5330    1.1390 ha        1 1TS      0.146500
     77 H129        9.4940   -3.9280   -2.6360 hn        1 1TS      0.381400
     78 H128        8.3480   -6.3580   -0.3210 hn        1 1TS      0.399300
     79 H228        9.6870   -5.9890   -1.2470 hn        1 1TS      0.399300
     80 H23         5.8930   -4.4890   -2.9810 ha        1 1TS      0.146500
     81 H22A        3.5340   -4.3140   -2.2050 ha        1 1TS      0.145000
@<TRIPOS>BOND
     1    1    3 1   
     2    1    7 2   
     3    1    8 2   
     4    1   14 1   
     5    2   12 1   
     6    3    9 ar  
     7    3   10 ar  
     8    4    5 1   
     9    4   48 1   
    10    4   49 1   
    11    4   50 1   
    12    5    6 1   
    13    6   11 ar  
    14    6   12 ar  
    15    9   11 ar  
    16    9   51 1   
    17   10   12 ar  
    18   10   52 1   
    19   11   53 1   
    20   13   15 2   
    21   13   25 1   
    22   13   30 1   
    23   14   25 1   
    24   14   54 1   
    25   16   17 1   
    26   16   29 1   
    27   16   55 1   
    28   16   56 1   
    29   17   18 ar  
    30   17   22 ar  
    31   18   19 ar  
    32   18   57 1   
    33   19   20 ar  
    34   19   58 1   
    35   20   21 ar  
    36   20   23 1   
    37   21   22 ar  
    38   21   59 1   
    39   22   60 1   
    40   23   24 3   
    41   25   26 1   
    42   25   61 1   
    43   26   27 1   
    44   26   62 1   
    45   26   63 1   
    46   27   28 2   
    47   27   29 1   
    48   29   64 1   
    49   30   31 1   
    50   30   36 1   
    51   31   32 1   
    52   31   34 1   
    53   31   65 1   
    54   32   33 2   
    55   32   37 1   
    56   34   35 1   
    57   34   66 1   
    58   34   67 1   
    59   35   36 1   
    60   35   68 1   
    61   35   69 1   
    62   36   70 1   
    63   36   71 1   
    64   37   38 1   
    65   37   72 1   
    66   38   39 1   
    67   38   73 1   
    68   38   74 1   
    69   39   40 ar  
    70   39   47 ar  
    71   40   41 ar  
    72   40   75 1   
    73   41   42 ar  
    74   41   76 1   
    75   42   43 1   
    76   42   46 ar  
    77   43   44 2   
    78   43   45 1   
    79   44   77 1   
    80   45   78 1   
    81   45   79 1   
    82   46   47 ar  
    83   46   80 1   
    84   47   81 1   
@<TRIPOS>SUBSTRUCTURE
     1 1TS         1 TEMP              0 ****  ****    0 ROOT
