@<TRIPOS>MOLECULE
1TT
   53    53     1     0     0
SMALL
bcc


@<TRIPOS>ATOM
      1 C1          0.7180    1.8300   -0.3030 c2        1 1TT      0.306000
      2 C2          2.0380    1.1770    0.0490 c3        1 1TT     -0.077000
      3 C3          2.0850    0.6350    1.4360 c2        1 1TT     -0.296000
      4 C8         -1.7220    1.1480    3.5720 c3        1 1TT     -0.058000
      5 C9         -1.7780    4.0740    1.0140 c2        1 1TT     -0.240000
      6 C10        -1.2800    3.0090    0.3750 c2        1 1TT     -0.030000
      7 C13        -1.0890   -0.0430    4.4030 c3        1 1TT      0.343000
      8 C20         6.4670   -2.5680    2.6920 c3        1 1TT     -0.104000
      9 C21         4.3410   -0.0350    2.0770 c1        1 1TT     -0.151000
     10 C24        -1.7630    3.3900    6.0640 c2        1 1TT      0.073000
     11 C30         4.8940    1.3300    2.1480 c3        1 1TT     -0.242000
     12 N4          1.1640    1.0200    2.3540 n7        1 1TT      0.037000
     13 N5         -0.1440    2.2440    0.7250 n         1 1TT     -0.197000
     14 C6          0.0570    1.7660    2.0540 cz        1 1TT     -0.086000
     15 N7         -0.8480    2.1670    3.0920 n3        1 1TT     -0.210000
     16 N11         3.1000   -0.3280    1.7770 n3        1 1TT     -0.070000
     17 O12         0.4120    2.0340   -1.4910 o         1 1TT     -0.344000
     18 F14        -0.5470   -1.0420    3.6360 f         1 1TT     -0.171667
     19 F15        -0.0660    0.3150    5.2480 f         1 1TT     -0.171667
     20 F16        -2.0050   -0.6680    5.2060 f         1 1TT     -0.171667
     21 C17         2.6510   -1.7080    1.7350 c3        1 1TT     -0.106000
     22 C18         4.7960   -4.1990    2.5270 c1        1 1TT     -0.073000
     23 O19         6.0590   -3.9550    2.7660 os        1 1TT     -0.183000
     24 C23        -1.3070    3.8770    4.8270 c2        1 1TT     -0.308000
     25 C25        -2.6990    4.1270    6.8040 c2        1 1TT     -0.281000
     26 C26        -3.2160    5.3450    6.3590 c1        1 1TT     -0.094000
     27 N27        -2.7230    5.8360    5.0820 ny        1 1TT     -0.064000
     28 C28        -1.7450    5.0920    4.3040 c1        1 1TT     -0.111000
     29 Cl1        -3.2420    3.5350    8.2980 cl        1 1TT      0.021000
     30 H1          2.8420    1.9550   -0.0860 hc        1 1TT      0.119500
     31 H2          2.2260    0.3580   -0.6990 hc        1 1TT      0.119500
     32 H3         -2.2360    0.6600    2.6960 h1        1 1TT      0.138500
     33 H4         -2.4840    1.6210    4.2520 h1        1 1TT      0.138500
     34 H5         -1.3880    4.4990    1.9490 ha        1 1TT      0.133000
     35 H6         -2.6610    4.5810    0.6020 ha        1 1TT      0.133000
     36 H7         -1.7150    2.6640   -0.5880 h4        1 1TT      0.152000
     37 H8          7.2380   -2.5270    1.8860 h1        1 1TT      0.110333
     38 H9          6.9180   -2.3410    3.6880 h1        1 1TT      0.110333
     39 H10         5.6000   -1.8900    2.4680 h1        1 1TT      0.110333
     40 H11         0.4080    2.5880    4.7730 h1        1 1TT      0.100000
     41 H12         0.3330    3.8500    3.4470 h1        1 1TT      0.100000
     42 H14         5.7420    1.3890    1.4190 hc        1 1TT      0.090333
     43 H15         5.3090    1.4760    3.1780 hc        1 1TT      0.090333
     44 H16         4.1780    2.1630    1.9280 hc        1 1TT      0.090333
     45 H17         1.2310    0.6480    3.2880 hn        1 1TT      0.255000
     46 H19         3.4940   -2.4010    2.0240 h1        1 1TT      0.106333
     47 H20         2.3020   -1.9520    0.6970 h1        1 1TT      0.106333
     48 H21         1.7920   -1.8420    2.4470 h1        1 1TT      0.106333
     49 H22         4.6440   -5.3060    2.6220 ha        1 1TT      0.029000
     50 H23        -2.3190    6.7680    5.2590 hn        1 1TT      0.276000
     51 H24        -3.5470    5.9720    4.4780 hn        1 1TT      0.276000
     52 C22        -0.2810    3.1140    4.0460 c3        1 1TT      0.014000
     53 H13        -1.3760    2.4280    6.4490 ha        1 1TT      0.157000
@<TRIPOS>BOND
     1    1    2 1   
     2    1   13 1   
     3    1   17 1   
     4    2    3 1   
     5    2   30 1   
     6    2   31 1   
     7    3   12 1   
     8    3   16 1   
     9    4    7 1   
    10    4   15 1   
    11    4   32 1   
    12    4   33 1   
    13    5    6 1   
    14    5   34 1   
    15    5   35 1   
    16    6   13 1   
    17    6   36 1   
    18    7   18 1   
    19    7   19 1   
    20    7   20 1   
    21    8   23 1   
    22    8   37 1   
    23    8   38 1   
    24    8   39 1   
    25    9   11 1   
    26    9   16 1   
    27   10   24 1   
    28   10   25 1   
    29   10   53 1   
    30   11   42 1   
    31   11   43 1   
    32   11   44 1   
    33   12   14 1   
    34   12   45 1   
    35   13   14 1   
    36   14   15 1   
    37   15   52 1   
    38   16   21 1   
    39   21   46 1   
    40   21   47 1   
    41   21   48 1   
    42   22   23 1   
    43   22   49 1   
    44   24   28 1   
    45   24   52 1   
    46   25   26 1   
    47   25   29 1   
    48   26   27 1   
    49   27   28 1   
    50   27   50 1   
    51   27   51 1   
    52   40   52 1   
    53   41   52 1   
@<TRIPOS>SUBSTRUCTURE
     1 1TT         1 TEMP              0 ****  ****    0 ROOT
