@<TRIPOS>MOLECULE
1TT
   53    54     1     0     0
SMALL
bcc


@<TRIPOS>ATOM
      1 C1         -0.8650   -0.5080    1.0720 c         1 1TT      0.715500
      2 C2          0.1420   -1.3230    1.8520 c3        1 1TT     -0.191700
      3 C3          1.4160   -0.5550    2.1830 c2        1 1TT      0.618200
      4 C8         -1.9660    1.2110    4.0780 c3        1 1TT      0.168800
      5 C9         -2.1430    2.9710    0.9560 c2        1 1TT     -0.319000
      6 C10        -1.8670    1.6840    0.6970 c2        1 1TT     -0.016400
      7 C13        -2.3640   -0.0100    4.9980 c3        1 1TT      0.605900
      8 C20         4.9270   -1.6260    2.3190 c3        1 1TT      0.141400
      9 C21         3.7760   -0.6510    2.6640 c3        1 1TT      0.100500
     10 C24         0.1530    4.4110    5.8670 ce        1 1TT      0.085000
     11 C30         3.9110   -0.2730    4.1420 c3        1 1TT     -0.106100
     12 N4          1.2750    0.8540    2.2250 nh        1 1TT     -0.844200
     13 N5         -0.9950    0.8480    1.4070 n         1 1TT     -0.403000
     14 C6         -0.0770    1.4110    2.4120 c3        1 1TT      0.603100
     15 N7         -0.5520    1.2410    3.8340 n3        1 1TT     -0.793600
     16 N11         2.5060   -1.2520    2.3270 n2        1 1TT     -0.646900
     17 O12        -1.5770   -1.0220    0.1930 o         1 1TT     -0.616500
     18 F14        -2.0330   -1.2440    4.5070 f         1 1TT     -0.244633
     19 F15        -1.8270    0.0260    6.2590 f         1 1TT     -0.244633
     20 F16        -3.7200   -0.0700    5.2050 f         1 1TT     -0.244633
     21 C17         5.8630   -0.4220   -0.9350 c2        1 1TT     -0.278000
     22 C18         5.7810   -0.5470    0.3940 c2        1 1TT      0.004100
     23 O19         5.1760   -1.6790    0.9170 os        1 1TT     -0.326900
     24 C23        -0.0150    3.5500    4.6750 ce        1 1TT     -0.394300
     25 C25        -0.0370    5.7240    5.5130 cf        1 1TT     -0.250600
     26 C26        -0.3360    5.7370    4.0630 cf        1 1TT      0.251900
     27 N27        -0.5800    6.7760    3.3110 nh        1 1TT     -0.674600
     28 C28        -0.3120    4.2830    3.5610 c1        1 1TT     -0.129800
     29 CL1         0.0370    7.0950    6.4670 cl        1 1TT     -0.065400
     30 H1          0.0250    2.5380    2.2030 h3        1 1TT      0.137700
     31 H2          0.3790   -2.2440    1.2530 hc        1 1TT      0.113700
     32 H3         -2.5880    1.1000    3.1490 h1        1 1TT      0.083700
     33 H4         -2.3260    2.1270    4.6280 h1        1 1TT      0.083700
     34 H5         -2.8550    3.5070    0.3170 ha        1 1TT      0.136500
     35 H6         -1.6990    3.5580    1.7740 ha        1 1TT      0.136500
     36 H7         -2.3570    1.1500   -0.1470 h4        1 1TT      0.165000
     37 H8          3.9600    0.2840    2.0480 h1        1 1TT      0.040700
     38 H9          4.6680   -2.6870    2.5770 h1        1 1TT      0.060200
     39 H10         5.8540   -1.3090    2.8660 h1        1 1TT      0.060200
     40 H11        -0.1490    1.7440    5.8120 h1        1 1TT      0.051700
     41 H12         1.2700    1.8490    4.6890 h1        1 1TT      0.051700
     42 H14         3.0930    0.4160    4.4580 hc        1 1TT      0.039700
     43 H15         3.8720   -1.1850    4.7850 hc        1 1TT      0.039700
     44 H16         4.8890    0.2400    4.3070 hc        1 1TT      0.039700
     45 H17         1.9720    1.3480    2.7420 hn        1 1TT      0.412800
     46 H19        -0.3390   -1.6450    2.8190 hc        1 1TT      0.113700
     47 H20         6.3680    0.4350   -1.3910 ha        1 1TT      0.126000
     48 H21         5.4400   -1.1640   -1.6230 ha        1 1TT      0.126000
     49 H22         6.1850    0.1760    1.1170 h4        1 1TT      0.120000
     50 H23        -0.5870    7.7080    3.6720 hn        1 1TT      0.466800
     51 H24        -0.7680    6.6440    2.3360 hn        1 1TT      0.466800
     52 C22         0.1680    2.0800    4.7790 c3        1 1TT      0.266000
     53 H13         0.3880    4.0320    6.8650 ha        1 1TT      0.162000
@<TRIPOS>BOND
     1    1    2 1   
     2    1   13 1   
     3    1   17 2   
     4    2    3 1   
     5    2   31 1   
     6    2   46 1   
     7    3   12 1   
     8    3   16 2   
     9    4    7 1   
    10    4   15 1   
    11    4   32 1   
    12    4   33 1   
    13    5    6 2   
    14    5   34 1   
    15    5   35 1   
    16    6   13 1   
    17    6   36 1   
    18    7   18 1   
    19    7   19 1   
    20    7   20 1   
    21    8    9 1   
    22    8   23 1   
    23    8   38 1   
    24    8   39 1   
    25    9   11 1   
    26    9   16 1   
    27    9   37 1   
    28   10   24 1   
    29   10   25 2   
    30   10   53 1   
    31   11   42 1   
    32   11   43 1   
    33   11   44 1   
    34   12   14 1   
    35   12   45 1   
    36   13   14 1   
    37   14   15 1   
    38   14   30 1   
    39   15   52 1   
    40   21   22 2   
    41   21   47 1   
    42   21   48 1   
    43   22   23 1   
    44   22   49 1   
    45   24   28 2   
    46   24   52 1   
    47   25   26 1   
    48   25   29 1   
    49   26   27 1   
    50   26   28 2   
    51   27   50 1   
    52   27   51 1   
    53   40   52 1   
    54   41   52 1   
@<TRIPOS>SUBSTRUCTURE
     1 1TT         1 TEMP              0 ****  ****    0 ROOT
