@<TRIPOS>MOLECULE
1TT
   53    53     1     0     0
SMALL
bcc


@<TRIPOS>ATOM
      1 C1         -0.3180   -1.0200    0.8060 c2        1 1TT      0.258000
      2 C2          0.9460   -1.8300    0.9500 c3        1 1TT     -0.086000
      3 C3          2.1360   -1.0870    1.4560 c2        1 1TT     -0.342000
      4 C8         -1.7060    2.7230    3.1820 c3        1 1TT      0.031000
      5 C9         -1.5950    2.4810    1.6660 c3        1 1TT     -0.132000
      6 C10        -1.4420    1.0600    1.2650 c2        1 1TT     -0.052000
      7 C13        -2.7170    1.6450    3.8010 c3        1 1TT      0.340000
      8 C20         6.8200   -0.9570    1.5930 c3        1 1TT     -0.095000
      9 C21         3.9180   -2.5120    2.3330 c1        1 1TT     -0.139000
     10 C24        -1.9550    5.0400    5.9320 c2        1 1TT     -0.074000
     11 C30         3.2450   -2.8520    3.5990 c3        1 1TT     -0.245000
     12 N4          1.9620    0.1520    1.9980 n3        1 1TT      0.022000
     13 N5         -0.3400    0.3270    1.3830 n         1 1TT     -0.023000
     14 C6          0.8100    0.8420    2.0030 c1        1 1TT     -0.327000
     15 N7         -0.4430    2.7950    3.8260 n3        1 1TT     -0.374000
     16 N11         3.4160   -1.7340    1.4010 n3        1 1TT     -0.081000
     17 O12        -1.3220   -1.4630    0.2410 o         1 1TT     -0.271000
     18 F14        -2.1790    0.4080    4.0440 f         1 1TT     -0.174333
     19 F15        -3.2440    2.0320    5.0080 f         1 1TT     -0.174333
     20 F16        -3.8160    1.4040    3.0170 f         1 1TT     -0.174333
     21 C17         4.1770   -1.4920    0.1780 c3        1 1TT     -0.059000
     22 C18         5.0420   -0.2220    0.1890 c3        1 1TT     -0.032000
     23 O19         6.4210   -0.5320    0.2970 os        1 1TT     -0.275000
     24 C23        -0.6570    4.6820    5.3990 c2        1 1TT     -0.398000
     25 C25        -2.3050    6.2980    6.2700 c2        1 1TT     -0.094000
     26 C26        -1.3800    7.4380    6.1440 c2        1 1TT     -0.049000
     27 N27        -1.7380    8.5790    5.6920 n2        1 1TT     -0.189000
     28 C28         0.2880    5.5610    5.0810 c1        1 1TT      0.233000
     29 CL1        -3.8470    6.6280    6.8940 cl        1 1TT      0.017000
     30 H1          1.1700   -2.2910   -0.0540 hc        1 1TT      0.136500
     31 H2          0.6990   -2.6740    1.6590 hc        1 1TT      0.136500
     32 H3          0.2180    2.0900    3.5420 hn        1 1TT      0.257000
     33 H4         -2.2470    3.7060    3.3450 h1        1 1TT      0.130000
     34 H5         -2.5460    2.8600    1.1980 hc        1 1TT      0.133000
     35 H6         -0.7350    3.0880    1.2640 hc        1 1TT      0.133000
     36 H7         -2.3300    0.5710    0.8090 h4        1 1TT      0.184000
     37 H8          6.7020   -0.1190    2.3240 h1        1 1TT      0.084333
     38 H9          7.9010   -1.2190    1.4740 h1        1 1TT      0.084333
     39 H10         6.2270   -1.8470    1.9230 h1        1 1TT      0.084333
     40 H11        -1.1080    2.6280    5.8480 h1        1 1TT      0.095500
     41 H12         0.6610    2.9790    5.5740 h1        1 1TT      0.095500
     42 H14         2.2250   -2.4150    3.7500 hc        1 1TT      0.092333
     43 H15         3.9070   -2.5160    4.4370 hc        1 1TT      0.092333
     44 H16         3.1660   -3.9680    3.6470 hc        1 1TT      0.092333
     45 H17         2.7410    0.6280    2.4150 hn        1 1TT      0.263000
     46 H19         3.4450   -1.4220   -0.6740 h1        1 1TT      0.114000
     47 H20         4.8530   -2.3790    0.0070 h1        1 1TT      0.114000
     48 H21         4.9650    0.2860   -0.8110 h1        1 1TT      0.087500
     49 H22         4.7380    0.4960    0.9940 h1        1 1TT      0.087500
     50 H23        -0.3430    7.1880    6.4890 h4        1 1TT      0.112000
     51 H24        -1.0160    9.2700    5.6560 hn        1 1TT      0.153000
     52 C22        -0.3800    3.2020    5.1990 c3        1 1TT      0.035000
     53 H13        -2.6720    4.2050    6.0480 ha        1 1TT      0.162000
@<TRIPOS>BOND
     1    1    2 1   
     2    1   13 1   
     3    1   17 1   
     4    2    3 1   
     5    2   30 1   
     6    2   31 1   
     7    3   12 1   
     8    3   16 1   
     9    4    5 1   
    10    4    7 1   
    11    4   15 1   
    12    4   33 1   
    13    5    6 1   
    14    5   34 1   
    15    5   35 1   
    16    6   13 1   
    17    6   36 1   
    18    7   18 1   
    19    7   19 1   
    20    7   20 1   
    21    8   23 1   
    22    8   37 1   
    23    8   38 1   
    24    8   39 1   
    25    9   11 1   
    26    9   16 1   
    27   10   24 1   
    28   10   25 1   
    29   10   53 1   
    30   11   42 1   
    31   11   43 1   
    32   11   44 1   
    33   12   14 1   
    34   12   45 1   
    35   13   14 1   
    36   15   32 1   
    37   15   52 1   
    38   16   21 1   
    39   21   22 1   
    40   21   46 1   
    41   21   47 1   
    42   22   23 1   
    43   22   48 1   
    44   22   49 1   
    45   24   28 1   
    46   24   52 1   
    47   25   26 1   
    48   25   29 1   
    49   26   27 1   
    50   26   50 1   
    51   27   51 1   
    52   40   52 1   
    53   41   52 1   
@<TRIPOS>SUBSTRUCTURE
     1 1TT         1 TEMP              0 ****  ****    0 ROOT
