@<TRIPOS>MOLECULE
1TU
   30    30     1     0     0
SMALL
bcc


@<TRIPOS>ATOM
      1 C1          0.0160    0.0650    0.7190 c2        1 1TU     -0.187000
      2 C2          1.1390    0.7010    0.3230 c2        1 1TU     -0.024000
      3 C3          1.7870   -1.2070    1.5810 c1        1 1TU      0.162000
      4 C4          1.2060   -1.2350    2.8110 c2        1 1TU     -0.210000
      5 C5          0.0110   -0.4230    3.0930 c2        1 1TU      0.024000
      6 C6         -0.5740    0.2440    2.0540 c2        1 1TU      0.006000
      7 C10         1.7520    0.4920   -1.0140 c3        1 1TU     -0.071000
      8 C11         2.1480    1.7670   -1.6510 c2        1 1TU     -0.122000
      9 C13         3.1540    3.6990   -2.0080 c2        1 1TU     -0.028000
     10 C15         1.7130    2.2290   -2.9130 c2        1 1TU     -0.004000
     11 N14         2.3440    3.4660   -3.1400 na        1 1TU     -0.169000
     12 C16         2.2720    4.2550   -4.3220 c3        1 1TU     -0.076000
     13 C17         4.0010    4.9110   -1.8700 c3        1 1TU     -0.148000
     14 N12         3.0380    2.6930   -1.1020 n2        1 1TU     -0.132000
     15 F8         -1.6700    1.0180    2.1820 f         1 1TU     -0.078000
     16 O9         -0.4950   -0.3230    4.3610 oh        1 1TU     -0.226000
     17 F7          1.6650   -2.0010    3.8390 f         1 1TU     -0.093000
     18 H1         -0.5410   -0.6130    0.0500 ha        1 1TU      0.155000
     19 H2          1.6580    1.4230    0.9810 ha        1 1TU      0.161000
     20 H3          2.6640   -0.1600   -0.8740 hc        1 1TU      0.121500
     21 H4          1.0510   -0.0520   -1.7050 hc        1 1TU      0.121500
     22 H6          3.2950    4.3700   -4.7740 h1        1 1TU      0.097667
     23 H7          1.5930    3.7540   -5.0630 h1        1 1TU      0.097667
     24 H8          1.8710    5.2760   -4.0740 h1        1 1TU      0.097667
     25 H9          4.7410    4.9570   -2.7080 hc        1 1TU      0.099333
     26 H10         3.3640    5.8300   -1.9010 hc        1 1TU      0.099333
     27 H11         4.5550    4.8870   -0.9000 hc        1 1TU      0.099333
     28 H12         0.0130   -0.9250    4.9300 ho        1 1TU      0.234000
     29 H5         -0.0020    1.8600   -3.6000 ho        1 1TU      0.219000
     30 O18         0.9120    1.6320   -3.8440 oh        1 1TU     -0.224000
@<TRIPOS>BOND
     1    1    2 1   
     2    1    6 1   
     3    1   18 1   
     4    2    7 1   
     5    2   19 1   
     6    3    4 1   
     7    4    5 1   
     8    4   17 1   
     9    5    6 1   
    10    5   16 1   
    11    6   15 1   
    12    7    8 1   
    13    7   20 1   
    14    7   21 1   
    15    8   10 1   
    16    8   14 1   
    17    9   11 1   
    18    9   13 1   
    19    9   14 1   
    20   10   11 1   
    21   10   30 1   
    22   11   12 1   
    23   12   22 1   
    24   12   23 1   
    25   12   24 1   
    26   13   25 1   
    27   13   26 1   
    28   13   27 1   
    29   16   28 1   
    30   29   30 1   
@<TRIPOS>SUBSTRUCTURE
     1 1TU         1 TEMP              0 ****  ****    0 ROOT
