@<TRIPOS>MOLECULE
1TU
   30    30     1     0     0
SMALL
bcc


@<TRIPOS>ATOM
      1 C1          0.0350    0.0430    0.7140 c2        1 1TU     -0.187000
      2 C2          1.1490    0.7020    0.3280 c2        1 1TU     -0.024000
      3 C3          1.8240   -1.1730    1.6220 c1        1 1TU      0.162000
      4 C4          1.2220   -1.2000    2.8420 c2        1 1TU     -0.210000
      5 C5          0.0030   -0.4150    3.0940 c2        1 1TU      0.024000
      6 C6         -0.5810    0.2240    2.0370 c2        1 1TU      0.006000
      7 C10         1.7890    0.4920   -0.9960 c3        1 1TU     -0.071000
      8 C11         2.1640    1.7680   -1.6420 c2        1 1TU     -0.122000
      9 C13         3.1270    3.7200   -2.0080 c2        1 1TU     -0.028000
     10 C15         1.7370    2.2040   -2.9160 c2        1 1TU     -0.004000
     11 N14         2.3410    3.4530   -3.1490 na        1 1TU     -0.169000
     12 C16         2.2690    4.2260   -4.3420 c3        1 1TU     -0.076000
     13 C17         3.9420    4.9530   -1.8730 c3        1 1TU     -0.148000
     14 N12         3.0230    2.7210   -1.0920 n2        1 1TU     -0.132000
     15 F8         -1.6980    0.9710    2.1360 f         1 1TU     -0.078000
     16 O9         -0.5260   -0.3120    4.3520 oh        1 1TU     -0.226000
     17 F7          1.6840   -1.9410    3.8870 f         1 1TU     -0.093000
     18 H1         -0.4930   -0.6570    0.0440 ha        1 1TU      0.155000
     19 H2          1.6380    1.4450    0.9850 ha        1 1TU      0.161000
     20 H3          2.7150   -0.1350   -0.8330 hc        1 1TU      0.121500
     21 H4          1.1130   -0.0790   -1.6910 hc        1 1TU      0.121500
     22 H6          3.2950    4.3590   -4.7800 h1        1 1TU      0.097667
     23 H7          1.6130    3.7000   -5.0870 h1        1 1TU      0.097667
     24 H8          1.8400    5.2400   -4.1130 h1        1 1TU      0.097667
     25 H9          4.6940    5.0080   -2.7000 hc        1 1TU      0.099333
     26 H10         3.2840    5.8560   -1.9240 hc        1 1TU      0.099333
     27 H11         4.4820    4.9550   -0.8940 hc        1 1TU      0.099333
     28 H12        -0.0130   -0.8940    4.9370 ho        1 1TU      0.234000
     29 H5          0.0430    1.7850   -3.6250 ho        1 1TU      0.219000
     30 O18         0.9660    1.5760   -3.8530 oh        1 1TU     -0.224000
@<TRIPOS>BOND
     1    1    2 1   
     2    1    6 1   
     3    1   18 1   
     4    2    7 1   
     5    2   19 1   
     6    3    4 1   
     7    4    5 1   
     8    4   17 1   
     9    5    6 1   
    10    5   16 1   
    11    6   15 1   
    12    7    8 1   
    13    7   20 1   
    14    7   21 1   
    15    8   10 1   
    16    8   14 1   
    17    9   11 1   
    18    9   13 1   
    19    9   14 1   
    20   10   11 1   
    21   10   30 1   
    22   11   12 1   
    23   12   22 1   
    24   12   23 1   
    25   12   24 1   
    26   13   25 1   
    27   13   26 1   
    28   13   27 1   
    29   16   28 1   
    30   29   30 1   
@<TRIPOS>SUBSTRUCTURE
     1 1TU         1 TEMP              0 ****  ****    0 ROOT
