@<TRIPOS>MOLECULE
1TW
   39    41     1     0     0
SMALL
bcc


@<TRIPOS>ATOM
      1 O6         -4.8370   -1.9270    2.3500 o         1 1TW     -0.644500
      2 C6         -4.3590   -1.5260    1.2730 c         1 1TW      0.645000
      3 C5         -2.9890   -1.1930    0.9520 cc        1 1TW      0.200800
      4 N7         -1.8380   -1.2210    1.7380 nc        1 1TW     -0.629000
      5 C8         -0.8490   -0.7940    0.9210 cd        1 1TW      0.461400
      6 N1         -5.2630   -1.3780    0.1890 n         1 1TW     -0.496400
      7 C2         -4.8550   -0.9110   -1.0770 cc        1 1TW      0.593800
      8 N2         -5.9090   -0.7380   -2.0480 nh        1 1TW     -0.865800
      9 N3         -3.5930   -0.6060   -1.4100 nd        1 1TW     -0.621100
     10 C4         -2.6700   -0.7310   -0.3810 cd        1 1TW      0.062800
     11 N9         -1.2980   -0.4720   -0.3770 na        1 1TW     -0.172900
     12 C1'        -0.5090   -0.0340   -1.5240 c3        1 1TW      0.264800
     13 O4'         0.6310   -0.8700   -1.6640 os        1 1TW     -0.432600
     14 C2'        -0.0060    1.4300   -1.4710 c3        1 1TW     -0.042600
     15 SE2        -1.0280    2.5460   -0.5450 ss        1 1TW     -0.351200
     16 CA'         0.0980    3.5190    0.4010 c3        1 1TW     -0.025000
     17 C3'         1.4600    1.3030   -1.0150 c3        1 1TW      0.157100
     18 O3'         2.2330    2.2400   -1.7220 oh        1 1TW     -0.673800
     19 C4'         1.8540   -0.1430   -1.3740 c3        1 1TW      0.055100
     20 C5'         2.6460   -0.8640   -0.2570 c3        1 1TW      0.232400
     21 O5'         3.9820   -0.6140   -0.3890 os        1 1TW     -0.555200
     22 P           4.6140    0.4990    0.7990 p5        1 1TW      1.332900
     23 OP1         4.1550   -0.1360    2.0770 o         1 1TW     -0.926500
     24 OP2         6.0770    0.5440    0.4940 o         1 1TW     -0.926500
     25 H1          0.2200   -0.6970    1.1900 h5        1 1TW      0.117100
     26 H2         -6.2300   -1.5230    0.3700 hn        1 1TW      0.322500
     27 H3         -6.2340   -1.6310   -2.3650 hn        1 1TW      0.380300
     28 H4         -5.5930   -0.1910   -2.8260 hn        1 1TW      0.380300
     29 H5         -1.1460   -0.2100   -2.4420 h2        1 1TW      0.076700
     30 H6         -0.0140    1.8110   -2.5260 h1        1 1TW      0.085700
     31 H7          0.3240    3.0360    1.3780 h1        1 1TW      0.075367
     32 H8          1.0640    3.6780   -0.1380 h1        1 1TW      0.075367
     33 H9         -0.4090    4.4940    0.5720 h1        1 1TW      0.075367
     34 H10         1.5700    1.4700    0.0960 h1        1 1TW      0.115700
     35 H11         3.0900    2.2960   -1.2260 ho        1 1TW      0.508000
     36 H12         2.4470   -0.1630   -2.3270 h1        1 1TW      0.072700
     37 H13         2.2670   -0.5370    0.7540 h1        1 1TW     -0.000300
     38 H14         2.4450   -1.9700   -0.3820 h1        1 1TW     -0.000300
     39 OP3         3.7950    1.7120    0.3920 o         1 1TW     -0.926500
@<TRIPOS>BOND
     1    1    2 2   
     2    2    3 1   
     3    2    6 1   
     4    3    4 1   
     5    3   10 2   
     6    4    5 2   
     7    5   11 1   
     8    5   25 1   
     9    6    7 1   
    10    6   26 1   
    11    7    8 1   
    12    7    9 2   
    13    8   27 1   
    14    8   28 1   
    15    9   10 1   
    16   10   11 1   
    17   11   12 1   
    18   12   13 1   
    19   12   14 1   
    20   12   29 1   
    21   13   19 1   
    22   14   15 1   
    23   14   17 1   
    24   14   30 1   
    25   15   16 1   
    26   16   31 1   
    27   16   32 1   
    28   16   33 1   
    29   17   18 1   
    30   17   19 1   
    31   17   34 1   
    32   18   35 1   
    33   19   20 1   
    34   19   36 1   
    35   20   21 1   
    36   20   37 1   
    37   20   38 1   
    38   21   22 1   
    39   22   23 1   
    40   22   24 1   
    41   22   39 1   
@<TRIPOS>SUBSTRUCTURE
     1 1TW         1 TEMP              0 ****  ****    0 ROOT
