@<TRIPOS>MOLECULE
1TW
   39    36     1     0     0
SMALL
bcc


@<TRIPOS>ATOM
      1 O6         -4.6240   -1.5650   -1.7090 o         1 1TW     -0.380000
      2 C6         -3.4160   -1.6500   -1.8140 c1        1 1TW      0.392000
      3 C5         -2.5250   -0.7130   -1.0400 c2        1 1TW     -0.221000
      4 N7         -2.7980    0.2940   -0.1790 n2        1 1TW     -0.117000
      5 C8         -1.6200    0.8470    0.2080 c1        1 1TW     -0.028000
      6 N1         -2.8530   -2.5960   -2.6770 n2        1 1TW     -0.336000
      7 C2         -1.4410   -2.6640   -2.8340 c1        1 1TW      0.140000
      8 N2         -0.8730   -3.5820   -3.7550 n2        1 1TW     -0.304000
      9 N3         -0.5880   -1.7660   -2.0930 n1        1 1TW     -0.185000
     10 C4         -1.1720   -0.7840   -1.1880 c1        1 1TW      0.013000
     11 N9         -0.6170    0.1800   -0.4160 n2        1 1TW     -0.113000
     12 C1'         0.7880   -0.0540   -0.6540 c2        1 1TW      0.179000
     13 O4'         1.2370   -0.9180    0.1700 os        1 1TW     -0.266000
     14 C2'         1.6120    1.2530   -0.3730 c3        1 1TW     -0.355000
     15 SE2         0.4780    2.7020   -0.1980 ss        1 1TW     -0.001000
     16 CA'         1.2760    4.2390   -1.0100 c3        1 1TW     -0.337000
     17 C3'         2.3390    1.0020    0.9160 c3        1 1TW      0.212000
     18 O3'         3.7920    0.7790    0.6560 oh        1 1TW     -0.682000
     19 C4'         1.7870   -0.1000    1.4110 c3        1 1TW     -0.086000
     20 C5'         0.6570    0.2590    2.3340 c3        1 1TW      0.036000
     21 O5'         0.0630   -0.9170    2.8280 os        1 1TW     -0.745000
     22 P          -0.5040   -0.9120    4.3020 p5        1 1TW      1.577500
     23 OP1         0.6210   -1.1640    5.2750 o         1 1TW     -0.731167
     24 OP2        -1.5450   -1.9960    4.4440 o         1 1TW     -0.731167
     25 H1         -1.5140    1.6060    0.8130 DU        1 1TW      0.233000
     26 H2         -3.3930   -3.1520   -3.1590 hn        1 1TW      0.234000
     27 H3          0.0350   -3.6270   -3.8550 hn        1 1TW      0.174000
     28 H4         -1.4160   -4.1110   -4.2660 hn        1 1TW      0.174000
     29 H5          0.9310   -0.3550   -1.5730 h4        1 1TW      0.111000
     30 H6          2.2510    1.4100   -1.0950 h1        1 1TW      0.117000
     31 H7          1.9240    4.6360   -0.3920 h1        1 1TW      0.105333
     32 H8          0.5800    4.8960   -1.2200 h1        1 1TW      0.105333
     33 H9          1.7330    3.9720   -1.8360 h1        1 1TW      0.105333
     34 H10         2.2130    1.7520    1.5300 h1        1 1TW     -0.038000
     35 H11         4.2650    1.4260    1.0400 ho        1 1TW      0.229000
     36 H12         2.4570   -0.6260    1.8900 h1        1 1TW      0.111000
     37 H13        -0.0120    0.7810    1.8440 h1        1 1TW      0.068000
     38 H14         1.0020    0.7900    3.0820 h1        1 1TW      0.068000
     39 OP3        -1.1310    0.4300    4.5940 o         1 1TW     -0.731167
@<TRIPOS>BOND
     1    1    2 1   
     2    2    3 1   
     3    3    4 1   
     4    3   10 1   
     5    4    5 1   
     6    5   11 1   
     7    6    7 1   
     8    6   26 1   
     9    7    9 1   
    10    8   27 1   
    11    8   28 1   
    12   10   11 1   
    13   12   13 1   
    14   12   14 1   
    15   12   29 1   
    16   13   19 1   
    17   14   15 1   
    18   14   17 1   
    19   14   30 1   
    20   15   16 1   
    21   16   31 1   
    22   16   32 1   
    23   16   33 1   
    24   17   18 1   
    25   17   19 1   
    26   17   34 1   
    27   18   35 1   
    28   19   20 1   
    29   19   36 1   
    30   20   21 1   
    31   20   37 1   
    32   20   38 1   
    33   21   22 1   
    34   22   23 1   
    35   22   24 1   
    36   22   39 1   
@<TRIPOS>SUBSTRUCTURE
     1 1TW         1 TEMP              0 ****  ****    0 ROOT
