@<TRIPOS>MOLECULE
1TX
   27    24     1     0     0
SMALL
bcc


@<TRIPOS>ATOM
      1 C13         1.5760   -2.7070   -2.7660 c1        1 1TX      0.306000
      2 C21         1.0970   -1.5450   -0.6410 c3        1 1TX     -0.128000
      3 C22        -0.1410   -0.6740   -0.6020 c3        1 1TX     -0.174000
      4 C24        -1.0960    1.4300    0.2730 c3        1 1TX     -0.153000
      5 C26        -1.7560    4.1770    2.7160 c3        1 1TX     -0.061000
      6 O8          2.8330   -2.7580   -2.7650 o         1 1TX     -0.580000
      7 C14         0.8160   -2.7840   -1.4630 c2        1 1TX     -0.128000
      8 N7          1.2310   -3.9380   -0.7390 n3        1 1TX     -0.321000
      9 C23         0.0990    0.5040    0.3170 c3        1 1TX     -0.150000
     10 C25        -0.8630    2.5980    1.2060 c1        1 1TX      0.304000
     11 O13         0.0970    3.3240    1.0420 o         1 1TX     -0.363000
     12 O14        -1.7550    2.8400    2.2650 o         1 1TX     -0.291000
     13 H5          1.8350   -1.0450   -1.0470 hc        1 1TX      0.064500
     14 H6          1.3410   -1.8060    0.2690 hc        1 1TX      0.064500
     15 H7         -0.3400   -0.3490   -1.5030 hc        1 1TX      0.105500
     16 H8         -0.8970   -1.1970   -0.2700 hc        1 1TX      0.105500
     17 H9         -1.2180    1.7610   -0.6400 hc        1 1TX      0.120500
     18 H10        -1.8960    0.9430    0.5540 hc        1 1TX      0.120500
     19 H11        -1.8620    4.7810    1.9500 h1        1 1TX      0.080667
     20 H12        -2.5000    4.3090    3.3430 h1        1 1TX      0.080667
     21 H13        -0.9070    4.3700    3.1700 h1        1 1TX      0.080667
     22 H24        -0.1420   -2.8430   -1.6480 h4        1 1TX      0.081000
     23 H25         0.5080   -4.3100   -0.3170 hn        1 1TX      0.125000
     24 H34         0.8980    0.9880    0.0250 hc        1 1TX      0.082500
     25 H35         0.2290    0.1830    1.2320 hc        1 1TX      0.082500
     26 H2          1.8590   -3.6990   -0.1160 hn        1 1TX      0.125000
     27 OXT         0.9530   -2.5520   -3.8480 o         1 1TX     -0.580000
@<TRIPOS>BOND
     1    1    6 1   
     2    1   27 1   
     3    2    3 1   
     4    2    7 1   
     5    2   13 1   
     6    2   14 1   
     7    3    9 1   
     8    3   15 1   
     9    3   16 1   
    10    4    9 1   
    11    4   10 1   
    12    4   17 1   
    13    4   18 1   
    14    5   12 1   
    15    5   19 1   
    16    5   20 1   
    17    5   21 1   
    18    7    8 1   
    19    7   22 1   
    20    8   23 1   
    21    8   26 1   
    22    9   24 1   
    23    9   25 1   
    24   10   11 1   
@<TRIPOS>SUBSTRUCTURE
     1 1TX         1 TEMP              0 ****  ****    0 ROOT
