@<TRIPOS>MOLECULE
1TX
   27    26     1     0     0
SMALL
bcc


@<TRIPOS>ATOM
      1 C13         3.7740   -0.5700    0.4710 c         1 1TX      0.888600
      2 C21         1.3650   -0.1340   -0.0670 c3        1 1TX     -0.063400
      3 C22         0.1630    0.7630    0.1320 c3        1 1TX     -0.075400
      4 C24        -2.3190    0.9420    0.0100 c3        1 1TX     -0.125400
      5 C26        -5.5480   -0.8490    0.3880 c3        1 1TX      0.127700
      6 O8          4.8730   -0.3550   -0.1160 o         1 1TX     -0.843800
      7 C14         2.6650    0.5320    0.3840 c3        1 1TX      0.017500
      8 N7          3.0300    1.6910   -0.4220 n3        1 1TX     -0.892800
      9 C23        -1.1210    0.0450   -0.2330 c3        1 1TX     -0.077400
     10 C25        -3.5890    0.2630   -0.3920 c         1 1TX      0.633100
     11 O13        -4.0450    0.0530   -1.5180 o         1 1TX     -0.555000
     12 O14        -4.3360   -0.1590    0.6800 os        1 1TX     -0.444900
     13 H5          1.2500   -1.0740    0.5370 hc        1 1TX      0.048200
     14 H6          1.4380   -0.4340   -1.1450 hc        1 1TX      0.048200
     15 H7          0.1160    1.0910    1.2040 hc        1 1TX      0.038700
     16 H8          0.2670    1.6870   -0.4940 hc        1 1TX      0.038700
     17 H9         -2.3700    1.2260    1.0950 hc        1 1TX      0.074200
     18 H10        -2.2260    1.8810   -0.5980 hc        1 1TX      0.074200
     19 H11        -5.3330   -1.7640   -0.2150 h1        1 1TX      0.043367
     20 H12        -5.9570   -1.1110    1.3950 h1        1 1TX      0.043367
     21 H13        -6.2440   -0.1790   -0.1720 h1        1 1TX      0.043367
     22 H24         2.5180    0.9130    1.4370 h1        1 1TX      0.039700
     23 H25         3.9900    1.9110   -0.2060 hn        1 1TX      0.330800
     24 H34        -1.0920   -0.2620   -1.3110 hc        1 1TX      0.050200
     25 H35        -1.2190   -0.8890    0.3810 hc        1 1TX      0.050200
     26 H2          3.0180    1.4210   -1.3900 hn        1 1TX      0.330800
     27 OXT         3.5140   -1.6050    1.1450 o         1 1TX     -0.843800
@<TRIPOS>BOND
     1    1    6 1   
     2    1    7 1   
     3    1   27 1   
     4    2    3 1   
     5    2    7 1   
     6    2   13 1   
     7    2   14 1   
     8    3    9 1   
     9    3   15 1   
    10    3   16 1   
    11    4    9 1   
    12    4   10 1   
    13    4   17 1   
    14    4   18 1   
    15    5   12 1   
    16    5   19 1   
    17    5   20 1   
    18    5   21 1   
    19    7    8 1   
    20    7   22 1   
    21    8   23 1   
    22    8   26 1   
    23    9   24 1   
    24    9   25 1   
    25   10   11 2   
    26   10   12 1   
@<TRIPOS>SUBSTRUCTURE
     1 1TX         1 TEMP              0 ****  ****    0 ROOT
