@<TRIPOS>MOLECULE
1TY
   40    41     1     0     0
SMALL
bcc


@<TRIPOS>ATOM
      1 N           4.7700   -4.4100   -0.1760 n3        1 1TY     -0.888800
      2 CA          4.6840   -2.9810    0.1070 c3        1 1TY      0.027500
      3 CB          3.4870   -2.6610    1.0200 c3        1 1TY     -0.032200
      4 C           5.9970   -2.4250    0.7500 c         1 1TY      0.881600
      5 O           6.5630   -3.1230    1.6350 o         1 1TY     -0.841800
      6 CG          2.8440   -1.3530    0.7150 cc        1 1TY     -0.130400
      7 CD1         1.3680   -1.2800    0.8070 c         1 1TY      0.578500
      8 OX1         0.6570   -2.2150    1.2080 o         1 1TY     -0.555100
      9 CE1         0.7640   -0.0130    0.3800 cc        1 1TY     -0.370200
     10 CD2         3.5620   -0.2640    0.3860 cd        1 1TY     -0.259600
     11 CE2         2.9910    1.0600    0.0870 cd        1 1TY      0.487900
     12 NX1         3.6690    2.1470   -0.1130 n2        1 1TY     -0.548900
     13 CZ          1.5020    1.0690    0.0340 cd        1 1TY      0.101500
     14 OH          0.9270    2.2430   -0.3840 oh        1 1TY     -0.478100
     15 C3'         4.0280    6.3480    1.2850 ca        1 1TY     -0.138000
     16 C2'         4.2530    5.2880    0.4080 ca        1 1TY     -0.119000
     17 C1'         5.4670    4.5900    0.4410 ca        1 1TY     -0.067300
     18 C6'         6.4470    4.9680    1.3670 ca        1 1TY     -0.119000
     19 C5'         6.2190    6.0290    2.2420 ca        1 1TY     -0.138000
     20 C4'         5.0100    6.7220    2.2010 ca        1 1TY     -0.143000
     21 C2          5.7190    3.4690   -0.5030 c3        1 1TY     -0.028100
     22 C1          5.1050    2.1460   -0.0330 c3        1 1TY      0.091800
     23 OXT         6.4370   -1.3130    0.3300 o         1 1TY     -0.841800
     24 H           5.6010   -4.5630   -0.7200 hn        1 1TY      0.333300
     25 H2          4.9040   -4.8940    0.6960 hn        1 1TY      0.333300
     26 HA          4.5360   -2.4600   -0.8820 h1        1 1TY      0.046700
     27 HB2         3.8490   -2.6430    2.0850 hc        1 1TY      0.065200
     28 HB3         2.7060   -3.4670    0.9480 hc        1 1TY      0.065200
     29 HE1        -0.3350    0.0120    0.3540 ha        1 1TY      0.138000
     30 HD2         4.6740   -0.3490    0.3310 ha        1 1TY      0.225000
     31 HH         -0.0360    2.1270   -0.3660 ho        1 1TY      0.411000
     32 H6'         7.4000    4.4180    1.4080 ha        1 1TY      0.141500
     33 H5'         6.9940    6.3150    2.9680 ha        1 1TY      0.121000
     34 H4'         4.8300    7.5570    2.8930 ha        1 1TY      0.118000
     35 H21         5.3230    3.7380   -1.5180 hc        1 1TY      0.051700
     36 H22         6.8240    3.2970   -0.6050 hc        1 1TY      0.051700
     37 H11         5.5570    1.3150   -0.6560 h1        1 1TY      0.084200
     38 H12         5.4280    1.9560    1.0330 h1        1 1TY      0.084200
     39 H3'         3.0700    6.8860    1.2560 ha        1 1TY      0.121000
     40 H2'         3.4710    4.9810   -0.3030 ha        1 1TY      0.141500
@<TRIPOS>BOND
     1    1    2 1   
     2    1   24 1   
     3    1   25 1   
     4    2    3 1   
     5    2    4 1   
     6    2   26 1   
     7    3    6 1   
     8    3   27 1   
     9    3   28 1   
    10    4    5 1   
    11    4   23 1   
    12    6    7 1   
    13    6   10 2   
    14    7    8 2   
    15    7    9 1   
    16    9   13 2   
    17    9   29 1   
    18   10   11 1   
    19   10   30 1   
    20   11   12 2   
    21   11   13 1   
    22   12   22 1   
    23   13   14 1   
    24   14   31 1   
    25   15   16 ar  
    26   15   20 ar  
    27   15   39 1   
    28   16   17 ar  
    29   16   40 1   
    30   17   18 ar  
    31   17   21 1   
    32   18   19 ar  
    33   18   32 1   
    34   19   20 ar  
    35   19   33 1   
    36   20   34 1   
    37   21   22 1   
    38   21   35 1   
    39   21   36 1   
    40   22   37 1   
    41   22   38 1   
@<TRIPOS>SUBSTRUCTURE
     1 1TY         1 TEMP              0 ****  ****    0 ROOT
