@<TRIPOS>MOLECULE
1TZ
   52    53     1     0     0
SMALL
bcc


@<TRIPOS>ATOM
      1 C18       661.8750   17.7030   86.6470 c1        1 1TZ     -0.180000
      2 C01       660.8040   17.0550   87.3810 c3        1 1TZ     -0.029000
      3 C02       661.1290   16.9350   88.8360 c2        1 1TZ      0.118000
      4 C03       662.4750   16.4630   89.2000 c3        1 1TZ     -0.244000
      5 C04       660.1850   17.2260   89.7880 c2        1 1TZ     -0.240000
      6 C05       658.9080   17.7280   89.4410 c2        1 1TZ      0.224000
      7 C06       657.9340   18.0550   90.4920 c3        1 1TZ     -0.253000
      8 C07       658.5830   17.9410   88.0800 c2        1 1TZ     -0.240000
      9 C08       659.4760   17.6740   87.0740 c2        1 1TZ      0.118000
     10 C09       659.1570   17.9460   85.6630 c3        1 1TZ     -0.244000
     11 N24       662.7330   18.2180   86.0580 n1        1 1TZ      0.086000
     12 N01      -524.2600  -16.8410  -70.4030 n         1 1TZ     -0.385000
     13 C23      -525.0320  -15.7260  -70.4000 c2        1 1TZ      0.288000
     14 O23      -524.6820  -14.6550  -69.8610 o         1 1TZ     -0.362000
     15 C11      -526.4140  -15.8000  -71.0980 c3        1 1TZ     -0.114000
     16 N22      -527.2340  -14.6080  -70.7020 n4        1 1TZ     -0.061000
     17 C10      -526.2130  -15.8690  -72.6240 c3        1 1TZ     -0.088000
     18 C12      -527.4760  -15.7380  -73.3500 c2        1 1TZ     -0.266000
     19 C2       -528.2540  -16.7760  -73.8850 c2        1 1TZ     -0.013000
     20 N23      -529.3620  -16.2550  -74.5340 na        1 1TZ     -0.186000
     21 C13      -529.3070  -14.8570  -74.4620 ca        1 1TZ     -0.002000
     22 C14      -530.1740  -13.8760  -74.9720 ca        1 1TZ     -0.112000
     23 C15      -529.8440  -12.5490  -74.7490 ca        1 1TZ     -0.103000
     24 C16      -528.6790  -12.1840  -74.0450 ca        1 1TZ     -0.115000
     25 C17      -527.8180  -13.1410  -73.5330 ca        1 1TZ     -0.149000
     26 C        -528.1220  -14.4940  -73.7200 ca        1 1TZ     -0.107000
     27 H1        660.7280   15.9720   86.9980 hc        1 1TZ      0.218000
     28 H2        663.1190   17.3490   89.4620 hc        1 1TZ      0.141000
     29 H3        662.9700   15.9180   88.3570 hc        1 1TZ      0.141000
     30 H4        662.4420   15.7930   90.0970 hc        1 1TZ      0.141000
     31 H5        660.4230   17.0830   90.8590 ha        1 1TZ      0.191000
     32 H6        656.8800   17.9490   90.1270 hc        1 1TZ      0.146333
     33 H7        658.0730   17.4130   91.4000 hc        1 1TZ      0.146333
     34 H8        658.0800   19.1270   90.8060 hc        1 1TZ      0.146333
     35 H9        657.5840   18.3510   87.8340 ha        1 1TZ      0.191000
     36 H10       659.7890   17.3390   84.9660 hc        1 1TZ      0.141000
     37 H11       659.3490   19.0330   85.4430 hc        1 1TZ      0.141000
     38 H12       658.0770   17.7430   85.4440 hc        1 1TZ      0.141000
     39 H13      -523.3600  -16.8070  -69.9800 hn        1 1TZ      0.256000
     40 H14      -526.9800  -16.7150  -70.7510 hx        1 1TZ      0.156000
     41 H15      -527.9910  -14.4630  -71.3880 hn        1 1TZ      0.268333
     42 H16      -526.6240  -13.7760  -70.6830 hn        1 1TZ      0.268333
     43 H18      -525.5000  -15.0580  -72.9430 hc        1 1TZ      0.129000
     44 H19      -525.7280  -16.8580  -72.8490 hc        1 1TZ      0.129000
     45 H20      -528.0820  -17.8560  -73.8460 h4        1 1TZ      0.182000
     46 H21      -530.0320  -16.7720  -75.0450 hn        1 1TZ      0.273000
     47 H22      -531.0760  -14.1520  -75.5360 ha        1 1TZ      0.156000
     48 H23      -530.5000  -11.7540  -75.1410 ha        1 1TZ      0.157000
     49 H24      -528.4480  -11.1150  -73.9180 ha        1 1TZ      0.151000
     50 H25      -526.8850  -12.8440  -73.0340 ha        1 1TZ      0.123000
     51 H012     -524.5420  -17.6710  -70.8630 hn        1 1TZ      0.256000
     52 H223     -527.6220  -14.7450  -69.7670 hn        1 1TZ      0.268333
@<TRIPOS>BOND
     1    1    2 1   
     2    1   11 1   
     3    2    3 1   
     4    2    9 1   
     5    2   27 1   
     6    3    4 1   
     7    3    5 1   
     8    4   28 1   
     9    4   29 1   
    10    4   30 1   
    11    5    6 1   
    12    5   31 1   
    13    6    7 1   
    14    6    8 1   
    15    7   32 1   
    16    7   33 1   
    17    7   34 1   
    18    8    9 1   
    19    8   35 1   
    20    9   10 1   
    21   10   36 1   
    22   10   37 1   
    23   10   38 1   
    24   12   13 1   
    25   12   39 1   
    26   12   51 1   
    27   13   14 1   
    28   13   15 1   
    29   15   16 1   
    30   15   17 1   
    31   15   40 1   
    32   16   41 1   
    33   16   42 1   
    34   16   52 1   
    35   17   18 1   
    36   17   43 1   
    37   17   44 1   
    38   18   19 1   
    39   18   26 1   
    40   19   20 1   
    41   19   45 1   
    42   20   21 1   
    43   20   46 1   
    44   21   22 1   
    45   21   26 1   
    46   22   23 1   
    47   22   47 1   
    48   23   24 1   
    49   23   48 1   
    50   24   25 1   
    51   24   49 1   
    52   25   26 1   
    53   25   50 1   
@<TRIPOS>SUBSTRUCTURE
     1 1TZ         1 TEMP              0 ****  ****    0 ROOT
