@<TRIPOS>MOLECULE
1TZ
   52    55     1     0     0
SMALL
bcc


@<TRIPOS>ATOM
      1 C18         0.0000    0.0000    0.0000 c2        1 1TZ     -0.254000
      2 C01         1.4750    0.0000    0.0000 c3        1 1TZ     -0.148000
      3 C02         2.1760    0.0000    1.2080 c2        1 1TZ      0.065000
      4 C03         1.4270   -0.0010    2.5160 c3        1 1TZ     -0.087000
      5 C04         3.5550    0.0000    1.2010 c2        1 1TZ     -0.156500
      6 C05         4.2440    0.0010    0.0020 c2        1 1TZ      0.126000
      7 C06         5.7520    0.0010    0.0020 c3        1 1TZ     -0.096000
      8 C07         3.5570    0.0010   -1.1980 c2        1 1TZ     -0.156500
      9 C08         2.1780   -0.0050   -1.2070 c2        1 1TZ      0.065000
     10 C09         1.4300   -0.0050   -2.5160 c3        1 1TZ     -0.087000
     11 N24        -0.6480   -0.1140   -1.1190 n2        1 1TZ     -0.402000
     12 N01        -2.0500   -0.1200   -1.1190 ny        1 1TZ      0.779000
     13 C23        -2.7220   -0.2380   -2.2800 c2        1 1TZ      0.075000
     14 O23        -2.1150   -0.3390   -3.3250 o         1 1TZ     -0.158000
     15 C11        -4.2290   -0.2450   -2.2800 c3        1 1TZ     -0.309000
     16 N22        -4.7200    0.0950   -3.6220 nz        1 1TZ      0.850000
     17 C10        -4.7330   -1.6360   -1.8910 c3        1 1TZ      0.014000
     18 C12        -6.2350   -1.6120   -1.7720 c2        1 1TZ     -0.325000
     19 C2         -6.9440   -1.4300   -0.6460 c2        1 1TZ     -0.161000
     20 N23        -8.2820   -1.4690   -0.9260 na        1 1TZ      0.402000
     21 C13        -8.4730   -1.6830   -2.2730 ca        1 1TZ     -0.178000
     22 C14        -9.6040   -1.8050   -3.0720 ca        1 1TZ     -0.049000
     23 C15        -9.4660   -2.0200   -4.4260 ca        1 1TZ     -0.062000
     24 C16        -8.2070   -2.1170   -5.0030 ca        1 1TZ     -0.054000
     25 C17        -7.0820   -2.0000   -4.2350 ca        1 1TZ     -0.134000
     26 C          -7.1980   -1.7750   -2.8630 ca        1 1TZ     -0.103000
     27 H1          0.6100    0.8550   -0.2660 DU        1 1TZ      0.334000
     28 H2          0.6900   -0.7950    2.5100 hc        1 1TZ      0.075333
     29 H3          0.9300    0.9520    2.6490 hc        1 1TZ      0.075333
     30 H4          2.1230   -0.1610    3.3310 hc        1 1TZ      0.075333
     31 H5          4.1000    0.0000    2.1370 ha        1 1TZ      0.151000
     32 H6          6.1130    0.5500   -0.8580 hc        1 1TZ      0.081667
     33 H7          6.1130   -1.0200   -0.0430 hc        1 1TZ      0.081667
     34 H8          6.1130    0.4710    0.9090 hc        1 1TZ      0.081667
     35 H9          4.1030    0.0040   -2.1340 ha        1 1TZ      0.151000
     36 H10         2.1370    0.0250   -3.3360 hc        1 1TZ      0.075333
     37 H11         0.7840    0.8630   -2.5630 hc        1 1TZ      0.075333
     38 H12         0.8300   -0.9050   -2.5890 hc        1 1TZ      0.075333
     39 H13        -2.3440    0.7390   -0.6970 hn        1 1TZ      0.035000
     40 H14        -4.5940    0.4840   -1.5670 hx        1 1TZ      0.144000
     41 H15        -4.2160    0.8860   -3.9720 hn        1 1TZ      0.042333
     42 H16        -5.6950    0.3170   -3.5750 hn        1 1TZ      0.042333
     43 H18        -4.4430   -2.3510   -2.6510 hc        1 1TZ      0.090000
     44 H19        -4.3000   -1.9240   -0.9410 hc        1 1TZ      0.090000
     45 H20        -6.5180   -1.2750    0.3380 h4        1 1TZ      0.146000
     46 H21        -9.0140   -1.3590   -0.2520 hn        1 1TZ      0.091000
     47 H22       -10.5910   -1.7320   -2.6320 ha        1 1TZ      0.125000
     48 H23       -10.3490   -2.1150   -5.0470 ha        1 1TZ      0.131000
     49 H24        -8.1150   -2.2860   -6.0690 ha        1 1TZ      0.122000
     50 H25        -6.1020   -2.0760   -4.6920 ha        1 1TZ      0.075000
     51 H012       -2.3370   -0.8820   -0.5360 hn        1 1TZ      0.035000
     52 H223       -4.5820   -0.6830   -4.2360 hn        1 1TZ      0.042333
@<TRIPOS>BOND
     1    1    2 1   
     2    1   11 1   
     3    1   27 1   
     4    2    3 1   
     5    2    9 1   
     6    2   27 1   
     7    3    4 1   
     8    3    5 1   
     9    4   28 1   
    10    4   29 1   
    11    4   30 1   
    12    5    6 1   
    13    5   31 1   
    14    6    7 1   
    15    6    8 1   
    16    7   32 1   
    17    7   33 1   
    18    7   34 1   
    19    8    9 1   
    20    8   35 1   
    21    9   10 1   
    22   10   36 1   
    23   10   37 1   
    24   10   38 1   
    25   11   12 1   
    26   12   13 1   
    27   12   39 1   
    28   12   51 1   
    29   13   14 1   
    30   13   15 1   
    31   15   16 1   
    32   15   17 1   
    33   15   40 1   
    34   16   41 1   
    35   16   42 1   
    36   16   52 1   
    37   17   18 1   
    38   17   43 1   
    39   17   44 1   
    40   18   19 1   
    41   18   26 1   
    42   19   20 1   
    43   19   45 1   
    44   20   21 1   
    45   20   46 1   
    46   21   22 1   
    47   21   26 1   
    48   22   23 1   
    49   22   47 1   
    50   23   24 1   
    51   23   48 1   
    52   24   25 1   
    53   24   49 1   
    54   25   26 1   
    55   25   50 1   
@<TRIPOS>SUBSTRUCTURE
     1 1TZ         1 TEMP              0 ****  ****    0 ROOT
