@<TRIPOS>MOLECULE
1U0
   50    51     1     0     0
SMALL
bcc


@<TRIPOS>ATOM
      1 O3B         0.0000    0.0000    0.0000 o         1 1U0     -0.671500
      2 PB          1.6100    0.0000    0.0000 p5        1 1U0      0.806900
      3 O1B         2.1030    0.0000    1.3960 o         1 1U0     -0.671500
      4 O2B         2.1470   -1.3150   -0.7580 o         1 1U0     -0.671500
      5 O3A         2.1460    1.3150   -0.7590 os        1 1U0     -0.474800
      6 PA          3.5740    2.0550   -0.8400 p5        1 1U0      0.916800
      7 O1A         4.2130    2.0440    0.4950 o         1 1U0     -0.691000
      8 O2A         4.5190    1.2860   -1.8930 o         1 1U0     -0.691000
      9 O7          3.3620    3.5760   -1.3200 os        1 1U0     -0.503200
     10 C7          4.4280    4.5260   -1.3920 c3        1 1U0      0.307400
     11 C6          3.8840    5.8680   -1.8840 c3        1 1U0      0.017900
     12 C5          5.0090    6.8690   -1.9590 cc        1 1U0      0.101600
     13 C4          5.7790    7.0820   -3.0260 cd        1 1U0     -0.162300
     14 CM4         5.6060    6.3220   -4.3160 c3        1 1U0      0.073200
     15 S1          5.5010    7.9410   -0.6530 ss        1 1U0     -0.281800
     16 C2          6.7670    8.6330   -1.6590 cc        1 1U0     -0.060400
     17 C8          7.7230    9.7160   -1.2290 c3        1 1U0      0.286400
     18 O9          8.2190    9.4220    0.0780 oh        1 1U0     -0.570800
     19 C3          6.7510    8.0550   -2.8600 cd        1 1U0     -0.066300
     20 C7'         7.7180    8.4290   -3.9540 c3        1 1U0      0.134200
     21 C5'         8.9710    7.6020   -3.8210 ca        1 1U0     -0.427900
     22 C6'         9.0570    6.5930   -2.8820 ca        1 1U0      0.471200
     23 N1'        10.1750    5.8860   -2.7930 nb        1 1U0     -0.667000
     24 C2'        11.1980    6.1320   -3.5860 ca        1 1U0      0.485300
     25 CM2        12.4480    5.3000   -3.4470 c3        1 1U0     -0.006400
     26 N3'        11.1590    7.0840   -4.4960 nb        1 1U0     -0.627000
     27 C4'        10.0720    7.8320   -4.6480 ca        1 1U0      0.402200
     28 N4'        10.0340    8.8330   -5.6060 nv        1 1U0     -0.638500
     29 C9          6.9920   11.0600   -1.2060 c3        1 1U0      0.177400
     30 O10         7.9240   12.1030   -0.9130 oh        1 1U0     -0.608800
     31 H4          4.8660    4.6520   -0.4090 h1        1 1U0     -0.018300
     32 H5          5.1850    4.1690   -2.0800 h1        1 1U0     -0.018300
     33 H6          3.1280    6.2260   -1.1960 hc        1 1U0      0.019200
     34 H7          3.4470    5.7420   -2.8670 hc        1 1U0      0.019200
     35 H8          6.3630    5.5510   -4.3850 hc        1 1U0      0.012033
     36 H9          4.6230    5.8670   -4.3370 hc        1 1U0      0.012033
     37 H10         5.7060    7.0030   -5.1520 hc        1 1U0      0.012033
     38 H11         8.5500    9.7660   -1.9270 h1        1 1U0      0.026700
     39 H12         9.0190    9.9000    0.2250 ho        1 1U0      0.381000
     40 H13         7.9680    9.4800   -3.8710 hc        1 1U0      0.006200
     41 H14         7.2620    8.2420   -4.9190 hc        1 1U0      0.006200
     42 H15         8.1710    6.2760   -2.3440 h4        1 1U0      0.007100
     43 H16        13.2510    5.9170   -3.0630 hc        1 1U0     -0.006633
     44 H17        12.2630    4.4810   -2.7630 hc        1 1U0     -0.006633
     45 H18        12.7280    4.9050   -4.4160 hc        1 1U0     -0.006633
     46 H19         9.6170    8.6560   -6.4980 hn        1 1U0      0.244800
     47 H20        10.4530    9.7220   -5.4170 hn        1 1U0      0.244800
     48 H21         6.5390   11.2420   -2.1730 h1        1 1U0     -0.000800
     49 H22         6.2210   11.0400   -0.4450 h1        1 1U0     -0.000800
     50 H23         7.4590   12.9150   -0.7920 ho        1 1U0      0.376000
@<TRIPOS>BOND
     1    1    2 1   
     2    2    3 1   
     3    2    4 1   
     4    2    5 1   
     5    5    6 1   
     6    6    7 1   
     7    6    8 1   
     8    6    9 1   
     9    9   10 1   
    10   10   11 1   
    11   10   31 1   
    12   10   32 1   
    13   11   12 1   
    14   11   33 1   
    15   11   34 1   
    16   12   13 2   
    17   12   15 1   
    18   13   14 1   
    19   13   19 1   
    20   14   35 1   
    21   14   36 1   
    22   14   37 1   
    23   15   16 1   
    24   16   17 1   
    25   16   19 2   
    26   17   18 1   
    27   17   29 1   
    28   17   38 1   
    29   18   39 1   
    30   19   20 1   
    31   20   21 1   
    32   20   40 1   
    33   20   41 1   
    34   21   22 ar  
    35   21   27 ar  
    36   22   23 ar  
    37   22   42 1   
    38   23   24 ar  
    39   24   25 1   
    40   24   26 ar  
    41   25   43 1   
    42   25   44 1   
    43   25   45 1   
    44   26   27 ar  
    45   27   28 1   
    46   28   46 1   
    47   28   47 1   
    48   29   30 1   
    49   29   48 1   
    50   29   49 1   
    51   30   50 1   
@<TRIPOS>SUBSTRUCTURE
     1 1U0         1 TEMP              0 ****  ****    0 ROOT
