@<TRIPOS>MOLECULE
1U1
   17    17     1     0     0
SMALL
bcc


@<TRIPOS>ATOM
      1 C01        -0.0450   -0.0230   -0.0620 cc        1 1U1     -0.041000
      2 C02         1.4000   -0.0280   -0.0780 cc        1 1U1     -0.595500
      3 C03         1.8910    0.0880    1.2380 cd        1 1U1     -0.055700
      4 S04         0.7070    0.1430    2.3450 ss        1 1U1      0.308200
      5 C05        -0.5430    0.0610    1.2160 cd        1 1U1     -0.100700
      6 CL6        -2.1620    0.0830    1.6230 cl        1 1U1     -0.008400
      7 C07         3.3660    0.2080    1.6510 c         1 1U1      0.930200
      8 O08         3.7480   -0.4750    2.6170 o         1 1U1     -0.765300
      9 O09         4.0610    1.0300    0.9810 o         1 1U1     -0.765300
     10 S10         2.1850   -0.2330   -1.4350 sy        1 1U1      1.525200
     11 O11         3.1440   -1.2250   -1.5040 o         1 1U1     -0.607300
     12 O12         1.3840   -0.0510   -2.5640 o         1 1U1     -0.607300
     13 N13         3.2100    1.3060   -1.4920 n4        1 1U1     -0.807500
     14 H1         -0.6440   -0.0850   -0.9790 ha        1 1U1      0.185000
     15 H3          4.1870    1.0710   -1.6710 hn        1 1U1      0.468133
     16 H4          3.2160    1.7630   -0.5550 hn        1 1U1      0.468133
     17 H133        2.8980    1.9690   -2.1890 hn        1 1U1      0.468133
@<TRIPOS>BOND
     1    1    2 1   
     2    1    5 2   
     3    1   14 1   
     4    2    3 2   
     5    2   10 1   
     6    3    4 1   
     7    3    7 1   
     8    4    5 1   
     9    5    6 1   
    10    7    8 1   
    11    7    9 1   
    12   10   11 2   
    13   10   12 2   
    14   10   13 1   
    15   13   15 1   
    16   13   16 1   
    17   13   17 1   
@<TRIPOS>SUBSTRUCTURE
     1 1U1         1 TEMP              0 ****  ****    0 ROOT
