@<TRIPOS>MOLECULE
1U1
   17    17     1     0     0
SMALL
bcc


@<TRIPOS>ATOM
      1 C01        -0.0440   -0.0280   -0.0660 cc        1 1U1     -0.041000
      2 C02         1.4010   -0.0290   -0.0790 cc        1 1U1     -0.595500
      3 C03         1.8900    0.0860    1.2380 cd        1 1U1     -0.055700
      4 S04         0.7030    0.1360    2.3430 ss        1 1U1      0.308200
      5 C05        -0.5440    0.0520    1.2120 cd        1 1U1     -0.100700
      6 Cl6        -2.1640    0.0690    1.6160 cl        1 1U1     -0.008400
      7 C07         3.3630    0.2100    1.6530 c         1 1U1      0.930200
      8 O08         3.7460   -0.4740    2.6190 o         1 1U1     -0.765300
      9 O09         4.0570    1.0340    0.9860 o         1 1U1     -0.765300
     10 S10         2.1890   -0.2300   -1.4350 sy        1 1U1      1.525200
     11 O11         3.1510   -1.2200   -1.5040 o         1 1U1     -0.607300
     12 O12         1.3890   -0.0490   -2.5660 o         1 1U1     -0.607300
     13 N13         3.2100    1.3120   -1.4880 nz        1 1U1     -0.807500
     14 H1         -0.6410   -0.0900   -0.9840 ha        1 1U1      0.185000
     15 H3          3.2130    1.7670   -0.5500 hn        1 1U1      0.468133
     16 H4          2.8970    1.9760   -2.1850 hn        1 1U1      0.468133
     17 H133        4.1880    1.0810   -1.6650 hn        1 1U1      0.468133
@<TRIPOS>BOND
     1    1    2 1   
     2    1    5 2   
     3    1   14 1   
     4    2    3 2   
     5    2   10 1   
     6    3    4 1   
     7    3    7 1   
     8    4    5 1   
     9    5    6 1   
    10    7    8 1   
    11    7    9 1   
    12   10   11 2   
    13   10   12 2   
    14   10   13 1   
    15   13   15 1   
    16   13   16 1   
    17   13   17 1   
@<TRIPOS>SUBSTRUCTURE
     1 1U1         1 TEMP              0 ****  ****    0 ROOT
