@<TRIPOS>MOLECULE
1U1
   17    17     1     0     0
SMALL
bcc


@<TRIPOS>ATOM
      1 C01        -0.0450   -0.0270   -0.0640 cc        1 1U1     -0.041000
      2 C02         1.4000   -0.0280   -0.0820 cc        1 1U1     -0.595500
      3 C03         1.8940    0.0690    1.2340 cd        1 1U1     -0.055700
      4 S04         0.7110    0.1050    2.3440 ss        1 1U1      0.308200
      5 C05        -0.5400    0.0370    1.2160 cd        1 1U1     -0.100700
      6 CL6        -2.1580    0.0500    1.6260 cl        1 1U1     -0.008400
      7 C07         3.3690    0.1870    1.6460 c         1 1U1      0.930200
      8 O08         3.7550   -0.5100    2.6010 o         1 1U1     -0.765300
      9 O09         4.0610    1.0200    0.9880 o         1 1U1     -0.765300
     10 S10         2.1840   -0.2110   -1.4430 sy        1 1U1      1.525200
     11 O11         3.1440   -1.2010   -1.5290 o         1 1U1     -0.607300
     12 O12         1.3800   -0.0150   -2.5690 o         1 1U1     -0.607300
     13 N13         3.2050    1.3300   -1.4790 n4        1 1U1     -0.807500
     14 H1         -0.6450   -0.0760   -0.9810 ha        1 1U1      0.185000
     15 H3          3.2120    1.7730   -0.5360 hn        1 1U1      0.468133
     16 H4          2.8910    2.0030   -2.1660 hn        1 1U1      0.468133
     17 H133        4.1830    1.1000   -1.6630 hn        1 1U1      0.468133
@<TRIPOS>BOND
     1    1    2 1   
     2    1    5 2   
     3    1   14 1   
     4    2    3 2   
     5    2   10 1   
     6    3    4 1   
     7    3    7 1   
     8    4    5 1   
     9    5    6 1   
    10    7    8 1   
    11    7    9 1   
    12   10   11 2   
    13   10   12 2   
    14   10   13 1   
    15   13   15 1   
    16   13   16 1   
    17   13   17 1   
@<TRIPOS>SUBSTRUCTURE
     1 1U1         1 TEMP              0 ****  ****    0 ROOT
