@<TRIPOS>MOLECULE
1U2
   39    41     1     0     0
SMALL
bcc


@<TRIPOS>ATOM
      1 O          -2.3340   -1.0000   -0.2380 o         1 1U2     -0.605100
      2 C8         -2.4140    0.2040    0.0860 c         1 1U2      0.769100
      3 N4         -3.6390    0.9070    0.0520 n         1 1U2     -0.461100
      4 C9         -4.8860    0.2650   -0.0990 ca        1 1U2      0.056600
      5 C14        -6.0200    0.8260    0.5350 ca        1 1U2     -0.155000
      6 C13        -7.2770    0.2630    0.3450 ca        1 1U2     -0.108500
      7 C12        -7.4360   -0.8630   -0.4620 ca        1 1U2     -0.148000
      8 C11        -6.3230   -1.4240   -1.0840 ca        1 1U2     -0.108500
      9 C10        -5.0560   -0.8730   -0.9150 ca        1 1U2     -0.155000
     10 N3         -1.2780    0.9400    0.5020 n         1 1U2     -0.466100
     11 C7          0.0380    0.4530    0.3860 ca        1 1U2      0.080600
     12 C6          1.0790    1.3490    0.1480 ca        1 1U2     -0.187000
     13 C15         0.3450   -0.9330    0.5820 ca        1 1U2     -0.126000
     14 C16         1.6430   -1.3670    0.5380 ca        1 1U2     -0.098000
     15 C17         2.7170   -0.4660    0.3050 ca        1 1U2     -0.060000
     16 C5          2.4240    0.9070    0.1100 ca        1 1U2     -0.002000
     17 C4          3.4950    1.8140   -0.1240 ca        1 1U2     -0.130000
     18 C3          4.7930    1.3690   -0.1670 ca        1 1U2     -0.095000
     19 C18         4.0670   -0.9040    0.2630 ca        1 1U2     -0.088000
     20 C2          5.0840   -0.0060    0.0290 ca        1 1U2     -0.201900
     21 C1          6.5050   -0.4780    0.0030 ce        1 1U2      0.639800
     22 N2          7.2470   -0.0280   -1.1100 nh        1 1U2     -0.893800
     23 N1          7.0530   -1.1930    0.9420 n2        1 1U2     -0.835100
     24 H8         -3.6840    1.7770    0.5380 hn        1 1U2      0.307500
     25 H13        -5.9210    1.7130    1.1790 ha        1 1U2      0.148000
     26 H12        -8.1510    0.7120    0.8410 ha        1 1U2      0.134500
     27 H11        -8.4320   -1.3050   -0.6040 ha        1 1U2      0.134000
     28 H10        -6.4400   -2.3140   -1.7210 ha        1 1U2      0.134500
     29 H9         -4.1890   -1.3390   -1.4110 ha        1 1U2      0.148000
     30 H7         -1.3480    1.9350    0.4990 hn        1 1U2      0.308500
     31 H6          0.8860    2.4220   -0.0100 ha        1 1U2      0.132000
     32 H14        -0.4740   -1.6510    0.7570 ha        1 1U2      0.172000
     33 H15         1.8740   -2.4340    0.6870 ha        1 1U2      0.140000
     34 H5          3.2630    2.8800   -0.2710 ha        1 1U2      0.135000
     35 H4          5.6220    2.0720   -0.3450 ha        1 1U2      0.150000
     36 H16         4.2790   -1.9740    0.4180 ha        1 1U2      0.140000
     37 H3          6.7080    0.0200   -1.9460 hn        1 1U2      0.398300
     38 H2          8.1360   -0.4620   -1.2350 hn        1 1U2      0.398300
     39 H1          6.4590   -1.3630    1.7240 hn        1 1U2      0.395400
@<TRIPOS>BOND
     1    1    2 2   
     2    2    3 1   
     3    2   10 1   
     4    3    4 1   
     5    3   24 1   
     6    4    5 ar  
     7    4    9 ar  
     8    5    6 ar  
     9    5   25 1   
    10    6    7 ar  
    11    6   26 1   
    12    7    8 ar  
    13    7   27 1   
    14    8    9 ar  
    15    8   28 1   
    16    9   29 1   
    17   10   11 1   
    18   10   30 1   
    19   11   12 ar  
    20   11   13 ar  
    21   12   16 ar  
    22   12   31 1   
    23   13   14 ar  
    24   13   32 1   
    25   14   15 ar  
    26   14   33 1   
    27   15   16 ar  
    28   15   19 ar  
    29   16   17 ar  
    30   17   18 ar  
    31   17   34 1   
    32   18   20 ar  
    33   18   35 1   
    34   19   20 ar  
    35   19   36 1   
    36   20   21 1   
    37   21   22 1   
    38   21   23 2   
    39   22   37 1   
    40   22   38 1   
    41   23   39 1   
@<TRIPOS>SUBSTRUCTURE
     1 1U2         1 TEMP              0 ****  ****    0 ROOT
