@<TRIPOS>MOLECULE
1U2
   40    42     1     0     0
SMALL
bcc


@<TRIPOS>ATOM
      1 O          -0.4210    0.0600    0.1490 o         1 1U2     -0.600100
      2 C8          0.8250    0.0030    0.0980 c         1 1U2      0.779100
      3 N4          1.6410    0.0580    1.2350 n         1 1U2     -0.451100
      4 C9          1.1290   -0.0550    2.5490 ca        1 1U2      0.040600
      5 C14         1.9240   -0.6880    3.5320 ca        1 1U2     -0.148000
      6 C13         1.4810   -0.7540    4.8490 ca        1 1U2     -0.106500
      7 C12         0.2510   -0.2060    5.2120 ca        1 1U2     -0.134000
      8 C11        -0.5380    0.4130    4.2460 ca        1 1U2     -0.106500
      9 C10        -0.1130    0.4970    2.9220 ca        1 1U2     -0.148000
     10 N3          1.4950   -0.0720   -1.1590 n         1 1U2     -0.479100
     11 C7          0.8530   -0.1330   -2.3930 ca        1 1U2      0.149600
     12 C6          1.5540    0.2470   -3.5460 ca        1 1U2     -0.220000
     13 C15        -0.4890   -0.6280   -2.5370 ca        1 1U2     -0.122000
     14 C16        -1.0700   -0.7190   -3.7720 ca        1 1U2     -0.086000
     15 C17        -0.3700   -0.3330   -4.9490 ca        1 1U2     -0.086000
     16 C5          0.9600    0.1500   -4.8220 ca        1 1U2      0.033000
     17 C4          1.6690    0.5330   -5.9990 ca        1 1U2     -0.094000
     18 C3          1.0780    0.4490   -7.2330 ca        1 1U2     -0.130000
     19 C18        -0.9640   -0.4200   -6.2290 ca        1 1U2     -0.022000
     20 C2         -0.2550   -0.0300   -7.3490 ca        1 1U2     -0.297900
     21 C1         -0.8660   -0.1440   -8.6840 ce        1 1U2      0.602800
     22 N2         -1.0580    1.2160   -9.3150 n4        1 1U2     -0.827600
     23 N1         -1.2500   -1.1470   -9.3740 n2        1 1U2     -0.722100
     24 H8          2.6020   -0.1920    1.1420 hn        1 1U2      0.316500
     25 H13         2.8980   -1.1290    3.2710 ha        1 1U2      0.147000
     26 H12         2.1100   -1.2450    5.6070 ha        1 1U2      0.141500
     27 H11        -0.0930   -0.2650    6.2550 ha        1 1U2      0.143000
     28 H10        -1.5120    0.8470    4.5250 ha        1 1U2      0.141500
     29 H9         -0.7570    0.9860    2.1740 ha        1 1U2      0.147000
     30 H7          2.4620    0.1700   -1.1900 hn        1 1U2      0.323500
     31 H6          2.5860    0.6270   -3.4840 ha        1 1U2      0.147000
     32 H14        -1.0580   -0.9330   -1.6390 ha        1 1U2      0.193000
     33 H15        -2.0990   -1.1010   -3.8680 ha        1 1U2      0.150000
     34 H5          2.7050    0.8930   -5.8970 ha        1 1U2      0.157000
     35 H4          1.6430    0.7190   -8.1370 ha        1 1U2      0.130000
     36 H16        -1.9950   -0.8020   -6.3100 ha        1 1U2      0.146000
     37 H3         -1.3790    1.1540  -10.2880 hn        1 1U2      0.467800
     38 H2         -0.1600    1.7100   -9.2760 hn        1 1U2      0.467800
     39 H1         -1.1250   -2.0620   -8.9910 hn        1 1U2      0.488400
     40 H23        -1.7480    1.7300   -8.7590 hn        1 1U2      0.467800
@<TRIPOS>BOND
     1    1    2 2   
     2    2    3 1   
     3    2   10 1   
     4    3    4 1   
     5    3   24 1   
     6    4    5 ar  
     7    4    9 ar  
     8    5    6 ar  
     9    5   25 1   
    10    6    7 ar  
    11    6   26 1   
    12    7    8 ar  
    13    7   27 1   
    14    8    9 ar  
    15    8   28 1   
    16    9   29 1   
    17   10   11 1   
    18   10   30 1   
    19   11   12 ar  
    20   11   13 ar  
    21   12   16 ar  
    22   12   31 1   
    23   13   14 ar  
    24   13   32 1   
    25   14   15 ar  
    26   14   33 1   
    27   15   16 ar  
    28   15   19 ar  
    29   16   17 ar  
    30   17   18 ar  
    31   17   34 1   
    32   18   20 ar  
    33   18   35 1   
    34   19   20 ar  
    35   19   36 1   
    36   20   21 1   
    37   21   22 1   
    38   21   23 2   
    39   22   37 1   
    40   22   38 1   
    41   22   40 1   
    42   23   39 1   
@<TRIPOS>SUBSTRUCTURE
     1 1U2         1 TEMP              0 ****  ****    0 ROOT
