@<TRIPOS>MOLECULE
1U2
   42    44     1     0     0
SMALL
bcc


@<TRIPOS>ATOM
      1 O           2.4790    1.8850   -0.7130 o         1 1U2     -0.299100
      2 C8          1.7250    1.1090   -0.1510 c         1 1U2      0.480100
      3 N4          1.0950    1.4700    1.1610 n4        1 1U2     -0.487200
      4 C9          1.0610    0.3570    2.1130 ca        1 1U2     -0.156400
      5 C14         2.1440    0.1650    2.9940 ca        1 1U2     -0.106000
      6 C13         2.0500   -0.8260    3.9710 ca        1 1U2     -0.084500
      7 C12         0.8990   -1.6100    4.0800 ca        1 1U2     -0.019000
      8 C11        -0.1730   -1.4110    3.1990 ca        1 1U2     -0.084500
      9 C10        -0.1080   -0.4320    2.2150 ca        1 1U2     -0.106000
     10 N3          1.4280   -0.2400   -0.7400 n4        1 1U2     -0.497200
     11 C7          0.7630   -0.1350   -2.0520 ca        1 1U2     -0.074400
     12 C6          1.5000    0.1790   -3.1850 ca        1 1U2     -0.029000
     13 C15        -0.6340   -0.4220   -2.1290 ca        1 1U2     -0.138000
     14 C16        -1.2550   -0.3990   -3.3530 ca        1 1U2     -0.038000
     15 C17        -0.5320   -0.0870   -4.5410 ca        1 1U2     -0.011000
     16 C5          0.8550    0.2040   -4.4520 ca        1 1U2     -0.024000
     17 C4          1.5790    0.5190   -5.6360 ca        1 1U2     -0.072000
     18 C3          0.9420    0.5460   -6.8550 ca        1 1U2     -0.092000
     19 C18        -1.1720   -0.0540   -5.8110 ca        1 1U2     -0.061000
     20 C2         -0.4450    0.2600   -6.9420 ca        1 1U2     -0.191900
     21 C1         -1.1310    0.3880   -8.2560 ce        1 1U2      0.558800
     22 N2         -0.7530   -0.6940   -9.2290 n4        1 1U2     -0.818600
     23 N1         -1.9600    1.2610   -8.6750 n2        1 1U2     -0.659100
     24 H8          1.6560    2.2520    1.5650 hn        1 1U2      0.513300
     25 H13         3.0540    0.7900    2.9490 ha        1 1U2      0.165500
     26 H12         2.8930   -0.9750    4.6750 ha        1 1U2      0.204500
     27 H11         0.8260   -2.3810    4.8730 ha        1 1U2      0.209000
     28 H10        -1.0900   -2.0230    3.3020 ha        1 1U2      0.204500
     29 H9         -0.9850   -0.2550    1.5710 ha        1 1U2      0.165500
     30 H7          2.3400   -0.7210   -0.8700 hn        1 1U2      0.504800
     31 H6          2.5800    0.4160   -3.1440 ha        1 1U2      0.182000
     32 H14        -1.2140   -0.6830   -1.2290 ha        1 1U2      0.164000
     33 H15        -2.3350   -0.6280   -3.4280 ha        1 1U2      0.193000
     34 H5          2.6580    0.7480   -5.5670 ha        1 1U2      0.183000
     35 H4          1.5080    0.8170   -7.7640 ha        1 1U2      0.175000
     36 H16        -2.2530   -0.2750   -5.8640 ha        1 1U2      0.179000
     37 H3         -1.0820   -1.5970   -8.8710 hn        1 1U2      0.482467
     38 H2          0.2690   -0.7130   -9.3230 hn        1 1U2      0.482467
     39 H1         -2.2490    2.0140   -8.0840 hn        1 1U2      0.501400
     40 H42         0.1330    1.8150    0.9920 hn        1 1U2      0.513300
     41 H32         0.8430   -0.8110   -0.1020 hn        1 1U2      0.504800
     42 H23        -1.1740   -0.5290  -10.1590 hn        1 1U2      0.482467
@<TRIPOS>BOND
     1    1    2 2   
     2    2    3 1   
     3    2   10 1   
     4    3    4 1   
     5    3   24 1   
     6    3   40 1   
     7    4    5 ar  
     8    4    9 ar  
     9    5    6 ar  
    10    5   25 1   
    11    6    7 ar  
    12    6   26 1   
    13    7    8 ar  
    14    7   27 1   
    15    8    9 ar  
    16    8   28 1   
    17    9   29 1   
    18   10   11 1   
    19   10   30 1   
    20   10   41 1   
    21   11   12 ar  
    22   11   13 ar  
    23   12   16 ar  
    24   12   31 1   
    25   13   14 ar  
    26   13   32 1   
    27   14   15 ar  
    28   14   33 1   
    29   15   16 ar  
    30   15   19 ar  
    31   16   17 ar  
    32   17   18 ar  
    33   17   34 1   
    34   18   20 ar  
    35   18   35 1   
    36   19   20 ar  
    37   19   36 1   
    38   20   21 1   
    39   21   22 1   
    40   21   23 2   
    41   22   37 1   
    42   22   38 1   
    43   22   42 1   
    44   23   39 1   
@<TRIPOS>SUBSTRUCTURE
     1 1U2         1 TEMP              0 ****  ****    0 ROOT
