@<TRIPOS>MOLECULE
1U2
   40    42     1     0     0
SMALL
bcc


@<TRIPOS>ATOM
      1 O          -0.4200    0.0700    0.1490 o         1 1U2     -0.600100
      2 C8          0.8260    0.0140    0.0970 c         1 1U2      0.779100
      3 N4          1.6430    0.0740    1.2340 ns        1 1U2     -0.451100
      4 C9          1.1300   -0.0330    2.5490 ca        1 1U2      0.040600
      5 C14         1.9260   -0.6620    3.5350 ca        1 1U2     -0.148000
      6 C13         1.4840   -0.7210    4.8520 ca        1 1U2     -0.106500
      7 C12         0.2530   -0.1730    5.2130 ca        1 1U2     -0.134000
      8 C11        -0.5370    0.4430    4.2440 ca        1 1U2     -0.106500
      9 C10        -0.1110    0.5210    2.9200 ca        1 1U2     -0.148000
     10 N3          1.4960   -0.0660   -1.1590 ns        1 1U2     -0.479100
     11 C7          0.8530   -0.1320   -2.3930 ca        1 1U2      0.149600
     12 C6          1.5540    0.2430   -3.5480 ca        1 1U2     -0.220000
     13 C15        -0.4880   -0.6290   -2.5340 ca        1 1U2     -0.122000
     14 C16        -1.0690   -0.7260   -3.7690 ca        1 1U2     -0.086000
     15 C17        -0.3710   -0.3450   -4.9470 ca        1 1U2     -0.086000
     16 C5          0.9600    0.1400   -4.8220 ca        1 1U2      0.033000
     17 C4          1.6670    0.5180   -6.0020 ca        1 1U2     -0.094000
     18 C3          1.0760    0.4290   -7.2350 ca        1 1U2     -0.130000
     19 C18        -0.9650   -0.4380   -6.2270 ca        1 1U2     -0.022000
     20 C2         -0.2570   -0.0510   -7.3490 ca        1 1U2     -0.297900
     21 C1         -0.8680   -0.1720   -8.6830 ce        1 1U2      0.602800
     22 N2         -1.0600    1.1860   -9.3200 nz        1 1U2     -0.827600
     23 N1         -1.2520   -1.1780   -9.3680 n2        1 1U2     -0.722100
     24 H8          2.6040   -0.1750    1.1420 hn        1 1U2      0.316500
     25 H13         2.9000   -1.1030    3.2750 ha        1 1U2      0.147000
     26 H12         2.1120   -1.2100    5.6120 ha        1 1U2      0.141500
     27 H11        -0.0910   -0.2270    6.2560 ha        1 1U2      0.143000
     28 H10        -1.5100    0.8760    4.5220 ha        1 1U2      0.141500
     29 H9         -0.7560    1.0060    2.1690 ha        1 1U2      0.147000
     30 H7          2.4630    0.1760   -1.1910 hn        1 1U2      0.323500
     31 H6          2.5860    0.6240   -3.4870 ha        1 1U2      0.147000
     32 H14        -1.0570   -0.9310   -1.6350 ha        1 1U2      0.193000
     33 H15        -2.0990   -1.1100   -3.8630 ha        1 1U2      0.150000
     34 H5          2.7040    0.8800   -5.9020 ha        1 1U2      0.157000
     35 H4          1.6400    0.6960   -8.1410 ha        1 1U2      0.130000
     36 H16        -1.9960   -0.8210   -6.3060 ha        1 1U2      0.146000
     37 H3         -1.7500    1.7030   -8.7650 hn        1 1U2      0.467800
     38 H2         -1.3830    1.1190  -10.2930 hn        1 1U2      0.467800
     39 H1         -1.1270   -2.0910   -8.9810 hn        1 1U2      0.488400
     40 H23        -0.1630    1.6800   -9.2840 hn        1 1U2      0.467800
@<TRIPOS>BOND
     1    1    2 2   
     2    2    3 1   
     3    2   10 1   
     4    3    4 1   
     5    3   24 1   
     6    4    5 ar  
     7    4    9 ar  
     8    5    6 ar  
     9    5   25 1   
    10    6    7 ar  
    11    6   26 1   
    12    7    8 ar  
    13    7   27 1   
    14    8    9 ar  
    15    8   28 1   
    16    9   29 1   
    17   10   11 1   
    18   10   30 1   
    19   11   12 ar  
    20   11   13 ar  
    21   12   16 ar  
    22   12   31 1   
    23   13   14 ar  
    24   13   32 1   
    25   14   15 ar  
    26   14   33 1   
    27   15   16 ar  
    28   15   19 ar  
    29   16   17 ar  
    30   17   18 ar  
    31   17   34 1   
    32   18   20 ar  
    33   18   35 1   
    34   19   20 ar  
    35   19   36 1   
    36   20   21 1   
    37   21   22 1   
    38   21   23 2   
    39   22   37 1   
    40   22   38 1   
    41   22   40 1   
    42   23   39 1   
@<TRIPOS>SUBSTRUCTURE
     1 1U2         1 TEMP              0 ****  ****    0 ROOT
