@<TRIPOS>MOLECULE
1U2
   39    32     1     0     0
SMALL
bcc


@<TRIPOS>ATOM
      1 O          -0.1470    0.5100    2.2080 o         1 1U2     -0.371000
      2 C8          0.9130   -0.0800    2.2720 c1        1 1U2      0.415000
      3 N4          1.6630   -0.0600    3.4760 n3        1 1U2     -0.331000
      4 C9          1.1750    0.6490    4.6040 c2        1 1U2      0.080000
      5 C14         0.1390    0.1220    5.3590 c2        1 1U2     -0.143000
      6 C13        -0.3690    0.8370    6.4330 c1        1 1U2     -0.106000
      7 C12         0.1590    2.0780    6.7520 c1        1 1U2     -0.128500
      8 C11         1.1950    2.6050    5.9970 c1        1 1U2     -0.128500
      9 C10         1.7030    1.8900    4.9230 c1        1 1U2     -0.182000
     10 N3          1.3670   -0.8440    1.1670 n2        1 1U2     -0.334000
     11 C7          0.5840   -0.9190   -0.0140 c2        1 1U2      0.103000
     12 C6          1.1360   -0.3660   -1.1620 c2        1 1U2     -0.194000
     13 C15        -0.6850   -1.4890   -0.0560 c1        1 1U2     -0.134000
     14 C16        -1.3990   -1.5060   -1.2470 c1        1 1U2     -0.079500
     15 C17        -0.8400   -0.9460   -2.4110 c1        1 1U2     -0.067000
     16 C5          0.4130   -0.3830   -2.3690 c1        1 1U2      0.000000
     17 C4          0.9680    0.1860   -3.5310 c1        1 1U2     -0.127000
     18 C3          0.2490    0.1780   -4.7190 c1        1 1U2     -0.110000
     19 C18        -1.5670   -0.9530   -3.6160 c1        1 1U2     -0.079500
     20 C2         -1.0190   -0.3920   -4.7620 c1        1 1U2     -0.125000
     21 C1         -1.7380   -0.3740   -6.0920 c1        1 1U2      0.117000
     22 N2         -1.5390   -1.4290   -7.0200 n2        1 1U2     -0.332000
     23 N1         -2.5430    0.6120   -6.3870 n1        1 1U2     -0.303000
     24 H8          2.4670   -0.4880    3.5190 hn        1 1U2      0.227000
     25 H13        -0.2340   -0.7520    5.1350 ha        1 1U2      0.171000
     26 H12        -1.0990    0.4660    6.9650 ha        1 1U2      0.136000
     27 H11        -0.1990    2.5810    7.5080 ha        1 1U2      0.133000
     28 H10         1.5680    3.4790    6.2220 ha        1 1U2      0.133000
     29 H9          2.4330    2.2620    4.3910 ha        1 1U2      0.127000
     30 H7          2.1690   -1.2770    1.2100 hn        1 1U2      0.226000
     31 H6          2.0300    0.0250   -1.1330 ha        1 1U2      0.131000
     32 H14        -1.0740   -1.8750    0.7510 ha        1 1U2      0.175000
     33 H15        -2.2890   -1.9050   -1.2760 ha        1 1U2      0.145500
     34 H5          1.8580    0.5860   -3.5010 ha        1 1U2      0.135000
     35 H4          0.6350    0.5720   -5.5250 ha        1 1U2      0.138000
     36 H16        -2.4570   -1.3530   -3.6470 ha        1 1U2      0.145500
     37 H3         -2.1060   -1.5250   -7.7310 hn        1 1U2      0.192500
     38 H2         -0.8460   -2.0140   -6.9050 hn        1 1U2      0.192500
     39 H1         -2.6720    1.2920   -5.7890 DU        1 1U2      0.151000
@<TRIPOS>BOND
     1    1    2 1   
     2    2    3 1   
     3    3    4 1   
     4    3   24 1   
     5    4    5 1   
     6    4    9 1   
     7    5    6 1   
     8    5   25 1   
     9    6   26 1   
    10    7    8 1   
    11    7   27 1   
    12    8   28 1   
    13    9   29 1   
    14   10   11 1   
    15   10   30 1   
    16   11   12 1   
    17   11   13 1   
    18   12   16 1   
    19   12   31 1   
    20   13   32 1   
    21   14   15 1   
    22   14   33 1   
    23   15   19 1   
    24   16   17 1   
    25   17   34 1   
    26   18   20 1   
    27   18   35 1   
    28   19   36 1   
    29   20   21 1   
    30   21   23 1   
    31   22   37 1   
    32   22   38 1   
@<TRIPOS>SUBSTRUCTURE
     1 1U2         1 TEMP              0 ****  ****    0 ROOT
