@<TRIPOS>MOLECULE
1U3
   31    32     1     0     0
SMALL
bcc


@<TRIPOS>ATOM
      1 C01        -0.1510   -0.4450   -0.4560 c3        1 1U3     -0.175400
      2 C02         1.2730   -0.4180   -0.1350 cc        1 1U3      0.408000
      3 C03         2.0340    0.0440    0.9420 cd        1 1U3     -0.453200
      4 C04         3.4250   -0.2550    0.5600 cd        1 1U3      0.417800
      5 N05         3.4140   -0.8550   -0.6450 nc        1 1U3     -0.312300
      6 O06         2.1640   -0.9620   -1.0690 os        1 1U3     -0.099100
      7 C07         4.6200    0.0370    1.3420 ca        1 1U3     -0.201500
      8 C08         5.2760   -1.0050    2.0120 ca        1 1U3     -0.102000
      9 C09         6.4140   -0.7420    2.7710 ca        1 1U3     -0.126000
     10 C10         6.9100    0.5590    2.8630 ca        1 1U3     -0.083000
     11 C11         6.2780    1.6020    2.1870 ca        1 1U3     -0.092000
     12 C12         5.1370    1.3420    1.4190 ca        1 1U3      0.025400
     13 Cl1         4.3880    2.6180    0.5870 cl        1 1U3     -0.067400
     14 C14         1.5150    0.6710    2.1370 c         1 1U3      0.593700
     15 O15         0.3340    0.9560    2.3340 o         1 1U3     -0.466100
     16 N16         2.5080    0.9790    3.1980 ny        1 1U3     -0.639800
     17 C17         1.9600    1.2660    4.5480 c3        1 1U3     -0.079200
     18 C18         2.9740    2.2080    5.3330 c         1 1U3      0.930600
     19 O19         2.7990    2.2610    6.5610 o         1 1U3     -0.765800
     20 O20         3.8320    2.7810    4.6080 o         1 1U3     -0.765800
     21 H1         -0.7450   -0.0660    0.4160 hc        1 1U3      0.094367
     22 H2         -0.3530    0.2050   -1.3470 hc        1 1U3      0.094367
     23 H3         -0.4750   -1.4890   -0.7050 hc        1 1U3      0.094367
     24 H4          4.8930   -2.0340    1.9260 ha        1 1U3      0.149000
     25 H5          6.9210   -1.5640    3.2990 ha        1 1U3      0.151000
     26 H6          7.8010    0.7690    3.4750 ha        1 1U3      0.157000
     27 H7          6.6620    2.6320    2.2720 ha        1 1U3      0.174000
     28 H8          3.0560    1.8400    2.9360 hn        1 1U3      0.475300
     29 H9          0.9840    1.8080    4.4550 hx        1 1U3      0.093700
     30 H10         1.8120    0.3090    5.1070 hx        1 1U3      0.093700
     31 H162        3.1850    0.2110    3.2640 hn        1 1U3      0.475300
@<TRIPOS>BOND
     1    1    2 1   
     2    1   21 1   
     3    1   22 1   
     4    1   23 1   
     5    2    3 2   
     6    2    6 1   
     7    3    4 1   
     8    3   14 1   
     9    4    5 2   
    10    4    7 1   
    11    5    6 1   
    12    7    8 ar  
    13    7   12 ar  
    14    8    9 ar  
    15    8   24 1   
    16    9   10 ar  
    17    9   25 1   
    18   10   11 ar  
    19   10   26 1   
    20   11   12 ar  
    21   11   27 1   
    22   12   13 1   
    23   14   15 2   
    24   14   16 1   
    25   16   17 1   
    26   16   28 1   
    27   16   31 1   
    28   17   18 1   
    29   17   29 1   
    30   17   30 1   
    31   18   19 1   
    32   18   20 1   
@<TRIPOS>SUBSTRUCTURE
     1 1U3         1 TEMP              0 ****  ****    0 ROOT
