@<TRIPOS>MOLECULE
1U3
   31    32     1     0     0
SMALL
bcc


@<TRIPOS>ATOM
      1 C01        -0.1310   -0.4430   -0.4820 c3        1 1U3     -0.175400
      2 C02         1.2910   -0.4160   -0.1510 cc        1 1U3      0.408000
      3 C03         2.0430    0.0450    0.9330 cd        1 1U3     -0.453200
      4 C04         3.4370   -0.2540    0.5610 cd        1 1U3      0.417800
      5 N05         3.4350   -0.8530   -0.6450 nc        1 1U3     -0.312300
      6 O06         2.1880   -0.9590   -1.0790 os        1 1U3     -0.099100
      7 C07         4.6260    0.0370    1.3530 ca        1 1U3     -0.201500
      8 C08         5.2770   -1.0050    2.0260 ca        1 1U3     -0.102000
      9 C09         6.4090   -0.7430    2.7940 ca        1 1U3     -0.126000
     10 C10         6.9040    0.5570    2.8910 ca        1 1U3     -0.083000
     11 C11         6.2770    1.6010    2.2110 ca        1 1U3     -0.092000
     12 C12         5.1430    1.3420    1.4350 ca        1 1U3      0.025400
     13 CL1         4.4000    2.6190    0.5980 cl        1 1U3     -0.067400
     14 C14         1.5160    0.6720    2.1240 c         1 1U3      0.593700
     15 O15         0.3320    0.9560    2.3120 o         1 1U3     -0.466100
     16 N16         2.5000    0.9790    3.1930 n4        1 1U3     -0.639800
     17 C17         1.9420    1.2640    4.5390 c3        1 1U3     -0.079200
     18 C18         2.9500    2.2050    5.3330 c         1 1U3      0.930600
     19 O19         2.7640    2.2580    6.5590 o         1 1U3     -0.765800
     20 O20         3.8130    2.7790    4.6150 o         1 1U3     -0.765800
     21 H1         -0.7320   -0.0600    0.3830 hc        1 1U3      0.094367
     22 H2         -0.3250    0.2050   -1.3780 hc        1 1U3      0.094367
     23 H3         -0.4540   -1.4870   -0.7310 hc        1 1U3      0.094367
     24 H4          4.8950   -2.0340    1.9360 ha        1 1U3      0.149000
     25 H5          6.9120   -1.5660    3.3250 ha        1 1U3      0.151000
     26 H6          7.7910    0.7670    3.5110 ha        1 1U3      0.157000
     27 H7          6.6610    2.6310    2.3000 ha        1 1U3      0.174000
     28 H8          3.0500    1.8400    2.9360 hn        1 1U3      0.475300
     29 H9          0.9660    1.8070    4.4390 hx        1 1U3      0.093700
     30 H10         1.7890    0.3060    5.0960 hx        1 1U3      0.093700
     31 H162        3.1760    0.2110    3.2630 hn        1 1U3      0.475300
@<TRIPOS>BOND
     1    1    2 1   
     2    1   21 1   
     3    1   22 1   
     4    1   23 1   
     5    2    3 2   
     6    2    6 1   
     7    3    4 1   
     8    3   14 1   
     9    4    5 2   
    10    4    7 1   
    11    5    6 1   
    12    7    8 ar  
    13    7   12 ar  
    14    8    9 ar  
    15    8   24 1   
    16    9   10 ar  
    17    9   25 1   
    18   10   11 ar  
    19   10   26 1   
    20   11   12 ar  
    21   11   27 1   
    22   12   13 1   
    23   14   15 2   
    24   14   16 1   
    25   16   17 1   
    26   16   28 1   
    27   16   31 1   
    28   17   18 1   
    29   17   29 1   
    30   17   30 1   
    31   18   19 1   
    32   18   20 1   
@<TRIPOS>SUBSTRUCTURE
     1 1U3         1 TEMP              0 ****  ****    0 ROOT
