@<TRIPOS>MOLECULE
1U4
   66    67     1     0     0
SMALL
bcc


@<TRIPOS>ATOM
      1 C9          1.0290   -0.8500    0.5420 c         1 1U4      0.731100
      2 O10         0.9180   -2.0560    0.8130 o         1 1U4     -0.584000
      3 O8          1.2880    0.0470    1.5650 os        1 1U4     -0.440900
      4 C7          1.2670   -0.4730    2.9010 c3        1 1U4      0.193700
      5 C6         -0.1010   -0.4160    3.4970 ca        1 1U4     -0.119300
      6 C4         -0.4520    0.6260    4.3610 ca        1 1U4     -0.106500
      7 C2         -1.7190    0.6580    4.9420 ca        1 1U4     -0.139000
      8 C1         -2.6430   -0.3480    4.6600 ca        1 1U4     -0.125000
      9 C63        -2.2980   -1.3870    3.7940 ca        1 1U4     -0.139000
     10 C61        -1.0320   -1.4220    3.2130 ca        1 1U4     -0.106500
     11 N11         0.8660   -0.2230   -0.6810 n         1 1U4     -0.488900
     12 C12         1.0450   -0.9870   -1.8820 c3        1 1U4     -0.228200
     13 P13         0.5200   -0.0730   -3.1990 p5        1 1U4      1.571200
     14 O54         0.6130    1.3810   -3.0030 o         1 1U4     -0.878300
     15 O55        -1.0690   -0.3970   -3.2460 oh        1 1U4     -0.790400
     16 N14         1.1840   -0.6500   -4.4950 n3        1 1U4     -0.987300
     17 C15         1.0530   -2.0290   -4.8700 c3        1 1U4      0.153500
     18 C16         2.3790   -2.8290   -4.6660 c         1 1U4      0.618100
     19 O17         3.3500   -2.2890   -4.0880 o         1 1U4     -0.647100
     20 C38         0.5620   -2.2140   -6.3260 c3        1 1U4     -0.062100
     21 C41        -0.5790   -3.1680   -6.4000 ca        1 1U4     -0.095300
     22 C42        -0.4550   -4.3490   -7.1430 ca        1 1U4     -0.127000
     23 C50        -1.7900   -2.8780   -5.7580 ca        1 1U4     -0.127000
     24 C44        -1.5390   -5.2220   -7.2450 ca        1 1U4     -0.140500
     25 C48        -2.8670   -3.7550   -5.8640 ca        1 1U4     -0.140500
     26 C46        -2.7440   -4.9280   -6.6100 ca        1 1U4     -0.141000
     27 N18         2.3620   -4.1550   -5.0340 n         1 1U4     -0.480900
     28 C19         3.5940   -4.8120   -5.4550 c3        1 1U4     -0.067300
     29 C33         3.6380   -5.0290   -7.0130 c         1 1U4      0.907600
     30 O34         2.6590   -4.6190   -7.7050 o         1 1U4     -0.834800
     31 C20         3.8010   -6.1670   -4.7790 c3        1 1U4     -0.060400
     32 C21         3.9240   -6.1060   -3.2640 c3        1 1U4     -0.066700
     33 C26         4.1540   -7.5010   -2.7160 c3        1 1U4     -0.089600
     34 C22         5.0370   -5.1790   -2.8240 c3        1 1U4     -0.089600
     35 O35         4.6630   -5.5860   -7.4780 o         1 1U4     -0.834800
     36 H7          1.9750    0.2160    3.4400 h1        1 1U4      0.071200
     37 H7A         1.6610   -1.5250    2.9150 h1        1 1U4      0.071200
     38 H4          0.2720    1.4260    4.5780 ha        1 1U4      0.146000
     39 H2         -1.9900    1.4800    5.6200 ha        1 1U4      0.129000
     40 H1         -3.6420   -0.3220    5.1170 ha        1 1U4      0.125000
     41 H63        -3.0270   -2.1780    3.5650 ha        1 1U4      0.129000
     42 H61        -0.7530   -2.2330    2.5180 ha        1 1U4      0.146000
     43 HN11        1.1480    0.7370   -0.7430 hn        1 1U4      0.337500
     44 H12         2.1160   -1.3370   -2.0000 h1        1 1U4      0.118700
     45 H12A        0.4540   -1.9450   -1.7730 h1        1 1U4      0.118700
     46 HO55       -1.6260    0.3720   -3.1570 ho        1 1U4      0.472000
     47 HN14        1.8300   -0.1430   -5.0500 hn        1 1U4      0.460800
     48 H15         0.2850   -2.4830   -4.1680 h1        1 1U4      0.065700
     49 H38         1.4090   -2.5750   -6.9790 hc        1 1U4      0.083700
     50 H38A        0.2240   -1.2310   -6.7510 hc        1 1U4      0.083700
     51 H42         0.5090   -4.5900   -7.6390 ha        1 1U4      0.172500
     52 H50        -1.8870   -1.9570   -5.1620 ha        1 1U4      0.172500
     53 H44        -1.4330   -6.1490   -7.8290 ha        1 1U4      0.124000
     54 H48        -3.8140   -3.5230   -5.3560 ha        1 1U4      0.124000
     55 H46        -3.5950   -5.6190   -6.6930 ha        1 1U4      0.116000
     56 HN18        1.5870   -4.4280   -5.6120 hn        1 1U4      0.308500
     57 H19         4.4670   -4.1440   -5.1980 h1        1 1U4      0.074700
     58 H20         4.7390   -6.5980   -5.2220 hc        1 1U4      0.051700
     59 H20A        2.9550   -6.8540   -5.0460 hc        1 1U4      0.051700
     60 H21         2.9550   -5.7190   -2.8390 hc        1 1U4      0.044700
     61 H26         3.3260   -8.1830   -3.0270 hc        1 1U4      0.027367
     62 H26A        4.1970   -7.4810   -1.6010 hc        1 1U4      0.027367
     63 H26B        5.1170   -7.9180   -3.1000 hc        1 1U4      0.027367
     64 H22         4.7740   -4.1190   -3.0680 hc        1 1U4      0.027367
     65 H22A        5.9910   -5.4380   -3.3430 hc        1 1U4      0.027367
     66 H22B        5.1980   -5.2610   -1.7220 hc        1 1U4      0.027367
@<TRIPOS>BOND
     1    1    2 2   
     2    1    3 1   
     3    1   11 1   
     4    3    4 1   
     5    4    5 1   
     6    4   36 1   
     7    4   37 1   
     8    5    6 ar  
     9    5   10 ar  
    10    6    7 ar  
    11    6   38 1   
    12    7    8 ar  
    13    7   39 1   
    14    8    9 ar  
    15    8   40 1   
    16    9   10 ar  
    17    9   41 1   
    18   10   42 1   
    19   11   12 1   
    20   11   43 1   
    21   12   13 1   
    22   12   44 1   
    23   12   45 1   
    24   13   14 2   
    25   13   15 1   
    26   13   16 1   
    27   15   46 1   
    28   16   17 1   
    29   16   47 1   
    30   17   18 1   
    31   17   20 1   
    32   17   48 1   
    33   18   19 2   
    34   18   27 1   
    35   20   21 1   
    36   20   49 1   
    37   20   50 1   
    38   21   22 ar  
    39   21   23 ar  
    40   22   24 ar  
    41   22   51 1   
    42   23   25 ar  
    43   23   52 1   
    44   24   26 ar  
    45   24   53 1   
    46   25   26 ar  
    47   25   54 1   
    48   26   55 1   
    49   27   28 1   
    50   27   56 1   
    51   28   29 1   
    52   28   31 1   
    53   28   57 1   
    54   29   30 1   
    55   29   35 1   
    56   31   32 1   
    57   31   58 1   
    58   31   59 1   
    59   32   33 1   
    60   32   34 1   
    61   32   60 1   
    62   33   61 1   
    63   33   62 1   
    64   33   63 1   
    65   34   64 1   
    66   34   65 1   
    67   34   66 1   
@<TRIPOS>SUBSTRUCTURE
     1 1U4         1 TEMP              0 ****  ****    0 ROOT
