@<TRIPOS>MOLECULE
1U4
   66    61     1     0     0
SMALL
bcc


@<TRIPOS>ATOM
      1 C9         -0.9680    3.5280    3.6730 c1        1 1U4      0.384000
      2 O10        -0.1340    4.4290    3.6380 o         1 1U4     -0.399000
      3 O8         -2.2590    3.7520    4.3290 o         1 1U4     -0.282000
      4 C7         -2.7470    5.1070    4.2230 c3        1 1U4      0.038000
      5 C6         -4.2210    5.1110    4.3720 c1        1 1U4     -0.082000
      6 C4         -5.0120    4.6120    3.3590 c1        1 1U4     -0.101000
      7 C2         -6.3830    4.6230    3.4850 c1        1 1U4     -0.135167
      8 C1         -6.9740    5.1360    4.6310 c1        1 1U4     -0.135167
      9 C63        -6.1760    5.6420    5.6560 c1        1 1U4     -0.135167
     10 C61        -4.8070    5.6300    5.5290 c1        1 1U4     -0.135167
     11 N11        -0.6040    2.1790    3.2210 n3        1 1U4     -0.295000
     12 C12         0.3900    2.0090    2.1940 c3        1 1U4     -0.731000
     13 P13         0.3600    0.2580    1.5890 p5        1 1U4      2.775000
     14 O54        -0.9750   -0.3420    1.8740 o         1 1U4     -1.141000
     15 O55         1.4720   -0.5710    2.3270 oh        1 1U4     -0.825000
     16 N14         0.6580    0.2280   -0.0980 n3        1 1U4     -0.931000
     17 C15         0.7850   -1.0110   -0.7690 c3        1 1U4     -0.007000
     18 C16         2.2710   -1.3350   -0.9770 c2        1 1U4      0.273000
     19 O17         3.1160   -0.7370   -0.3450 o         1 1U4     -0.383000
     20 C38         0.0910   -0.9310   -2.1100 c3        1 1U4     -0.162000
     21 C41        -1.4330   -1.0710   -1.9030 c2        1 1U4     -0.071000
     22 C42        -1.9850   -2.3370   -1.6190 c2        1 1U4     -0.106000
     23 C50        -2.2570   -0.0160   -2.1850 c1        1 1U4     -0.151000
     24 C44        -3.3510   -2.5130   -1.6250 c1        1 1U4     -0.132000
     25 C48        -3.6520   -0.1990   -2.1910 c1        1 1U4     -0.135167
     26 C46        -4.1860   -1.4430   -1.9110 c1        1 1U4     -0.135167
     27 N18         2.6580   -2.3990   -1.8700 n         1 1U4     -0.289000
     28 C19         4.0420   -2.5450   -2.2600 c3        1 1U4     -0.099000
     29 C33         4.5800   -1.2270   -2.6810 c2        1 1U4      0.321000
     30 O34         4.0270   -0.5910   -3.5990 o         1 1U4     -0.569000
     31 C20         4.1400   -3.5280   -3.4170 c3        1 1U4     -0.134000
     32 C21         5.3560   -4.4430   -3.2100 c3        1 1U4     -0.105000
     33 C26         5.0600   -5.8980   -3.8600 c3        1 1U4     -0.211500
     34 C22         6.5590   -3.8320   -3.8730 c3        1 1U4     -0.211500
     35 O35         5.6370   -0.7790   -2.1490 o         1 1U4     -0.569000
     36 H7         -2.5080    5.4690    3.3580 h1        1 1U4      0.102000
     37 H7A        -2.3450    5.6570    4.9320 h1        1 1U4      0.102000
     38 H4         -4.5810    4.2180    2.5250 ha        1 1U4      0.154000
     39 H2         -6.9380    4.1830    2.8060 ha        1 1U4      0.125500
     40 H1         -7.9330    5.0670    4.7510 ha        1 1U4      0.125500
     41 H63        -6.5930    5.9340    6.5120 ha        1 1U4      0.125500
     42 H61        -4.3110    5.9750    6.3020 ha        1 1U4      0.125500
     43 HN11       -1.0250    1.4570    3.5670 hn        1 1U4      0.255000
     44 H12         0.1950    2.6250    1.4400 h1        1 1U4      0.141000
     45 H12A        1.2810    2.2140    2.5610 h1        1 1U4      0.141000
     46 HO55        1.1210   -0.9700    3.0390 ho        1 1U4      0.274000
     47 HN14        0.7170    1.0150   -0.5690 hn        1 1U4      0.256000
     48 H15         0.3750   -1.7090   -0.2360 h1        1 1U4      0.130000
     49 H38         0.2860   -0.0770   -2.5260 hc        1 1U4      0.134000
     50 H38A        0.4170   -1.6680   -2.6970 hc        1 1U4      0.134000
     51 H42        -1.4040   -3.0820   -1.4180 ha        1 1U4      0.191000
     52 H50        -1.8680    0.8590   -2.4610 ha        1 1U4      0.121000
     53 H44        -3.7440   -3.4220   -1.4210 ha        1 1U4      0.129000
     54 H48        -4.2350    0.5420   -2.3890 ha        1 1U4      0.125500
     55 H46        -5.1900   -1.5750   -1.9150 ha        1 1U4      0.125500
     56 HN18        2.0470   -3.0290   -2.1180 hn        1 1U4      0.207000
     57 H19         4.5660   -2.8820   -1.4970 h1        1 1U4      0.114000
     58 H20         3.3300   -4.0660   -3.4540 hc        1 1U4      0.083500
     59 H20A        4.2440   -3.0300   -4.2640 hc        1 1U4      0.083500
     60 H21         5.5270   -4.5420   -2.2640 hc        1 1U4      0.085000
     61 H26         4.9160   -5.8040   -4.8190 hc        1 1U4      0.069333
     62 H26A        5.8320   -6.4940   -3.7000 hc        1 1U4      0.069333
     63 H26B        4.2700   -6.2780   -3.4530 hc        1 1U4      0.069333
     64 H22         7.2710   -4.5060   -3.9490 hc        1 1U4      0.069333
     65 H22A        6.3150   -3.5160   -4.7650 hc        1 1U4      0.069333
     66 H22B        6.8860   -3.0600   -3.3250 hc        1 1U4      0.069333
@<TRIPOS>BOND
     1    1    2 1   
     2    1   11 1   
     3    3    4 1   
     4    4    5 1   
     5    4   36 1   
     6    4   37 1   
     7    5    6 1   
     8    6   38 1   
     9    7    8 1   
    10    7   39 1   
    11    8   40 1   
    12    9   10 1   
    13    9   41 1   
    14   10   42 1   
    15   11   12 1   
    16   11   43 1   
    17   12   13 1   
    18   12   44 1   
    19   12   45 1   
    20   13   14 1   
    21   13   15 1   
    22   13   16 1   
    23   15   46 1   
    24   16   17 1   
    25   16   47 1   
    26   17   18 1   
    27   17   20 1   
    28   17   48 1   
    29   18   19 1   
    30   18   27 1   
    31   20   21 1   
    32   20   49 1   
    33   20   50 1   
    34   21   22 1   
    35   21   23 1   
    36   22   24 1   
    37   22   51 1   
    38   23   52 1   
    39   24   53 1   
    40   25   26 1   
    41   25   54 1   
    42   26   55 1   
    43   27   28 1   
    44   27   56 1   
    45   28   29 1   
    46   28   31 1   
    47   28   57 1   
    48   29   30 1   
    49   29   35 1   
    50   31   32 1   
    51   31   58 1   
    52   31   59 1   
    53   32   33 1   
    54   32   34 1   
    55   32   60 1   
    56   33   61 1   
    57   33   62 1   
    58   33   63 1   
    59   34   64 1   
    60   34   65 1   
    61   34   66 1   
@<TRIPOS>SUBSTRUCTURE
     1 1U4         1 TEMP              0 ****  ****    0 ROOT
