@<TRIPOS>MOLECULE
1U4
   68    69     1     0     0
SMALL
bcc


@<TRIPOS>ATOM
      1 C9          0.6000   -0.2810    0.8700 c         1 1U4      0.611100
      2 O10         1.7750   -0.2620    1.2080 o         1 1U4     -0.429000
      3 O8         -0.4640   -0.1270    1.6710 os        1 1U4     -0.405900
      4 C7         -0.1650   -0.0010    3.1170 c3        1 1U4      0.218700
      5 C6         -1.4860    0.1880    3.7610 ca        1 1U4     -0.151300
      6 C4         -2.2450   -0.9250    4.1440 ca        1 1U4     -0.088000
      7 C2         -3.4650   -0.7440    4.7910 ca        1 1U4     -0.129500
      8 C1         -3.9330    0.5440    5.0550 ca        1 1U4     -0.083000
      9 C63        -3.1810    1.6550    4.6700 ca        1 1U4     -0.129500
     10 C61        -1.9600    1.4810    4.0200 ca        1 1U4     -0.088000
     11 N11         0.1480   -0.4820   -0.5470 ny        1 1U4     -0.609800
     12 C12         1.2420   -0.4810   -1.5280 c3        1 1U4     -0.164400
     13 P13         1.4200   -2.0480   -2.3020 p5        1 1U4      1.221500
     14 O54         2.8510   -2.3860   -2.3110 o         1 1U4     -0.739000
     15 O55         0.2000   -2.7660   -1.9050 o         1 1U4     -0.739000
     16 N14         1.1750   -1.6520   -4.0400 ny        1 1U4     -0.756100
     17 C15         1.9680   -2.6270   -4.8420 c3        1 1U4      0.031500
     18 C16         3.4530   -2.2250   -4.9330 c         1 1U4      0.570100
     19 O17         3.8250   -1.1100   -5.2860 o         1 1U4     -0.469100
     20 C38         1.4380   -2.7700   -6.2840 c3        1 1U4     -0.057100
     21 C41         0.0360   -3.2590   -6.2650 ca        1 1U4     -0.155300
     22 C42        -0.2070   -4.6310   -6.1160 ca        1 1U4     -0.122000
     23 C50        -1.0350   -2.3700   -6.4230 ca        1 1U4     -0.122000
     24 C44        -1.5190   -5.1040   -6.1180 ca        1 1U4     -0.121500
     25 C48        -2.3420   -2.8510   -6.4260 ca        1 1U4     -0.121500
     26 C46        -2.5850   -4.2180   -6.2700 ca        1 1U4     -0.103000
     27 N18         4.4540   -3.2300   -4.5120 ny        1 1U4     -0.628800
     28 C19         4.6660   -4.3320   -5.5260 c3        1 1U4     -0.041500
     29 C33         3.3730   -5.2520   -5.5370 c         1 1U4      0.909600
     30 O34         2.9940   -5.7130   -6.6270 o         1 1U4     -0.767300
     31 C20         5.0580   -3.8030   -6.8960 c3        1 1U4     -0.079400
     32 C21         5.7700   -4.8770   -7.7120 c3        1 1U4     -0.066700
     33 C26         5.7630   -4.4820   -9.1760 c3        1 1U4     -0.093600
     34 C22         7.1920   -5.0890   -7.2390 c3        1 1U4     -0.093600
     35 O35         2.8150   -5.3810   -4.4080 o         1 1U4     -0.767300
     36 H7          0.3460   -0.9490    3.4260 h1        1 1U4      0.083700
     37 H7A         0.5180    0.8790    3.2370 h1        1 1U4      0.083700
     38 H4         -1.8750   -1.9410    3.9410 ha        1 1U4      0.138000
     39 H2         -4.0580   -1.6200    5.0980 ha        1 1U4      0.152000
     40 H1         -4.8970    0.6850    5.5700 ha        1 1U4      0.153000
     41 H63        -3.5490    2.6710    4.8820 ha        1 1U4      0.152000
     42 H61        -1.3660    2.3580    3.7230 ha        1 1U4      0.138000
     43 HN11       -0.5370    0.2570   -0.7510 hn        1 1U4      0.491800
     44 H12         2.2280   -0.2690   -1.0050 hx        1 1U4      0.143700
     45 H12A        1.0970    0.3780   -2.2330 hx        1 1U4      0.143700
     46 HN14        1.4370   -0.7080   -4.3110 hn        1 1U4      0.454800
     47 H15         1.8520   -3.6520   -4.3290 hx        1 1U4      0.209700
     48 H38         1.5290   -1.7930   -6.8280 hc        1 1U4      0.103200
     49 H38A        2.0880   -3.5320   -6.8110 hc        1 1U4      0.103200
     50 H42         0.6470   -5.3310   -6.0080 ha        1 1U4      0.155000
     51 H50        -0.8460   -1.3000   -6.5930 ha        1 1U4      0.155000
     52 H44        -1.7080   -6.1840   -6.0060 ha        1 1U4      0.148500
     53 H48        -3.1840   -2.1560   -6.5670 ha        1 1U4      0.148500
     54 H46        -3.6190   -4.5960   -6.2790 ha        1 1U4      0.147000
     55 HN18        5.3390   -2.7550   -4.3140 hn        1 1U4      0.485300
     56 H19         5.4990   -4.9670   -5.1000 hx        1 1U4      0.110700
     57 H20         4.1290   -3.4940   -7.4470 hc        1 1U4      0.048200
     58 H20A        5.7260   -2.9040   -6.8090 hc        1 1U4      0.048200
     59 H21         5.1890   -5.8390   -7.5990 hc        1 1U4      0.097700
     60 H26         6.2940   -5.2560   -9.7810 hc        1 1U4      0.039033
     61 H26A        6.2770   -3.5020   -9.3250 hc        1 1U4      0.039033
     62 H26B        4.7150   -4.3990   -9.5530 hc        1 1U4      0.039033
     63 H22         7.6900   -5.8620   -7.8730 hc        1 1U4      0.039033
     64 H22A        7.7810   -4.1430   -7.3120 hc        1 1U4      0.039033
     65 H22B        7.2170   -5.4430   -6.1800 hc        1 1U4      0.039033
     66 H112       -0.3540   -1.4090   -0.5950 hn        1 1U4      0.491800
     67 H142        0.1930   -1.7950   -4.3150 hn        1 1U4      0.454800
     68 H182        4.0930   -3.6960   -3.6460 hn        1 1U4      0.485300
@<TRIPOS>BOND
     1    1    2 2   
     2    1    3 1   
     3    1   11 1   
     4    3    4 1   
     5    4    5 1   
     6    4   36 1   
     7    4   37 1   
     8    5    6 ar  
     9    5   10 ar  
    10    6    7 ar  
    11    6   38 1   
    12    7    8 ar  
    13    7   39 1   
    14    8    9 ar  
    15    8   40 1   
    16    9   10 ar  
    17    9   41 1   
    18   10   42 1   
    19   11   12 1   
    20   11   43 1   
    21   11   66 1   
    22   12   13 1   
    23   12   44 1   
    24   12   45 1   
    25   13   14 1   
    26   13   15 1   
    27   13   16 1   
    28   16   17 1   
    29   16   46 1   
    30   16   67 1   
    31   17   18 1   
    32   17   20 1   
    33   17   47 1   
    34   18   19 2   
    35   18   27 1   
    36   20   21 1   
    37   20   48 1   
    38   20   49 1   
    39   21   22 ar  
    40   21   23 ar  
    41   22   24 ar  
    42   22   50 1   
    43   23   25 ar  
    44   23   51 1   
    45   24   26 ar  
    46   24   52 1   
    47   25   26 ar  
    48   25   53 1   
    49   26   54 1   
    50   27   28 1   
    51   27   55 1   
    52   27   68 1   
    53   28   29 1   
    54   28   31 1   
    55   28   56 1   
    56   29   30 1   
    57   29   35 1   
    58   31   32 1   
    59   31   57 1   
    60   31   58 1   
    61   32   33 1   
    62   32   34 1   
    63   32   59 1   
    64   33   60 1   
    65   33   61 1   
    66   33   62 1   
    67   34   63 1   
    68   34   64 1   
    69   34   65 1   
@<TRIPOS>SUBSTRUCTURE
     1 1U4         1 TEMP              0 ****  ****    0 ROOT
