@<TRIPOS>MOLECULE
1U4
   66    67     1     0     0
SMALL
bcc


@<TRIPOS>ATOM
      1 C9          3.6000    0.1380    1.5150 c         1 1U4      0.732100
      2 O10         3.4670    0.0080    2.7430 o         1 1U4     -0.586000
      3 O8          4.8270   -0.1840    0.9520 os        1 1U4     -0.448900
      4 C7          5.8480   -0.5270    1.9040 c3        1 1U4      0.194700
      5 C6          7.1130   -0.7890    1.1590 ca        1 1U4     -0.086300
      6 C4          8.1230   -1.5190    1.7980 ca        1 1U4     -0.115000
      7 C2          9.3310   -1.7590    1.1480 ca        1 1U4     -0.134000
      8 C1          9.5370   -1.2780   -0.1460 ca        1 1U4     -0.134000
      9 C63         8.5320   -0.5560   -0.7870 ca        1 1U4     -0.134000
     10 C61         7.3230   -0.3080   -0.1380 ca        1 1U4     -0.115000
     11 N11         2.7070    0.6280    0.5860 n         1 1U4     -0.493900
     12 C12         1.3150    0.7040    0.9220 c3        1 1U4     -0.196200
     13 P13         0.4560    1.3490   -0.3870 p5        1 1U4      1.570200
     14 O54         1.1220    1.1360   -1.6860 o         1 1U4     -0.890300
     15 O55         0.5880    2.9380   -0.1290 oh        1 1U4     -0.782400
     16 N14        -1.0280    0.8740   -0.2470 n3        1 1U4     -1.012300
     17 C15        -1.7580    0.4480   -1.4050 c3        1 1U4      0.146500
     18 C16        -3.0570    1.2960   -1.5550 c         1 1U4      0.626100
     19 O17        -3.1590    2.0670   -2.5270 o         1 1U4     -0.605100
     20 C38        -2.1480   -1.0400   -1.4250 c3        1 1U4     -0.052100
     21 C41        -1.0000   -1.9800   -1.5400 ca        1 1U4     -0.082300
     22 C42        -0.0180   -1.8210   -2.5250 ca        1 1U4     -0.122500
     23 C50        -0.9220   -3.0790   -0.6740 ca        1 1U4     -0.122500
     24 C44         1.0190   -2.7460   -2.6420 ca        1 1U4     -0.133500
     25 C48         0.1140   -4.0030   -0.7930 ca        1 1U4     -0.133500
     26 C46         1.0860   -3.8390   -1.7790 ca        1 1U4     -0.141000
     27 N18        -4.0560    1.1140   -0.6060 n         1 1U4     -0.487900
     28 C19        -4.6380    2.2990    0.0180 c3        1 1U4     -0.069300
     29 C33        -3.9620    2.6060    1.4060 c         1 1U4      0.906600
     30 O34        -2.9890    1.8770    1.7730 o         1 1U4     -0.835300
     31 C20        -6.1450    2.1740    0.2310 c3        1 1U4     -0.057400
     32 C21        -6.9480    1.9820   -1.0460 c3        1 1U4     -0.065700
     33 C26        -8.4270    1.9300   -0.7150 c3        1 1U4     -0.089600
     34 C22        -6.6740    3.0760   -2.0570 c3        1 1U4     -0.089600
     35 O35        -4.4240    3.5670    2.0680 o         1 1U4     -0.835300
     36 H7          5.5130   -1.4340    2.4770 h1        1 1U4      0.062700
     37 H7A         5.9770    0.3300    2.6200 h1        1 1U4      0.062700
     38 H4          7.9590   -1.9020    2.8160 ha        1 1U4      0.143000
     39 H2         10.1210   -2.3300    1.6550 ha        1 1U4      0.128000
     40 H1         10.4910   -1.4710   -0.6580 ha        1 1U4      0.125000
     41 H63         8.6900   -0.1780   -1.8070 ha        1 1U4      0.128000
     42 H61         6.5250    0.2590   -0.6430 ha        1 1U4      0.143000
     43 HN11        2.9160    0.4820   -0.3840 hn        1 1U4      0.345500
     44 H12         0.9250   -0.3020    1.2500 h1        1 1U4      0.106700
     45 H12A        1.2110    1.3580    1.8390 h1        1 1U4      0.106700
     46 HO55        0.8040    3.4540   -0.9000 ho        1 1U4      0.470000
     47 HN14       -1.5940    1.0110    0.5740 hn        1 1U4      0.503800
     48 H15        -1.1190    0.6600   -2.3200 h1        1 1U4      0.094700
     49 H38        -2.7400   -1.2940   -0.5050 hc        1 1U4      0.062200
     50 H38A       -2.8230   -1.1900   -2.3130 hc        1 1U4      0.062200
     51 H42        -0.0420   -0.9470   -3.1960 ha        1 1U4      0.144000
     52 H50        -1.6840   -3.2120    0.1090 ha        1 1U4      0.144000
     53 H44         1.7900   -2.6030   -3.4130 ha        1 1U4      0.126500
     54 H48         0.1650   -4.8590   -0.1060 ha        1 1U4      0.126500
     55 H46         1.9050   -4.5660   -1.8720 ha        1 1U4      0.122000
     56 HN18       -3.8030    0.4520    0.1090 hn        1 1U4      0.285500
     57 H19        -4.4420    3.1920   -0.6450 h1        1 1U4      0.070700
     58 H20        -6.3570    1.3180    0.9240 hc        1 1U4      0.051200
     59 H20A       -6.4690    3.1150    0.7510 hc        1 1U4      0.051200
     60 H21        -6.6570    0.9970   -1.5090 hc        1 1U4      0.045700
     61 H26        -8.7620    2.8990   -0.2740 hc        1 1U4      0.027200
     62 H26A       -9.0270    1.7340   -1.6360 hc        1 1U4      0.027200
     63 H26B       -8.6320    1.1170    0.0220 hc        1 1U4      0.027200
     64 H22        -5.6290    2.9870   -2.4470 hc        1 1U4      0.027200
     65 H22A       -7.3810    2.9970   -2.9170 hc        1 1U4      0.027200
     66 H22B       -6.7950    4.0820   -1.5890 hc        1 1U4      0.027200
@<TRIPOS>BOND
     1    1    2 2   
     2    1    3 1   
     3    1   11 1   
     4    3    4 1   
     5    4    5 1   
     6    4   36 1   
     7    4   37 1   
     8    5    6 ar  
     9    5   10 ar  
    10    6    7 ar  
    11    6   38 1   
    12    7    8 ar  
    13    7   39 1   
    14    8    9 ar  
    15    8   40 1   
    16    9   10 ar  
    17    9   41 1   
    18   10   42 1   
    19   11   12 1   
    20   11   43 1   
    21   12   13 1   
    22   12   44 1   
    23   12   45 1   
    24   13   14 2   
    25   13   15 1   
    26   13   16 1   
    27   15   46 1   
    28   16   17 1   
    29   16   47 1   
    30   17   18 1   
    31   17   20 1   
    32   17   48 1   
    33   18   19 2   
    34   18   27 1   
    35   20   21 1   
    36   20   49 1   
    37   20   50 1   
    38   21   22 ar  
    39   21   23 ar  
    40   22   24 ar  
    41   22   51 1   
    42   23   25 ar  
    43   23   52 1   
    44   24   26 ar  
    45   24   53 1   
    46   25   26 ar  
    47   25   54 1   
    48   26   55 1   
    49   27   28 1   
    50   27   56 1   
    51   28   29 1   
    52   28   31 1   
    53   28   57 1   
    54   29   30 1   
    55   29   35 1   
    56   31   32 1   
    57   31   58 1   
    58   31   59 1   
    59   32   33 1   
    60   32   34 1   
    61   32   60 1   
    62   33   61 1   
    63   33   62 1   
    64   33   63 1   
    65   34   64 1   
    66   34   65 1   
    67   34   66 1   
@<TRIPOS>SUBSTRUCTURE
     1 1U4         1 TEMP              0 ****  ****    0 ROOT
