@<TRIPOS>MOLECULE
1U5
   27    28     1     0     0
SMALL
bcc


@<TRIPOS>ATOM
      1 C01         0.0220    0.0150   -0.0390 c3        1 1U5     -0.083100
      2 C02         1.5340    0.0350   -0.0130 c3        1 1U5     -0.052000
      3 C03         2.0280    1.1380   -0.9140 c3        1 1U5     -0.083100
      4 C04         2.1240    0.0350    1.4480 c3        1 1U5     -0.163000
      5 C05         1.7740    1.1670    2.3480 c3        1 1U5     -0.057100
      6 C06         3.6360   -0.1860    1.1890 c3        1 1U5     -0.079400
      7 C07         3.6570   -1.1450   -0.0130 c3        1 1U5     -0.101400
      8 C08         2.1610   -1.3720   -0.3420 c3        1 1U5      0.041800
      9 C09         1.8800   -2.0510   -1.7020 c         1 1U5      0.947600
     10 O10         2.5490   -3.0780   -1.9800 o         1 1U5     -0.812800
     11 O11         1.0420   -1.4970   -2.4640 o         1 1U5     -0.812800
     12 O12         1.6520   -2.1880    0.7810 os        1 1U5     -0.380900
     13 C13         1.6400   -1.3570    1.8810 c         1 1U5      0.715600
     14 O14         1.2840   -1.8200    2.9620 o         1 1U5     -0.630500
     15 H1         -0.3860    1.0180    0.2330 hc        1 1U5      0.041200
     16 H2         -0.3870   -0.7410    0.6740 hc        1 1U5      0.041200
     17 H3         -0.3080   -0.2620   -1.0740 hc        1 1U5      0.041200
     18 H4          1.7350    0.8840   -1.9650 hc        1 1U5      0.041200
     19 H5          1.5630    2.1110   -0.6240 hc        1 1U5      0.041200
     20 H6          3.1360    1.2560   -0.8740 hc        1 1U5      0.041200
     21 H7          0.6630    1.2620    2.4350 hc        1 1U5      0.034367
     22 H8          2.1830    2.1240    1.9390 hc        1 1U5      0.034367
     23 H9          2.1970    1.0000    3.3690 hc        1 1U5      0.034367
     24 H10         4.1370    0.7830    0.9610 hc        1 1U5      0.037200
     25 H11         4.1300   -0.6320    2.0840 hc        1 1U5      0.037200
     26 H12         4.1390   -2.1200    0.2350 hc        1 1U5      0.063200
     27 H13         4.1790   -0.7050   -0.8930 hc        1 1U5      0.063200
@<TRIPOS>BOND
     1    1    2 1   
     2    1   15 1   
     3    1   16 1   
     4    1   17 1   
     5    2    3 1   
     6    2    4 1   
     7    2    8 1   
     8    3   18 1   
     9    3   19 1   
    10    3   20 1   
    11    4    5 1   
    12    4    6 1   
    13    4   13 1   
    14    5   21 1   
    15    5   22 1   
    16    5   23 1   
    17    6    7 1   
    18    6   24 1   
    19    6   25 1   
    20    7    8 1   
    21    7   26 1   
    22    7   27 1   
    23    8    9 1   
    24    8   12 1   
    25    9   10 1   
    26    9   11 1   
    27   12   13 1   
    28   13   14 2   
@<TRIPOS>SUBSTRUCTURE
     1 1U5         1 TEMP              0 ****  ****    0 ROOT
