@<TRIPOS>MOLECULE
1U5
   27    28     1     0     0
SMALL
bcc


@<TRIPOS>ATOM
      1 C01         0.0230    0.0070   -0.0460 c3        1 1U5     -0.083100
      2 C02         1.5350    0.0320   -0.0170 c3        1 1U5     -0.052000
      3 C03         2.0280    1.1300   -0.9230 c3        1 1U5     -0.083100
      4 C04         2.1210    0.0430    1.4470 c3        1 1U5     -0.163000
      5 C05         1.7650    1.1800    2.3380 c3        1 1U5     -0.057100
      6 C06         3.6340   -0.1760    1.1930 c3        1 1U5     -0.079400
      7 C07         3.6600   -1.1430   -0.0030 c3        1 1U5     -0.101400
      8 C08         2.1660   -1.3760   -0.3340 c3        1 1U5      0.041800
      9 C09         1.8900   -2.0650   -1.6900 c         1 1U5      0.947600
     10 O10         2.5610   -3.0930   -1.9590 o         1 1U5     -0.812800
     11 O11         1.0540   -1.5170   -2.4590 o         1 1U5     -0.812800
     12 O12         1.6560   -2.1860    0.7920 os        1 1U5     -0.380900
     13 C13         1.6380   -1.3480    1.8870 c         1 1U5      0.715600
     14 O14         1.2810   -1.8050    2.9700 o         1 1U5     -0.630500
     15 H1         -0.3890    1.0110    0.2190 hc        1 1U5      0.041200
     16 H2         -0.3870   -0.7450    0.6700 hc        1 1U5      0.041200
     17 H3         -0.3040   -0.2770   -1.0800 hc        1 1U5      0.041200
     18 H4          3.1360    1.2510   -0.8800 hc        1 1U5      0.041200
     19 H5          1.5590    2.1040   -0.6410 hc        1 1U5      0.041200
     20 H6          1.7390    0.8680   -1.9730 hc        1 1U5      0.041200
     21 H7          0.6540    1.2720    2.4220 hc        1 1U5      0.034367
     22 H8          2.1720    2.1350    1.9240 hc        1 1U5      0.034367
     23 H9          2.1860    1.0200    3.3610 hc        1 1U5      0.034367
     24 H10         4.1260   -0.6150    2.0920 hc        1 1U5      0.037200
     25 H11         4.1330    0.7930    0.9600 hc        1 1U5      0.037200
     26 H12         4.1840   -0.7070   -0.8840 hc        1 1U5      0.063200
     27 H13         4.1440   -2.1150    0.2530 hc        1 1U5      0.063200
@<TRIPOS>BOND
     1    1    2 1   
     2    1   15 1   
     3    1   16 1   
     4    1   17 1   
     5    2    3 1   
     6    2    4 1   
     7    2    8 1   
     8    3   18 1   
     9    3   19 1   
    10    3   20 1   
    11    4    5 1   
    12    4    6 1   
    13    4   13 1   
    14    5   21 1   
    15    5   22 1   
    16    5   23 1   
    17    6    7 1   
    18    6   24 1   
    19    6   25 1   
    20    7    8 1   
    21    7   26 1   
    22    7   27 1   
    23    8    9 1   
    24    8   12 1   
    25    9   10 1   
    26    9   11 1   
    27   12   13 1   
    28   13   14 2   
@<TRIPOS>SUBSTRUCTURE
     1 1U5         1 TEMP              0 ****  ****    0 ROOT
