@<TRIPOS>MOLECULE
1U6
   25    25     1     0     0
SMALL
bcc


@<TRIPOS>ATOM
      1 C01        -0.0760   -0.1270   -0.0980 c3        1 1U6     -0.111100
      2 C02         1.4380   -0.0250   -0.0260 c3        1 1U6      0.077000
      3 N03         1.9740    0.0500    1.3320 n         1 1U6     -0.457400
      4 C04         2.1870   -1.1590    2.0160 c         1 1U6      0.698500
      5 O05         1.9230   -2.2430    1.4720 o         1 1U6     -0.584500
      6 C06         2.7510   -1.1230    3.4090 c3        1 1U6     -0.237400
      7 C07         3.0140    0.2410    3.9810 c         1 1U6      0.698500
      8 O08         3.4910    0.3640    5.1210 o         1 1U6     -0.584500
      9 N09         2.6990    1.3780    3.2170 n         1 1U6     -0.457400
     10 C10         2.9570    2.6880    3.8130 c3        1 1U6      0.077000
     11 C11         4.3820    3.1850    3.6440 c3        1 1U6     -0.111100
     12 C12         2.2020    1.3140    1.9030 c         1 1U6      0.561400
     13 S13         1.9000    2.6610    1.0710 s         1 1U6     -0.469400
     14 H1         -0.5650    0.7750    0.3410 hc        1 1U6      0.050700
     15 H2         -0.3700   -0.2040   -1.1730 hc        1 1U6      0.050700
     16 H3         -0.4420   -1.0360    0.4380 hc        1 1U6      0.050700
     17 H4          1.7810    0.8880   -0.5970 h1        1 1U6      0.086200
     18 H5          1.8930   -0.9410   -0.5050 h1        1 1U6      0.086200
     19 H6          3.7180   -1.7010    3.4130 hc        1 1U6      0.126700
     20 H7          2.0390   -1.6630    4.0940 hc        1 1U6      0.126700
     21 H8          2.2410    3.4340    3.3570 h1        1 1U6      0.086200
     22 H9          2.7260    2.5950    4.9150 h1        1 1U6      0.086200
     23 H10         4.6410    3.3170    2.5670 hc        1 1U6      0.050700
     24 H11         4.4690    4.1740    4.1550 hc        1 1U6      0.050700
     25 H12         5.1100    2.4770    4.1090 hc        1 1U6      0.050700
@<TRIPOS>BOND
     1    1    2 1   
     2    1   14 1   
     3    1   15 1   
     4    1   16 1   
     5    2    3 1   
     6    2   17 1   
     7    2   18 1   
     8    3    4 1   
     9    3   12 1   
    10    4    5 2   
    11    4    6 1   
    12    6    7 1   
    13    6   19 1   
    14    6   20 1   
    15    7    8 2   
    16    7    9 1   
    17    9   10 1   
    18    9   12 1   
    19   10   11 1   
    20   10   21 1   
    21   10   22 1   
    22   11   23 1   
    23   11   24 1   
    24   11   25 1   
    25   12   13 2   
@<TRIPOS>SUBSTRUCTURE
     1 1U6         1 TEMP              0 ****  ****    0 ROOT
