@<TRIPOS>MOLECULE
1U6
   25    25     1     0     0
SMALL
bcc


@<TRIPOS>ATOM
      1 C01        -0.0680   -0.1330   -0.1050 c3        1 1U6     -0.111100
      2 C02         1.4460   -0.0270   -0.0290 c3        1 1U6      0.077000
      3 N03         1.9780    0.0500    1.3310 n         1 1U6     -0.457400
      4 C04         2.1910   -1.1580    2.0160 c         1 1U6      0.698500
      5 O05         1.9310   -2.2430    1.4700 o         1 1U6     -0.584500
      6 C06         2.7510   -1.1220    3.4100 c3        1 1U6     -0.237400
      7 C07         3.0100    0.2430    3.9830 c         1 1U6      0.698500
      8 O08         3.4850    0.3660    5.1240 o         1 1U6     -0.584500
      9 N09         2.6950    1.3790    3.2180 n         1 1U6     -0.457400
     10 C10         2.9490    2.6890    3.8150 c3        1 1U6      0.077000
     11 C11         4.3740    3.1880    3.6500 c3        1 1U6     -0.111100
     12 C12         2.2020    1.3140    1.9030 c         1 1U6      0.561400
     13 S13         1.8990    2.6610    1.0700 s         1 1U6     -0.469400
     14 H1         -0.4330   -1.0430    0.4290 hc        1 1U6      0.050700
     15 H2         -0.3580   -0.2090   -1.1810 hc        1 1U6      0.050700
     16 H3         -0.5610    0.7680    0.3340 hc        1 1U6      0.050700
     17 H4          1.7870    0.8880   -0.5980 h1        1 1U6      0.086200
     18 H5          1.9050   -0.9410   -0.5070 h1        1 1U6      0.086200
     19 H6          3.7180   -1.6990    3.4180 hc        1 1U6      0.126700
     20 H7          2.0360   -1.6630    4.0930 hc        1 1U6      0.126700
     21 H8          2.2340    3.4350    3.3570 h1        1 1U6      0.086200
     22 H9          2.7150    2.5960    4.9160 h1        1 1U6      0.086200
     23 H10         4.4580    4.1780    4.1610 hc        1 1U6      0.050700
     24 H11         5.1030    2.4820    4.1170 hc        1 1U6      0.050700
     25 H12         4.6360    3.3210    2.5730 hc        1 1U6      0.050700
@<TRIPOS>BOND
     1    1    2 1   
     2    1   14 1   
     3    1   15 1   
     4    1   16 1   
     5    2    3 1   
     6    2   17 1   
     7    2   18 1   
     8    3    4 1   
     9    3   12 1   
    10    4    5 2   
    11    4    6 1   
    12    6    7 1   
    13    6   19 1   
    14    6   20 1   
    15    7    8 2   
    16    7    9 1   
    17    9   10 1   
    18    9   12 1   
    19   10   11 1   
    20   10   21 1   
    21   10   22 1   
    22   11   23 1   
    23   11   24 1   
    24   11   25 1   
    25   12   13 2   
@<TRIPOS>SUBSTRUCTURE
     1 1U6         1 TEMP              0 ****  ****    0 ROOT
