@<TRIPOS>MOLECULE
1U6
   25    25     1     0     0
SMALL
bcc


@<TRIPOS>ATOM
      1 C01        -0.0750   -0.1300   -0.0980 c3        1 1U6     -0.111100
      2 C02         1.4390   -0.0350   -0.0220 c3        1 1U6      0.077000
      3 N03         1.9720    0.0440    1.3370 n         1 1U6     -0.457400
      4 C04         2.1750   -1.1630    2.0270 c         1 1U6      0.698500
      5 O05         1.9070   -2.2480    1.4870 o         1 1U6     -0.584500
      6 C06         2.7350   -1.1240    3.4220 c3        1 1U6     -0.237400
      7 C07         3.0060    0.2410    3.9880 c         1 1U6      0.698500
      8 O08         3.4830    0.3660    5.1280 o         1 1U6     -0.584500
      9 N09         2.7000    1.3760    3.2180 n         1 1U6     -0.457400
     10 C10         2.9650    2.6870    3.8080 c3        1 1U6      0.077000
     11 C11         4.3940    3.1740    3.6400 c3        1 1U6     -0.111100
     12 C12         2.2060    1.3090    1.9040 c         1 1U6      0.561400
     13 S13         1.9130    2.6540    1.0650 s         1 1U6     -0.469400
     14 H1         -0.5610    0.7760    0.3370 hc        1 1U6      0.050700
     15 H2         -0.4470   -1.0350    0.4400 hc        1 1U6      0.050700
     16 H3         -0.3660   -0.2090   -1.1730 hc        1 1U6      0.050700
     17 H4          1.7880    0.8750   -0.5960 h1        1 1U6      0.086200
     18 H5          1.8910   -0.9540   -0.4960 h1        1 1U6      0.086200
     19 H6          3.6970   -1.7100    3.4330 hc        1 1U6      0.126700
     20 H7          2.0160   -1.6550    4.1070 hc        1 1U6      0.126700
     21 H8          2.7320    2.6010    4.9100 h1        1 1U6      0.086200
     22 H9          2.2560    3.4360    3.3470 h1        1 1U6      0.086200
     23 H10         4.6560    3.2990    2.5620 hc        1 1U6      0.050700
     24 H11         5.1170    2.4640    4.1090 hc        1 1U6      0.050700
     25 H12         4.4870    4.1650    4.1460 hc        1 1U6      0.050700
@<TRIPOS>BOND
     1    1    2 1   
     2    1   14 1   
     3    1   15 1   
     4    1   16 1   
     5    2    3 1   
     6    2   17 1   
     7    2   18 1   
     8    3    4 1   
     9    3   12 1   
    10    4    5 2   
    11    4    6 1   
    12    6    7 1   
    13    6   19 1   
    14    6   20 1   
    15    7    8 2   
    16    7    9 1   
    17    9   10 1   
    18    9   12 1   
    19   10   11 1   
    20   10   21 1   
    21   10   22 1   
    22   11   23 1   
    23   11   24 1   
    24   11   25 1   
    25   12   13 2   
@<TRIPOS>SUBSTRUCTURE
     1 1U6         1 TEMP              0 ****  ****    0 ROOT
