@<TRIPOS>MOLECULE
1U7
   38    40     1     0     0
SMALL
bcc


@<TRIPOS>ATOM
      1 C01         0.0380    0.0010   -0.0250 c3        1 1U7      0.174500
      2 C02         1.5710   -0.0280    0.0810 c3        1 1U7     -0.074400
      3 C03         2.0010   -0.1200    1.5300 c3        1 1U7     -0.077400
      4 C04         1.4390    1.0260    2.3450 c3        1 1U7     -0.076400
      5 C05        -0.0690    1.0930    2.2250 c3        1 1U7     -0.076400
      6 C06        -0.5000    1.2100    0.7720 c3        1 1U7     -0.035700
      7 C07        -2.0380    1.2950    0.6490 c3        1 1U7      0.199100
      8 O08        -2.5550    0.1210    1.2780 oh        1 1U7     -0.594800
      9 C09        -2.5600    2.5450    1.3210 ca        1 1U7     -0.109300
     10 C10        -2.2200    3.8070    0.8170 ca        1 1U7     -0.122500
     11 C11        -2.7070    4.9630    1.4240 ca        1 1U7     -0.130500
     12 C12        -3.5350    4.8730    2.5420 ca        1 1U7     -0.129000
     13 C13        -3.8680    3.6210    3.0560 ca        1 1U7     -0.130500
     14 C14        -3.3810    2.4630    2.4510 ca        1 1U7     -0.122500
     15 C15        -2.4390    1.2990   -0.8350 c3        1 1U7     -0.102400
     16 C16        -1.8350    0.1010   -1.5630 c3        1 1U7      0.167800
     17 N17        -0.3950    0.0370   -1.4220 n3        1 1U7     -0.818200
     18 H1         -0.3640   -0.9280    0.4900 h1        1 1U7      0.034700
     19 H2          1.9990    0.8970   -0.3840 hc        1 1U7      0.044700
     20 H3          1.9730   -0.9100   -0.4830 hc        1 1U7      0.044700
     21 H4          1.6520   -1.0940    1.9640 hc        1 1U7      0.039700
     22 H5          3.1200   -0.1080    1.5850 hc        1 1U7      0.039700
     23 H6          1.7220    0.8960    3.4220 hc        1 1U7      0.039200
     24 H7          1.8880    1.9920    1.9920 hc        1 1U7      0.039200
     25 H8         -0.4570    1.9770    2.7950 hc        1 1U7      0.053700
     26 H9         -0.5300    0.1740    2.6740 hc        1 1U7      0.053700
     27 H10        -0.0800    2.1570    0.3340 hc        1 1U7      0.063700
     28 H11        -3.5020    0.1000    1.0950 ho        1 1U7      0.399000
     29 H12        -1.5590    3.8920   -0.0590 ha        1 1U7      0.138500
     30 H13        -2.4350    5.9490    1.0180 ha        1 1U7      0.132000
     31 H14        -3.9210    5.7870    3.0180 ha        1 1U7      0.131000
     32 H15        -4.5130    3.5430    3.9430 ha        1 1U7      0.132000
     33 H16        -3.6310    1.4790    2.8780 ha        1 1U7      0.138500
     34 H17        -2.0930    2.2510   -1.3120 hc        1 1U7      0.054700
     35 H18        -3.5550    1.2510   -0.9240 hc        1 1U7      0.054700
     36 H19        -2.0630    0.1870   -2.6630 h1        1 1U7      0.031200
     37 H20        -2.3440   -0.8320   -1.1750 h1        1 1U7      0.031200
     38 H21        -0.0390   -0.7690   -1.9010 hn        1 1U7      0.360800
@<TRIPOS>BOND
     1    1    2 1   
     2    1    6 1   
     3    1   17 1   
     4    1   18 1   
     5    2    3 1   
     6    2   19 1   
     7    2   20 1   
     8    3    4 1   
     9    3   21 1   
    10    3   22 1   
    11    4    5 1   
    12    4   23 1   
    13    4   24 1   
    14    5    6 1   
    15    5   25 1   
    16    5   26 1   
    17    6    7 1   
    18    6   27 1   
    19    7    8 1   
    20    7    9 1   
    21    7   15 1   
    22    8   28 1   
    23    9   10 ar  
    24    9   14 ar  
    25   10   11 ar  
    26   10   29 1   
    27   11   12 ar  
    28   11   30 1   
    29   12   13 ar  
    30   12   31 1   
    31   13   14 ar  
    32   13   32 1   
    33   14   33 1   
    34   15   16 1   
    35   15   34 1   
    36   15   35 1   
    37   16   17 1   
    38   16   36 1   
    39   16   37 1   
    40   17   38 1   
@<TRIPOS>SUBSTRUCTURE
     1 1U7         1 TEMP              0 ****  ****    0 ROOT
