@<TRIPOS>MOLECULE
1U7
   38    40     1     0     0
SMALL
bcc


@<TRIPOS>ATOM
      1 C01         0.0340   -0.0010   -0.0270 c3        1 1U7      0.174500
      2 C02         1.5650   -0.0450    0.0940 c3        1 1U7     -0.074400
      3 C03         1.9790   -0.1540    1.5460 c3        1 1U7     -0.077400
      4 C04         1.4200    0.9890    2.3660 c3        1 1U7     -0.076400
      5 C05        -0.0860    1.0720    2.2320 c3        1 1U7     -0.076400
      6 C06        -0.5010    1.2060    0.7760 c3        1 1U7     -0.035700
      7 C07        -2.0360    1.3060    0.6380 c3        1 1U7      0.199100
      8 O08        -2.5710    0.1320    1.2510 oh        1 1U7     -0.594800
      9 C09        -2.5540    2.5540    1.3160 ca        1 1U7     -0.109300
     10 C10        -2.1970    3.8180    0.8280 ca        1 1U7     -0.122500
     11 C11        -2.6800    4.9730    1.4400 ca        1 1U7     -0.130500
     12 C12        -3.5210    4.8810    2.5490 ca        1 1U7     -0.129000
     13 C13        -3.8700    3.6270    3.0470 ca        1 1U7     -0.130500
     14 C14        -3.3870    2.4700    2.4370 ca        1 1U7     -0.122500
     15 C15        -2.4230    1.3280   -0.8500 c3        1 1U7     -0.102400
     16 C16        -1.8220    0.1310   -1.5830 c3        1 1U7      0.167800
     17 N17        -0.3840    0.0520   -1.4280 n7        1 1U7     -0.818200
     18 H1         -0.3820   -0.9310    0.4750 h1        1 1U7      0.034700
     19 H2          2.0070    0.8810   -0.3580 hc        1 1U7      0.044700
     20 H3          1.9660   -0.9250   -0.4730 hc        1 1U7      0.044700
     21 H4          1.6170   -1.1290    1.9680 hc        1 1U7      0.039700
     22 H5          3.0990   -0.1540    1.6130 hc        1 1U7      0.039700
     23 H6          1.6900    0.8460    3.4450 hc        1 1U7      0.039200
     24 H7          1.8810    1.9540    2.0280 hc        1 1U7      0.039200
     25 H8         -0.5600    0.1520    2.6670 hc        1 1U7      0.053700
     26 H9         -0.4710    1.9540    2.8060 hc        1 1U7      0.053700
     27 H10        -0.0670    2.1530    0.3500 hc        1 1U7      0.063700
     28 H11        -3.5160    0.1210    1.0570 ho        1 1U7      0.399000
     29 H12        -1.5260    3.9050   -0.0400 ha        1 1U7      0.138500
     30 H13        -2.3940    5.9600    1.0470 ha        1 1U7      0.132000
     31 H14        -3.9030    5.7930    3.0300 ha        1 1U7      0.131000
     32 H15        -4.5260    3.5470    3.9270 ha        1 1U7      0.132000
     33 H16        -3.6510    1.4840    2.8510 ha        1 1U7      0.138500
     34 H17        -3.5370    1.2910   -0.9510 hc        1 1U7      0.054700
     35 H18        -2.0630    2.2810   -1.3140 hc        1 1U7      0.054700
     36 H19        -2.0380    0.2300   -2.6840 h1        1 1U7      0.031200
     37 H20        -2.3440   -0.8000   -1.2090 h1        1 1U7      0.031200
     38 H21        -0.0300   -0.7520   -1.9110 hn        1 1U7      0.360800
@<TRIPOS>BOND
     1    1    2 1   
     2    1    6 1   
     3    1   17 1   
     4    1   18 1   
     5    2    3 1   
     6    2   19 1   
     7    2   20 1   
     8    3    4 1   
     9    3   21 1   
    10    3   22 1   
    11    4    5 1   
    12    4   23 1   
    13    4   24 1   
    14    5    6 1   
    15    5   25 1   
    16    5   26 1   
    17    6    7 1   
    18    6   27 1   
    19    7    8 1   
    20    7    9 1   
    21    7   15 1   
    22    8   28 1   
    23    9   10 ar  
    24    9   14 ar  
    25   10   11 ar  
    26   10   29 1   
    27   11   12 ar  
    28   11   30 1   
    29   12   13 ar  
    30   12   31 1   
    31   13   14 ar  
    32   13   32 1   
    33   14   33 1   
    34   15   16 1   
    35   15   34 1   
    36   15   35 1   
    37   16   17 1   
    38   16   36 1   
    39   16   37 1   
    40   17   38 1   
@<TRIPOS>SUBSTRUCTURE
     1 1U7         1 TEMP              0 ****  ****    0 ROOT
