@<TRIPOS>MOLECULE
1U7
   38    40     1     0     0
SMALL
bcc


@<TRIPOS>ATOM
      1 C01         0.0370    0.0050   -0.0320 c3        1 1U7      0.174500
      2 C02         1.5680   -0.0380    0.0910 c3        1 1U7     -0.074400
      3 C03         1.9810   -0.1530    1.5430 c3        1 1U7     -0.077400
      4 C04         1.4180    0.9860    2.3680 c3        1 1U7     -0.076400
      5 C05        -0.0870    1.0670    2.2310 c3        1 1U7     -0.076400
      6 C06        -0.5010    1.2080    0.7750 c3        1 1U7     -0.035700
      7 C07        -2.0360    1.3060    0.6360 c3        1 1U7      0.199100
      8 O08        -2.5700    0.1280    1.2430 oh        1 1U7     -0.594800
      9 C09        -2.5560    2.5510    1.3180 ca        1 1U7     -0.109300
     10 C10        -2.2010    3.8170    0.8360 ca        1 1U7     -0.122500
     11 C11        -2.6860    4.9690    1.4520 ca        1 1U7     -0.130500
     12 C12        -3.5270    4.8710    2.5600 ca        1 1U7     -0.129000
     13 C13        -3.8750    3.6140    3.0540 ca        1 1U7     -0.130500
     14 C14        -3.3900    2.4610    2.4390 ca        1 1U7     -0.122500
     15 C15        -2.4200    1.3330   -0.8530 c3        1 1U7     -0.102400
     16 C16        -1.8170    0.1410   -1.5900 c3        1 1U7      0.167800
     17 N17        -0.3790    0.0630   -1.4330 n3        1 1U7     -0.818200
     18 H1         -0.3780   -0.9280    0.4660 h1        1 1U7      0.034700
     19 H2          1.9700   -0.9150   -0.4800 hc        1 1U7      0.044700
     20 H3          2.0090    0.8900   -0.3560 hc        1 1U7      0.044700
     21 H4          1.6190   -1.1290    1.9610 hc        1 1U7      0.039700
     22 H5          3.1000   -0.1510    1.6120 hc        1 1U7      0.039700
     23 H6          1.8790    1.9530    2.0340 hc        1 1U7      0.039200
     24 H7          1.6880    0.8390    3.4460 hc        1 1U7      0.039200
     25 H8         -0.5610    0.1450    2.6620 hc        1 1U7      0.053700
     26 H9         -0.4750    1.9460    2.8090 hc        1 1U7      0.053700
     27 H10        -0.0680    2.1570    0.3550 hc        1 1U7      0.063700
     28 H11        -3.5150    0.1170    1.0480 ho        1 1U7      0.399000
     29 H12        -1.5290    3.9080   -0.0320 ha        1 1U7      0.138500
     30 H13        -2.4010    5.9580    1.0640 ha        1 1U7      0.132000
     31 H14        -3.9110    5.7800    3.0450 ha        1 1U7      0.131000
     32 H15        -4.5300    3.5300    3.9330 ha        1 1U7      0.132000
     33 H16        -3.6530    1.4730    2.8490 ha        1 1U7      0.138500
     34 H17        -2.0610    2.2890   -1.3120 hc        1 1U7      0.054700
     35 H18        -3.5350    1.2960   -0.9550 hc        1 1U7      0.054700
     36 H19        -2.3380   -0.7930   -1.2200 h1        1 1U7      0.031200
     37 H20        -2.0320    0.2440   -2.6910 h1        1 1U7      0.031200
     38 H21        -0.0240   -0.7390   -1.9190 hn        1 1U7      0.360800
@<TRIPOS>BOND
     1    1    2 1   
     2    1    6 1   
     3    1   17 1   
     4    1   18 1   
     5    2    3 1   
     6    2   19 1   
     7    2   20 1   
     8    3    4 1   
     9    3   21 1   
    10    3   22 1   
    11    4    5 1   
    12    4   23 1   
    13    4   24 1   
    14    5    6 1   
    15    5   25 1   
    16    5   26 1   
    17    6    7 1   
    18    6   27 1   
    19    7    8 1   
    20    7    9 1   
    21    7   15 1   
    22    8   28 1   
    23    9   10 ar  
    24    9   14 ar  
    25   10   11 ar  
    26   10   29 1   
    27   11   12 ar  
    28   11   30 1   
    29   12   13 ar  
    30   12   31 1   
    31   13   14 ar  
    32   13   32 1   
    33   14   33 1   
    34   15   16 1   
    35   15   34 1   
    36   15   35 1   
    37   16   17 1   
    38   16   36 1   
    39   16   37 1   
    40   17   38 1   
@<TRIPOS>SUBSTRUCTURE
     1 1U7         1 TEMP              0 ****  ****    0 ROOT
