@<TRIPOS>MOLECULE
1U8
   36    36     1     0     0
SMALL
bcc


@<TRIPOS>ATOM
      1 N           3.6540    0.1040   -1.8660 n3        1 1U8     -0.904800
      2 CA          3.0170   -0.2030   -0.5970 c3        1 1U8      0.094500
      3 C           1.5210    0.0880   -0.6260 c         1 1U8      0.563100
      4 O           1.0040    1.0410   -1.2140 o         1 1U8     -0.551100
      5 CB          3.6020    0.5050    0.6310 c3        1 1U8     -0.237400
      6 CG          5.0690    0.0820    0.8450 c         1 1U8      0.911600
      7 OD1         5.3580   -0.5120    1.9190 o         1 1U8     -0.840800
      8 OD2         5.9050    0.3570   -0.0660 o         1 1U8     -0.840800
      9 C9          0.7030   -0.8940    0.1830 c3        1 1U8      0.019400
     10 H1          3.5020    1.0710   -2.0860 hn        1 1U8      0.367300
     11 H2          4.6490   -0.0350   -1.7540 hn        1 1U8      0.367300
     12 H4          3.1530   -1.3170   -0.4420 h1        1 1U8      0.066700
     13 H5          3.5650    1.6130    0.4930 hc        1 1U8      0.037700
     14 H6          3.0070    0.2380    1.5390 hc        1 1U8      0.037700
     15 H8          0.9770   -1.9490   -0.0930 h1        1 1U8      0.093700
     16 H9          0.8810   -0.7190    1.2780 h1        1 1U8      0.093700
     17 O1         -0.6860   -0.8090   -0.1500 os        1 1U8     -0.419900
     18 C2         -1.5160   -0.1070    0.6800 c         1 1U8      0.653700
     19 O2         -1.0670    0.3580    1.7280 o         1 1U8     -0.534000
     20 C1         -2.9110   -0.0490    0.1850 ca        1 1U8     -0.112600
     21 C3         -3.2500    0.8140   -0.8670 ca        1 1U8     -0.020800
     22 C4         -4.5820    0.8640   -1.2990 ca        1 1U8     -0.152500
     23 C5         -5.5520    0.0690   -0.6950 ca        1 1U8     -0.110000
     24 C6         -5.2080   -0.7850    0.3510 ca        1 1U8     -0.152500
     25 C7         -3.8850   -0.8530    0.8010 ca        1 1U8     -0.020800
     26 H10        -4.8560    1.5370   -2.1250 ha        1 1U8      0.130000
     27 H11        -6.5940    0.1150   -1.0440 ha        1 1U8      0.124000
     28 H12        -5.9770   -1.4100    0.8260 ha        1 1U8      0.130000
     29 C8         -3.5220   -1.7680    1.9090 c3        1 1U8     -0.077300
     30 C10        -2.2350    1.6810   -1.5080 c3        1 1U8     -0.077300
     31 H3         -2.9930   -2.6670    1.5030 hc        1 1U8      0.059867
     32 H13        -2.8370   -1.2550    2.6320 hc        1 1U8      0.059867
     33 H14        -4.4290   -2.1130    2.4620 hc        1 1U8      0.059867
     34 H15        -1.2280    1.1830   -1.5290 hc        1 1U8      0.059867
     35 H16        -2.5280    1.9320   -2.5570 hc        1 1U8      0.059867
     36 H17        -2.1350    2.6360   -0.9320 hc        1 1U8      0.059867
@<TRIPOS>BOND
     1    1    2 1   
     2    1   10 1   
     3    1   11 1   
     4    2    3 1   
     5    2    5 1   
     6    2   12 1   
     7    3    4 2   
     8    3    9 1   
     9    5    6 1   
    10    5   13 1   
    11    5   14 1   
    12    6    7 1   
    13    6    8 1   
    14    9   15 1   
    15    9   16 1   
    16    9   17 1   
    17   17   18 1   
    18   18   19 2   
    19   18   20 1   
    20   20   21 ar  
    21   20   25 ar  
    22   21   22 ar  
    23   21   30 1   
    24   22   23 ar  
    25   22   26 1   
    26   23   24 ar  
    27   23   27 1   
    28   24   25 ar  
    29   24   28 1   
    30   25   29 1   
    31   29   31 1   
    32   29   32 1   
    33   29   33 1   
    34   30   34 1   
    35   30   35 1   
    36   30   36 1   
@<TRIPOS>SUBSTRUCTURE
     1 1U8         1 TEMP              0 ****  ****    0 ROOT
