@<TRIPOS>MOLECULE
1U8
   36    33     1     0     0
SMALL
bcc


@<TRIPOS>ATOM
      1 N          -0.7050   -2.5090    3.6700 n3        1 1U8     -0.335000
      2 CA         -1.2260   -1.2150    3.3060 c3        1 1U8     -0.053000
      3 C          -0.4310   -0.6560    2.1250 c1        1 1U8      0.224000
      4 O           0.6830   -0.1940    2.3040 o         1 1U8     -0.312000
      5 CB         -1.1110   -0.2870    4.4670 c3        1 1U8     -0.266000
      6 CG         -1.8600   -0.8870    5.6820 c2        1 1U8      0.331000
      7 OD1        -3.1130   -0.7160    5.8020 o         1 1U8     -0.575000
      8 OD2        -1.2070   -1.4600    6.6090 o         1 1U8     -0.575000
      9 C9         -1.0400   -0.6560    0.7300 c2        1 1U8     -0.084000
     10 H1         -1.3990   -3.0960    3.7920 hn        1 1U8      0.162000
     11 H2         -0.1580   -2.8180    3.0010 hn        1 1U8      0.162000
     12 H4         -2.1750   -1.3030    3.0500 h1        1 1U8      0.107000
     13 H5         -1.5050    0.5760    4.2350 hc        1 1U8      0.075500
     14 H6         -0.1630   -0.1630    4.6950 hc        1 1U8      0.075500
     15 H8         -0.9860   -1.5580    0.3510 h4        1 1U8      0.135000
     16 H9         -1.9780   -0.3800    0.7850 h4        1 1U8      0.135000
     17 O1         -0.3300    0.2460   -0.0980 os        1 1U8     -0.253000
     18 C2          0.0670   -0.3090   -1.3290 c2        1 1U8      0.356000
     19 O2         -0.0380   -1.4980   -1.5170 o         1 1U8     -0.353000
     20 C1          0.7040    0.5720   -2.3860 c2        1 1U8     -0.092000
     21 C3          2.0250    1.0100   -2.2290 c2        1 1U8     -0.003000
     22 C4          2.5970    1.8530   -3.1820 c1        1 1U8     -0.151000
     23 C5          1.8470    2.2620   -4.2990 c1        1 1U8     -0.131500
     24 C6          0.5310    1.8250   -4.4540 c1        1 1U8     -0.131500
     25 C7         -0.0430    0.9810   -3.5010 c1        1 1U8     -0.023000
     26 H10         3.4950    2.1520   -3.0760 ha        1 1U8      0.132000
     27 H11         2.2680    2.7990   -4.9980 ha        1 1U8      0.127000
     28 H12         0.0180    2.1060   -5.2200 ha        1 1U8      0.127000
     29 C8         -1.4410    0.4370   -3.7200 c3        1 1U8     -0.195000
     30 C10         2.8440    0.5550   -1.0190 c3        1 1U8     -0.210000
     31 H3         -1.7540    0.6900   -4.6190 hc        1 1U8      0.093000
     32 H13        -1.4270   -0.5420   -3.6430 hc        1 1U8      0.093000
     33 H14        -2.0480    0.8100   -3.0440 hc        1 1U8      0.093000
     34 H15         2.4630    0.9540   -0.1930 hc        1 1U8      0.105333
     35 H16         2.8130   -0.4330   -0.9520 hc        1 1U8      0.105333
     36 H17         3.7810    0.8500   -1.1240 hc        1 1U8      0.105333
@<TRIPOS>BOND
     1    1    2 1   
     2    1   10 1   
     3    1   11 1   
     4    2    3 1   
     5    2    5 1   
     6    2   12 1   
     7    3    4 1   
     8    5    6 1   
     9    5   13 1   
    10    5   14 1   
    11    6    7 1   
    12    6    8 1   
    13    9   15 1   
    14    9   16 1   
    15    9   17 1   
    16   17   18 1   
    17   18   19 1   
    18   18   20 1   
    19   20   21 1   
    20   20   25 1   
    21   21   22 1   
    22   21   30 1   
    23   22   26 1   
    24   23   24 1   
    25   23   27 1   
    26   24   28 1   
    27   25   29 1   
    28   29   31 1   
    29   29   32 1   
    30   29   33 1   
    31   30   34 1   
    32   30   35 1   
    33   30   36 1   
@<TRIPOS>SUBSTRUCTURE
     1 1U8         1 TEMP              0 ****  ****    0 ROOT
