@<TRIPOS>MOLECULE
1U9
   45    47     1     0     0
SMALL
bcc


@<TRIPOS>ATOM
      1 O           0.1140    0.2400   -0.3530 oh        1 1U9     -0.600800
      2 C16         1.5260    0.3380   -0.2600 c3        1 1U9      0.136400
      3 C15         1.9030   -0.1580    1.1310 c3        1 1U9     -0.047100
      4 C14         3.3720   -0.0830    1.3490 ca        1 1U9     -0.077300
      5 C13         4.0000    1.1610    1.5020 ca        1 1U9     -0.105000
      6 C12         5.3730    1.2300    1.7250 ca        1 1U9     -0.129000
      7 C11         6.1340    0.0650    1.7960 ca        1 1U9     -0.107000
      8 C17         4.1360   -1.2500    1.4240 ca        1 1U9     -0.102000
      9 C10         5.5220   -1.1880    1.6430 ca        1 1U9     -0.088800
     10 C9          6.2730   -2.4280    1.7200 ce        1 1U9     -0.035200
     11 C8          7.6050   -2.5300    1.5640 cf        1 1U9     -0.166200
     12 C7          8.3480   -3.7730    1.6420 ca        1 1U9      0.016200
     13 C6          9.5940   -3.8660    1.0370 ca        1 1U9     -0.134000
     14 C18         7.8320   -4.9020    2.3400 ca        1 1U9     -0.104000
     15 C19         8.5430   -6.0740    2.4130 ca        1 1U9     -0.107000
     16 C20         9.8160   -6.1860    1.7900 ca        1 1U9     -0.062000
     17 C5         10.3440   -5.0640    1.0950 ca        1 1U9     -0.001000
     18 C4         11.6170   -5.1760    0.4650 ca        1 1U9     -0.080000
     19 C3         12.3340   -6.3430    0.5330 ca        1 1U9     -0.141000
     20 C21        10.5670   -7.3870    1.8470 ca        1 1U9     -0.034000
     21 C2         11.8020   -7.4600    1.2340 ca        1 1U9     -0.282900
     22 C1         12.5690   -8.7180    1.2700 ce        1 1U9      0.600800
     23 N2         13.8640   -8.5490    2.0290 n4        1 1U9     -0.826600
     24 N1         12.3390   -9.8790    0.7920 n2        1 1U9     -0.720100
     25 H16        -0.1290    0.5810   -1.2220 ho        1 1U9      0.406000
     26 H14         1.8510    1.4040   -0.3990 h1        1 1U9      0.025200
     27 H15         2.0080   -0.2960   -1.0510 h1        1 1U9      0.025200
     28 H13         1.5340   -1.2100    1.2530 hc        1 1U9      0.068200
     29 H12         1.3710    0.4700    1.8960 hc        1 1U9      0.068200
     30 H11         3.4010    2.0830    1.4510 ha        1 1U9      0.143000
     31 H10         5.8590    2.2090    1.8500 ha        1 1U9      0.141000
     32 H9          7.2160    0.1330    1.9840 ha        1 1U9      0.132000
     33 H17         3.6460   -2.2290    1.3090 ha        1 1U9      0.136000
     34 H8          5.6570   -3.3290    1.9010 ha        1 1U9      0.127000
     35 H7          8.2150   -1.6370    1.3390 ha        1 1U9      0.141000
     36 H6         10.0120   -3.0030    0.4950 ha        1 1U9      0.153000
     37 H18         6.8510   -4.8210    2.8350 ha        1 1U9      0.156000
     38 H19         8.1370   -6.9430    2.9540 ha        1 1U9      0.145000
     39 H5         12.0120   -4.3060   -0.0850 ha        1 1U9      0.159000
     40 H4         13.3010   -6.4310    0.0160 ha        1 1U9      0.131000
     41 H20        10.1430   -8.2510    2.3850 ha        1 1U9      0.146000
     42 H3         14.3550   -7.7380    1.6380 hn        1 1U9      0.468467
     43 H2         14.4630   -9.3800    1.9690 hn        1 1U9      0.468467
     44 H1         11.4960  -10.0210    0.2730 hn        1 1U9      0.489400
     45 H23        13.6360   -8.3620    3.0110 hn        1 1U9      0.468467
@<TRIPOS>BOND
     1    1    2 1   
     2    1   25 1   
     3    2    3 1   
     4    2   26 1   
     5    2   27 1   
     6    3    4 1   
     7    3   28 1   
     8    3   29 1   
     9    4    5 ar  
    10    4    8 ar  
    11    5    6 ar  
    12    5   30 1   
    13    6    7 ar  
    14    6   31 1   
    15    7    9 ar  
    16    7   32 1   
    17    8    9 ar  
    18    8   33 1   
    19    9   10 1   
    20   10   11 2   
    21   10   34 1   
    22   11   12 1   
    23   11   35 1   
    24   12   13 ar  
    25   12   14 ar  
    26   13   17 ar  
    27   13   36 1   
    28   14   15 ar  
    29   14   37 1   
    30   15   16 ar  
    31   15   38 1   
    32   16   17 ar  
    33   16   20 ar  
    34   17   18 ar  
    35   18   19 ar  
    36   18   39 1   
    37   19   21 ar  
    38   19   40 1   
    39   20   21 ar  
    40   20   41 1   
    41   21   22 1   
    42   22   23 1   
    43   22   24 2   
    44   23   42 1   
    45   23   43 1   
    46   23   45 1   
    47   24   44 1   
@<TRIPOS>SUBSTRUCTURE
     1 1U9         1 TEMP              0 ****  ****    0 ROOT
