@<TRIPOS>MOLECULE
1U9
   44    46     1     0     0
SMALL
bcc


@<TRIPOS>ATOM
      1 O           7.7920   -2.3390    1.3260 oh        1 1U9     -0.603800
      2 C16         6.7730   -1.3520    1.2790 c3        1 1U9      0.134400
      3 C15         6.7200   -0.8440   -0.1560 c3        1 1U9     -0.042100
      4 C14         5.6280    0.1510   -0.3300 ca        1 1U9     -0.081300
      5 C13         5.9230    1.5120   -0.4650 ca        1 1U9     -0.119000
      6 C12         4.8940    2.4350   -0.6410 ca        1 1U9     -0.129000
      7 C11         3.5670    2.0130   -0.6790 ca        1 1U9     -0.118000
      8 C17         4.2960   -0.2720   -0.3730 ca        1 1U9     -0.115000
      9 C10         3.2540    0.6530   -0.5410 ca        1 1U9     -0.058800
     10 C9          1.8840    0.1700   -0.5810 ce        1 1U9     -0.097200
     11 C8          0.8050    0.9200   -0.3010 cf        1 1U9     -0.111200
     12 C7         -0.5660    0.4370   -0.3370 ca        1 1U9     -0.045800
     13 C6         -1.5360    1.0750    0.4150 ca        1 1U9     -0.111000
     14 C18        -0.9320   -0.6770   -1.1440 ca        1 1U9     -0.118000
     15 C19        -2.2270   -1.1260   -1.1750 ca        1 1U9     -0.115000
     16 C20        -3.2350   -0.4890   -0.4000 ca        1 1U9     -0.042000
     17 C5         -2.8820    0.6250    0.4030 ca        1 1U9     -0.028000
     18 C4         -3.8890    1.2650    1.1770 ca        1 1U9     -0.121000
     19 C3         -5.1860    0.8170    1.1480 ca        1 1U9     -0.102000
     20 C21        -4.5820   -0.9400   -0.4110 ca        1 1U9     -0.097000
     21 C2         -5.5380   -0.2980    0.3440 ca        1 1U9     -0.192900
     22 C1         -6.9520   -0.7950    0.3360 ce        1 1U9      0.638800
     23 N2         -7.9200    0.2120    0.1370 nh        1 1U9     -0.893800
     24 N1         -7.2910   -2.0320    0.5520 n2        1 1U9     -0.835100
     25 H16         7.8360   -2.6440    2.2390 ho        1 1U9      0.401000
     26 H14         5.7880   -1.8040    1.5720 h1        1 1U9      0.025700
     27 H15         7.0160   -0.5140    1.9860 h1        1 1U9      0.025700
     28 H13         7.7130   -0.3940   -0.4210 hc        1 1U9      0.063700
     29 H12         6.5580   -1.7170   -0.8440 hc        1 1U9      0.063700
     30 H11         6.9690    1.8520   -0.4370 ha        1 1U9      0.135000
     31 H10         5.1310    3.5040   -0.7530 ha        1 1U9      0.133000
     32 H9          2.7640    2.7500   -0.8280 ha        1 1U9      0.134000
     33 H17         4.0640   -1.3430   -0.2730 ha        1 1U9      0.134000
     34 H8          1.7750   -0.8970   -0.8450 ha        1 1U9      0.129000
     35 H7          0.9170    1.9770    0.0030 ha        1 1U9      0.129000
     36 H6         -1.2760    1.9420    1.0420 ha        1 1U9      0.136000
     37 H18        -0.1590   -1.1690   -1.7540 ha        1 1U9      0.137000
     38 H19        -2.5080   -1.9860   -1.8010 ha        1 1U9      0.136000
     39 H5         -3.6070    2.1270    1.8020 ha        1 1U9      0.137000
     40 H4         -5.9650    1.3100    1.7520 ha        1 1U9      0.151000
     41 H20        -4.8420   -1.8070   -1.0380 ha        1 1U9      0.140000
     42 H3         -7.6220    0.9220   -0.4950 hn        1 1U9      0.399300
     43 H2         -8.8460   -0.1140   -0.0390 hn        1 1U9      0.399300
     44 H1         -6.5270   -2.6310    0.7800 hn        1 1U9      0.395400
@<TRIPOS>BOND
     1    1    2 1   
     2    1   25 1   
     3    2    3 1   
     4    2   26 1   
     5    2   27 1   
     6    3    4 1   
     7    3   28 1   
     8    3   29 1   
     9    4    5 ar  
    10    4    8 ar  
    11    5    6 ar  
    12    5   30 1   
    13    6    7 ar  
    14    6   31 1   
    15    7    9 ar  
    16    7   32 1   
    17    8    9 ar  
    18    8   33 1   
    19    9   10 1   
    20   10   11 2   
    21   10   34 1   
    22   11   12 1   
    23   11   35 1   
    24   12   13 ar  
    25   12   14 ar  
    26   13   17 ar  
    27   13   36 1   
    28   14   15 ar  
    29   14   37 1   
    30   15   16 ar  
    31   15   38 1   
    32   16   17 ar  
    33   16   20 ar  
    34   17   18 ar  
    35   18   19 ar  
    36   18   39 1   
    37   19   21 ar  
    38   19   40 1   
    39   20   21 ar  
    40   20   41 1   
    41   21   22 1   
    42   22   23 1   
    43   22   24 2   
    44   23   42 1   
    45   23   43 1   
    46   24   44 1   
@<TRIPOS>SUBSTRUCTURE
     1 1U9         1 TEMP              0 ****  ****    0 ROOT
