@<TRIPOS>MOLECULE
1U9
   45    47     1     0     0
SMALL
bcc


@<TRIPOS>ATOM
      1 O           0.1040    0.2200   -0.3320 oh        1 1U9     -0.600800
      2 C16         1.5160    0.3190   -0.2480 c3        1 1U9      0.136400
      3 C15         1.9020   -0.1610    1.1450 c3        1 1U9     -0.047100
      4 C14         3.3730   -0.0840    1.3530 ca        1 1U9     -0.077300
      5 C13         4.0010    1.1610    1.4910 ca        1 1U9     -0.105000
      6 C12         5.3750    1.2320    1.7040 ca        1 1U9     -0.129000
      7 C11         6.1380    0.0680    1.7790 ca        1 1U9     -0.107000
      8 C17         4.1370   -1.2500    1.4330 ca        1 1U9     -0.102000
      9 C10         5.5250   -1.1850    1.6420 ca        1 1U9     -0.088800
     10 C9          6.2760   -2.4250    1.7240 ce        1 1U9     -0.035200
     11 C8          7.6070   -2.5270    1.5580 cf        1 1U9     -0.166200
     12 C7          8.3520   -3.7700    1.6400 ca        1 1U9      0.016200
     13 C6          9.5910   -3.8690    1.0240 ca        1 1U9     -0.134000
     14 C18         7.8430   -4.8920    2.3560 ca        1 1U9     -0.104000
     15 C19         8.5540   -6.0630    2.4320 ca        1 1U9     -0.107000
     16 C20         9.8210   -6.1820    1.7980 ca        1 1U9     -0.062000
     17 C5         10.3410   -5.0660    1.0860 ca        1 1U9     -0.001000
     18 C4         11.6080   -5.1860    0.4440 ca        1 1U9     -0.080000
     19 C3         12.3250   -6.3520    0.5150 ca        1 1U9     -0.141000
     20 C21        10.5720   -7.3820    1.8590 ca        1 1U9     -0.034000
     21 C2         11.8010   -7.4610    1.2340 ca        1 1U9     -0.282900
     22 C1         12.5680   -8.7190    1.2740 ce        1 1U9      0.600800
     23 N2         13.8700   -8.5430    2.0180 n4        1 1U9     -0.826600
     24 N1         12.3320   -9.8850    0.8110 n2        1 1U9     -0.720100
     25 H16        -0.1460    0.5510   -1.2020 ho        1 1U9      0.406000
     26 H14         1.9930   -0.3230   -1.0360 h1        1 1U9      0.025200
     27 H15         1.8400    1.3840   -0.4010 h1        1 1U9      0.025200
     28 H13         1.3750    0.4750    1.9070 hc        1 1U9      0.068200
     29 H12         1.5340   -1.2120    1.2820 hc        1 1U9      0.068200
     30 H11         3.4010    2.0830    1.4360 ha        1 1U9      0.143000
     31 H10         5.8620    2.2130    1.8170 ha        1 1U9      0.141000
     32 H9          7.2210    0.1390    1.9590 ha        1 1U9      0.132000
     33 H17         3.6470   -2.2300    1.3300 ha        1 1U9      0.136000
     34 H8          5.6630   -3.3250    1.9190 ha        1 1U9      0.127000
     35 H7          8.2150   -1.6370    1.3190 ha        1 1U9      0.141000
     36 H6         10.0040   -3.0110    0.4690 ha        1 1U9      0.153000
     37 H18         6.8670   -4.8060    2.8600 ha        1 1U9      0.156000
     38 H19         8.1540   -6.9260    2.9870 ha        1 1U9      0.145000
     39 H5         11.9970   -4.3210   -0.1190 ha        1 1U9      0.159000
     40 H4         13.2870   -6.4450   -0.0110 ha        1 1U9      0.131000
     41 H20        10.1540   -8.2400    2.4100 ha        1 1U9      0.146000
     42 H3         13.6530   -8.3450    2.9990 hn        1 1U9      0.468467
     43 H2         14.4690   -9.3750    1.9590 hn        1 1U9      0.468467
     44 H1         11.4840  -10.0320    0.3020 hn        1 1U9      0.489400
     45 H23        14.3570   -7.7360    1.6130 hn        1 1U9      0.468467
@<TRIPOS>BOND
     1    1    2 1   
     2    1   25 1   
     3    2    3 1   
     4    2   26 1   
     5    2   27 1   
     6    3    4 1   
     7    3   28 1   
     8    3   29 1   
     9    4    5 ar  
    10    4    8 ar  
    11    5    6 ar  
    12    5   30 1   
    13    6    7 ar  
    14    6   31 1   
    15    7    9 ar  
    16    7   32 1   
    17    8    9 ar  
    18    8   33 1   
    19    9   10 1   
    20   10   11 2   
    21   10   34 1   
    22   11   12 1   
    23   11   35 1   
    24   12   13 ar  
    25   12   14 ar  
    26   13   17 ar  
    27   13   36 1   
    28   14   15 ar  
    29   14   37 1   
    30   15   16 ar  
    31   15   38 1   
    32   16   17 ar  
    33   16   20 ar  
    34   17   18 ar  
    35   18   19 ar  
    36   18   39 1   
    37   19   21 ar  
    38   19   40 1   
    39   20   21 ar  
    40   20   41 1   
    41   21   22 1   
    42   22   23 1   
    43   22   24 2   
    44   23   42 1   
    45   23   43 1   
    46   23   45 1   
    47   24   44 1   
@<TRIPOS>SUBSTRUCTURE
     1 1U9         1 TEMP              0 ****  ****    0 ROOT
