@<TRIPOS>MOLECULE
1U9
   44    37     1     0     0
SMALL
bcc


@<TRIPOS>ATOM
      1 O          -3.5610   -7.1800   -1.3480 oh        1 1U9     -0.331000
      2 C16        -3.2850   -6.0090   -0.6120 c3        1 1U9     -0.016000
      3 C15        -2.3500   -5.1220   -1.4050 c3        1 1U9     -0.128000
      4 C14        -1.8160   -4.0240   -0.5100 c2        1 1U9     -0.077000
      5 C13        -0.8820   -4.3210    0.4700 c2        1 1U9     -0.120000
      6 C12        -0.4180   -3.3220    1.3110 c1        1 1U9     -0.131000
      7 C11        -0.8880   -2.0260    1.1730 c1        1 1U9     -0.113000
      8 C17        -2.2860   -2.7270   -0.6490 c1        1 1U9     -0.118000
      9 C10        -1.8220   -1.7270    0.1930 c1        1 1U9     -0.053000
     10 C9         -2.4260   -0.3400    0.1220 c2        1 1U9     -0.108000
     11 C8         -1.6410    0.7250   -0.1460 c1        1 1U9     -0.123000
     12 C7         -0.1580    0.5340   -0.3770 c1        1 1U9     -0.033000
     13 C6          0.2670    1.1830    0.7750 c2        1 1U9     -0.115000
     14 C18         0.2850    0.9670   -1.6240 c1        1 1U9     -0.115000
     15 C19         1.1520    2.0480   -1.7160 c1        1 1U9     -0.096500
     16 C20         1.5830    2.7080   -0.5490 c1        1 1U9     -0.044000
     17 C5          1.1460    2.2800    0.6830 c1        1 1U9     -0.033000
     18 C4          1.5630    2.9490    1.8480 c1        1 1U9     -0.115000
     19 C3          2.4160    4.0410    1.7550 c1        1 1U9     -0.118000
     20 C21         2.4480    3.8140   -0.6420 c1        1 1U9     -0.096500
     21 C2          2.8590    4.4740    0.5080 c1        1 1U9     -0.115000
     22 C1          3.8430    5.6180    0.3980 c1        1 1U9      0.115000
     23 N2          3.3740    6.9570    0.3650 n2        1 1U9     -0.332000
     24 N1          5.1250    5.3740    0.3340 n1        1 1U9     -0.303000
     25 H16        -3.8830   -7.8040   -0.8030 ho        1 1U9      0.200000
     26 H14        -4.1210   -5.5280   -0.4380 h1        1 1U9      0.064500
     27 H15        -2.8640   -6.2500    0.2390 h1        1 1U9      0.064500
     28 H13        -1.6040   -5.6570   -1.7460 hc        1 1U9      0.102500
     29 H12        -2.8350   -4.7240   -2.1550 hc        1 1U9      0.102500
     30 H11        -0.5510   -5.2350    0.5680 ha        1 1U9      0.134000
     31 H10         0.2400   -3.5320    2.0010 ha        1 1U9      0.135000
     32 H9         -0.5610   -1.3220    1.7650 ha        1 1U9      0.143000
     33 H17        -2.9430   -2.5170   -1.3390 ha        1 1U9      0.134000
     34 H8         -3.3830   -0.2170    0.2710 ha        1 1U9      0.127000
     35 H7         -2.0310    1.6190   -0.1910 ha        1 1U9      0.128000
     36 H6         -0.0290    0.8670    1.6500 ha        1 1U9      0.136000
     37 H18        -0.0180    0.5140   -2.4330 ha        1 1U9      0.142000
     38 H19         1.4620    2.3520   -2.5910 ha        1 1U9      0.144000
     39 H5          1.2530    2.6460    2.7230 ha        1 1U9      0.142000
     40 H4          2.7050    4.5050    2.5640 ha        1 1U9      0.139000
     41 H20         2.7590    4.1180   -1.5170 ha        1 1U9      0.144000
     42 H3          2.5270    7.1520    0.6480 hn        1 1U9      0.193500
     43 H2          3.9230    7.6270    0.0720 hn        1 1U9      0.193500
     44 H1          5.4270    4.5120    0.3550 DU        1 1U9      0.151000
@<TRIPOS>BOND
     1    1    2 1   
     2    1   25 1   
     3    2    3 1   
     4    2   26 1   
     5    2   27 1   
     6    3    4 1   
     7    3   28 1   
     8    3   29 1   
     9    4    5 1   
    10    4    8 1   
    11    5    6 1   
    12    5   30 1   
    13    6   31 1   
    14    7    9 1   
    15    7   32 1   
    16    8   33 1   
    17    9   10 1   
    18   10   11 1   
    19   10   34 1   
    20   11   35 1   
    21   12   13 1   
    22   12   14 1   
    23   13   17 1   
    24   13   36 1   
    25   14   37 1   
    26   15   16 1   
    27   15   38 1   
    28   16   20 1   
    29   17   18 1   
    30   18   39 1   
    31   19   21 1   
    32   19   40 1   
    33   20   41 1   
    34   21   22 1   
    35   22   24 1   
    36   23   42 1   
    37   23   43 1   
@<TRIPOS>SUBSTRUCTURE
     1 1U9         1 TEMP              0 ****  ****    0 ROOT
