@<TRIPOS>MOLECULE
1U9
   45    47     1     0     0
SMALL
bcc


@<TRIPOS>ATOM
      1 O           0.1040    0.2230   -0.3270 oh        1 1U9     -0.600800
      2 C16         1.5170    0.3220   -0.2440 c3        1 1U9      0.136400
      3 C15         1.9030   -0.1580    1.1490 c3        1 1U9     -0.047100
      4 C14         3.3740   -0.0820    1.3560 ca        1 1U9     -0.077300
      5 C13         4.0030    1.1630    1.4940 ca        1 1U9     -0.105000
      6 C12         5.3780    1.2330    1.7060 ca        1 1U9     -0.129000
      7 C11         6.1390    0.0690    1.7800 ca        1 1U9     -0.107000
      8 C17         4.1380   -1.2480    1.4350 ca        1 1U9     -0.102000
      9 C10         5.5260   -1.1850    1.6430 ca        1 1U9     -0.088800
     10 C9          6.2770   -2.4250    1.7230 ce        1 1U9     -0.035200
     11 C8          7.6080   -2.5280    1.5580 cf        1 1U9     -0.166200
     12 C7          8.3510   -3.7710    1.6390 ca        1 1U9      0.016200
     13 C6          9.5910   -3.8690    1.0250 ca        1 1U9     -0.134000
     14 C18         7.8410   -4.8940    2.3510 ca        1 1U9     -0.104000
     15 C19         8.5520   -6.0650    2.4270 ca        1 1U9     -0.107000
     16 C20         9.8190   -6.1840    1.7940 ca        1 1U9     -0.062000
     17 C5         10.3420   -5.0670    1.0860 ca        1 1U9     -0.001000
     18 C4         11.6090   -5.1850    0.4460 ca        1 1U9     -0.080000
     19 C3         12.3260   -6.3520    0.5160 ca        1 1U9     -0.141000
     20 C21        10.5700   -7.3840    1.8540 ca        1 1U9     -0.034000
     21 C2         11.8000   -7.4620    1.2310 ca        1 1U9     -0.282900
     22 C1         12.5660   -8.7210    1.2700 ce        1 1U9      0.600800
     23 N2         13.8670   -8.5470    2.0170 nz        1 1U9     -0.826600
     24 N1         12.3310   -9.8860    0.8030 n2        1 1U9     -0.720100
     25 H16        -0.1460    0.5540   -1.1970 ho        1 1U9      0.406000
     26 H14         1.9920   -0.3210   -1.0320 h1        1 1U9      0.025200
     27 H15         1.8410    1.3860   -0.3980 h1        1 1U9      0.025200
     28 H13         1.3770    0.4780    1.9110 hc        1 1U9      0.068200
     29 H12         1.5350   -1.2090    1.2860 hc        1 1U9      0.068200
     30 H11         3.4030    2.0850    1.4400 ha        1 1U9      0.143000
     31 H10         5.8650    2.2130    1.8190 ha        1 1U9      0.141000
     32 H9          7.2220    0.1390    1.9590 ha        1 1U9      0.132000
     33 H17         3.6470   -2.2280    1.3310 ha        1 1U9      0.136000
     34 H8          5.6620   -3.3240    1.9160 ha        1 1U9      0.127000
     35 H7          8.2160   -1.6370    1.3210 ha        1 1U9      0.141000
     36 H6         10.0060   -3.0100    0.4730 ha        1 1U9      0.153000
     37 H18         6.8640   -4.8090    2.8540 ha        1 1U9      0.156000
     38 H19         8.1500   -6.9300    2.9790 ha        1 1U9      0.145000
     39 H5         12.0000   -4.3190   -0.1140 ha        1 1U9      0.159000
     40 H4         13.2880   -6.4440   -0.0080 ha        1 1U9      0.131000
     41 H20        10.1510   -8.2430    2.4020 ha        1 1U9      0.146000
     42 H3         13.6480   -8.3520    2.9990 hn        1 1U9      0.468467
     43 H2         14.4660   -9.3800    1.9580 hn        1 1U9      0.468467
     44 H1         11.4840  -10.0300    0.2920 hn        1 1U9      0.489400
     45 H23        14.3550   -7.7390    1.6150 hn        1 1U9      0.468467
@<TRIPOS>BOND
     1    1    2 1   
     2    1   25 1   
     3    2    3 1   
     4    2   26 1   
     5    2   27 1   
     6    3    4 1   
     7    3   28 1   
     8    3   29 1   
     9    4    5 ar  
    10    4    8 ar  
    11    5    6 ar  
    12    5   30 1   
    13    6    7 ar  
    14    6   31 1   
    15    7    9 ar  
    16    7   32 1   
    17    8    9 ar  
    18    8   33 1   
    19    9   10 1   
    20   10   11 2   
    21   10   34 1   
    22   11   12 1   
    23   11   35 1   
    24   12   13 ar  
    25   12   14 ar  
    26   13   17 ar  
    27   13   36 1   
    28   14   15 ar  
    29   14   37 1   
    30   15   16 ar  
    31   15   38 1   
    32   16   17 ar  
    33   16   20 ar  
    34   17   18 ar  
    35   18   19 ar  
    36   18   39 1   
    37   19   21 ar  
    38   19   40 1   
    39   20   21 ar  
    40   20   41 1   
    41   21   22 1   
    42   22   23 1   
    43   22   24 2   
    44   23   42 1   
    45   23   43 1   
    46   23   45 1   
    47   24   44 1   
@<TRIPOS>SUBSTRUCTURE
     1 1U9         1 TEMP              0 ****  ****    0 ROOT
