@<TRIPOS>MOLECULE
1UA
   35    37     1     0     0
SMALL
bcc


@<TRIPOS>ATOM
      1 O17         0.0260    0.0340   -0.3140 o         1 1UA     -0.627500
      2 C6          1.2450   -0.0030   -0.0730 c         1 1UA      0.714700
      3 C5          1.8950   -0.0620    1.2210 cc        1 1UA     -0.267400
      4 C4          3.2780   -0.0970    1.3080 cd        1 1UA      0.179400
      5 C2          3.7220   -0.1560    2.7450 c3        1 1UA     -0.035200
      6 C3          1.2450   -0.0910    2.5570 c3        1 1UA     -0.011200
      7 C1          2.4160   -0.1520    3.5530 c3        1 1UA     -0.084400
      8 N19         2.1440    0.0120   -1.1740 ns        1 1UA     -0.465400
      9 C7          3.5200   -0.0270   -0.9810 cc        1 1UA      0.492800
     10 N18         4.1170   -0.0810    0.2170 nd        1 1UA     -0.652300
     11 S16         4.4680   -0.0010   -2.4280 ss        1 1UA     -0.166300
     12 C8          6.1640   -0.0600   -1.8810 c3        1 1UA      0.048000
     13 C9          6.9710   -0.0380   -3.1190 ca        1 1UA     -0.106300
     14 C11         7.3390   -1.2360   -3.7470 ca        1 1UA     -0.102000
     15 C13         8.1150   -1.2140   -4.9020 ca        1 1UA     -0.134000
     16 C14         8.5380    0.0030   -5.4520 ca        1 1UA     -0.059300
     17 C15         9.3490    0.0250   -6.6900 c3        1 1UA     -0.058800
     18 C12         8.1730    1.1980   -4.8210 ca        1 1UA     -0.134000
     19 C10         7.3970    1.1800   -3.6660 ca        1 1UA     -0.102000
     20 H1          4.3620    0.7270    2.9950 hc        1 1UA      0.067700
     21 H2          0.6190    0.8230    2.7190 hc        1 1UA      0.060700
     22 H3          0.5760   -0.9820    2.6590 hc        1 1UA      0.060700
     23 H4          2.3880    0.7300    4.2390 hc        1 1UA      0.048700
     24 H5          1.7730    0.0520   -2.0980 hn        1 1UA      0.341500
     25 H6          6.3900    0.8170   -1.2260 h1        1 1UA      0.091700
     26 H7          6.3470   -0.9890   -1.2860 h1        1 1UA      0.091700
     27 H8          7.0140   -2.1980   -3.3220 ha        1 1UA      0.138000
     28 H9          8.3990   -2.1600   -5.3870 ha        1 1UA      0.136000
     29 H10         8.6760    0.0750   -7.5840 hc        1 1UA      0.048367
     30 H11        10.0250    0.9150   -6.7110 hc        1 1UA      0.048367
     31 H12         9.9750   -0.8970   -6.7760 hc        1 1UA      0.048367
     32 H13         8.5030    2.1600   -5.2430 ha        1 1UA      0.136000
     33 H14         7.1180    2.1260   -3.1780 ha        1 1UA      0.138000
     34 H15         4.3190   -1.0820    2.9350 hc        1 1UA      0.067700
     35 H16         2.3450   -1.0750    4.1790 hc        1 1UA      0.048700
@<TRIPOS>BOND
     1    1    2 2   
     2    2    3 1   
     3    2    8 1   
     4    3    4 2   
     5    3    6 1   
     6    4    5 1   
     7    4   10 1   
     8    5    7 1   
     9    5   20 1   
    10    5   34 1   
    11    6    7 1   
    12    6   21 1   
    13    6   22 1   
    14    7   23 1   
    15    7   35 1   
    16    8    9 1   
    17    8   24 1   
    18    9   10 2   
    19    9   11 1   
    20   11   12 1   
    21   12   13 1   
    22   12   25 1   
    23   12   26 1   
    24   13   14 ar  
    25   13   19 ar  
    26   14   15 ar  
    27   14   27 1   
    28   15   16 ar  
    29   15   28 1   
    30   16   17 1   
    31   16   18 ar  
    32   17   29 1   
    33   17   30 1   
    34   17   31 1   
    35   18   19 ar  
    36   18   32 1   
    37   19   33 1   
@<TRIPOS>SUBSTRUCTURE
     1 1UA         1 TEMP              0 ****  ****    0 ROOT
