@<TRIPOS>MOLECULE
1UA
   35    37     1     0     0
SMALL
bcc


@<TRIPOS>ATOM
      1 O17         0.0250    0.0010   -0.3130 o         1 1UA     -0.627500
      2 C6          1.2450   -0.0250   -0.0730 c         1 1UA      0.714700
      3 C5          1.8960   -0.0690    1.2220 cc        1 1UA     -0.267400
      4 C4          3.2790   -0.0930    1.3090 cd        1 1UA      0.179400
      5 C2          3.7240   -0.1380    2.7460 c3        1 1UA     -0.035200
      6 C3          1.2460   -0.0940    2.5580 c3        1 1UA     -0.011200
      7 C1          2.4170   -0.1390    3.5550 c3        1 1UA     -0.084400
      8 N19         2.1440   -0.0100   -1.1730 n         1 1UA     -0.465400
      9 C7          3.5200   -0.0370   -0.9810 cc        1 1UA      0.492800
     10 N18         4.1180   -0.0780    0.2170 nd        1 1UA     -0.652300
     11 S16         4.4680   -0.0140   -2.4280 ss        1 1UA     -0.166300
     12 C8          6.1640   -0.0550   -1.8810 c3        1 1UA      0.048000
     13 C9          6.9710   -0.0350   -3.1200 ca        1 1UA     -0.106300
     14 C11         7.3470   -1.2330   -3.7400 ca        1 1UA     -0.102000
     15 C13         8.1230   -1.2130   -4.8960 ca        1 1UA     -0.134000
     16 C14         8.5360    0.0030   -5.4530 ca        1 1UA     -0.059300
     17 C15         9.3470    0.0240   -6.6910 c3        1 1UA     -0.058800
     18 C12         8.1630    1.2000   -4.8300 ca        1 1UA     -0.134000
     19 C10         7.3880    1.1830   -3.6740 ca        1 1UA     -0.102000
     20 H1          4.3280   -1.0590    2.9420 hc        1 1UA      0.067700
     21 H2          0.5850   -0.9900    2.6660 hc        1 1UA      0.060700
     22 H3          0.6130    0.8160    2.7140 hc        1 1UA      0.060700
     23 H4          2.3540   -1.0580    4.1860 hc        1 1UA      0.048700
     24 H5          1.7720    0.0200   -2.0980 hn        1 1UA      0.341500
     25 H6          6.3830    0.8280   -1.2320 h1        1 1UA      0.091700
     26 H7          6.3550   -0.9780   -1.2800 h1        1 1UA      0.091700
     27 H8          7.0290   -2.1950   -3.3100 ha        1 1UA      0.138000
     28 H9          8.4130   -2.1600   -5.3750 ha        1 1UA      0.136000
     29 H10         8.6750    0.0800   -7.5850 hc        1 1UA      0.048033
     30 H11         9.9690   -0.9010   -6.7800 hc        1 1UA      0.048033
     31 H12        10.0270    0.9110   -6.7100 hc        1 1UA      0.048033
     32 H13         8.4870    2.1610   -5.2570 ha        1 1UA      0.136000
     33 H14         7.1020    2.1300   -3.1910 ha        1 1UA      0.138000
     34 H15         4.3570    0.7510    2.9900 hc        1 1UA      0.067700
     35 H16         2.3830    0.7470    4.2340 hc        1 1UA      0.048700
@<TRIPOS>BOND
     1    1    2 2   
     2    2    3 1   
     3    2    8 1   
     4    3    4 2   
     5    3    6 1   
     6    4    5 1   
     7    4   10 1   
     8    5    7 1   
     9    5   20 1   
    10    5   34 1   
    11    6    7 1   
    12    6   21 1   
    13    6   22 1   
    14    7   23 1   
    15    7   35 1   
    16    8    9 1   
    17    8   24 1   
    18    9   10 2   
    19    9   11 1   
    20   11   12 1   
    21   12   13 1   
    22   12   25 1   
    23   12   26 1   
    24   13   14 ar  
    25   13   19 ar  
    26   14   15 ar  
    27   14   27 1   
    28   15   16 ar  
    29   15   28 1   
    30   16   17 1   
    31   16   18 ar  
    32   17   29 1   
    33   17   30 1   
    34   17   31 1   
    35   18   19 ar  
    36   18   32 1   
    37   19   33 1   
@<TRIPOS>SUBSTRUCTURE
     1 1UA         1 TEMP              0 ****  ****    0 ROOT
