@<TRIPOS>MOLECULE
1UD
   54    57     1     0     0
SMALL
bcc


@<TRIPOS>ATOM
      1 C1          0.0190    0.2470    0.5510 ca        1 1UD     -0.164600
      2 C2          1.3170    0.0120    0.1040 ca        1 1UD     -0.051000
      3 C3          2.2890   -0.2160    1.0740 ca        1 1UD     -0.069200
      4 C4          1.9820   -0.2070    2.5020 ca        1 1UD      0.134400
      5 C5          0.6690    0.0290    2.9450 ca        1 1UD      0.022700
      6 C6          0.3310    0.0150    4.3960 c3        1 1UD     -0.035100
      7 C7         -0.2360    1.3320    4.9060 c3        1 1UD     -0.074400
      8 C8         -0.3080    0.2490    1.9450 ca        1 1UD      0.116400
      9 N9         -1.6250    0.4860    2.3520 nc        1 1UD     -0.535100
     10 C10        -2.5360    0.7480    1.4400 cd        1 1UD      0.500800
     11 N11        -3.9010    1.0610    1.9730 n4        1 1UD     -0.798600
     12 N12        -2.3420    0.7750    0.0530 n         1 1UD     -0.513400
     13 C13        -1.0370    0.5070   -0.4440 c         1 1UD      0.728100
     14 O14        -0.8960    0.5210   -1.6730 o         1 1UD     -0.564500
     15 N15         3.6620   -0.4530    0.9680 na        1 1UD     -0.290300
     16 N16         3.1450   -0.4530    3.2400 nc        1 1UD     -0.619100
     17 C17         4.1420   -0.6290    2.3040 cd        1 1UD      0.660700
     18 N18         5.4500   -1.0040    2.5900 nh        1 1UD     -0.788200
     19 C19         6.4930   -0.7590    1.6350 c3        1 1UD      0.172100
     20 C20        -2.4780    1.4980    7.5770 c3        1 1UD      0.295900
     21 O21        -1.5470    2.1210    8.4330 os        1 1UD     -0.437600
     22 C22        -0.9160    1.2310    9.3460 c3        1 1UD      0.120700
     23 O23        -1.7070    0.6790    6.7060 os        1 1UD     -0.432600
     24 C24        -1.6810    1.2100    5.3720 c3        1 1UD      0.153100
     25 C25        -2.4110    2.5730    5.3940 c3        1 1UD      0.128100
     26 O26        -3.2730    2.6290    4.2600 os        1 1UD     -0.476600
     27 C26        -3.9230    3.8890    4.1190 c3        1 1UD      0.117700
     28 C27        -3.1580    2.6130    6.7460 c3        1 1UD      0.091100
     29 O28        -4.5240    2.3250    6.5220 oh        1 1UD     -0.596800
     30 H1          1.5440    0.0130   -0.9740 ha        1 1UD      0.177000
     31 H2          1.2470   -0.2360    4.9970 hc        1 1UD      0.081700
     32 H3         -0.4040   -0.8170    4.5820 hc        1 1UD      0.081700
     33 H4         -0.1820    2.1170    4.1070 hc        1 1UD      0.063200
     34 H5          0.3860    1.6880    5.7710 hc        1 1UD      0.063200
     35 H6         -4.5750    0.3690    1.6390 hn        1 1UD      0.482467
     36 H7         -3.8680    1.0510    3.0160 hn        1 1UD      0.482467
     37 H8         -3.0760    0.9620   -0.5920 hn        1 1UD      0.345500
     38 H9          4.1540   -0.6530    0.1370 hn        1 1UD      0.322700
     39 H11         5.7020   -0.9060    3.5540 hn        1 1UD      0.455800
     40 H12         6.3250   -1.3870    0.7190 h1        1 1UD      0.055700
     41 H13         7.4700   -1.0630    2.0990 h1        1 1UD      0.055700
     42 H14         6.5580    0.3200    1.3280 h1        1 1UD      0.055700
     43 H16        -1.6750    0.7800   10.0310 h1        1 1UD      0.047033
     44 H17        -0.2070    1.8840    9.9130 h1        1 1UD      0.047033
     45 H18        -0.3660    0.4310    8.7940 h1        1 1UD      0.047033
     46 H19        -2.2640    0.4770    4.7510 h1        1 1UD      0.060700
     47 H20        -1.6830    3.4280    5.3470 h1        1 1UD      0.076700
     48 H21        -4.5260    3.7860    3.1820 h1        1 1UD      0.045033
     49 H22        -4.5900    4.0810    4.9950 h1        1 1UD      0.045033
     50 H23        -3.1690    4.7070    4.0110 h1        1 1UD      0.045033
     51 H24        -3.0410    3.6090    7.2500 h1        1 1UD      0.084700
     52 H25        -4.9620    2.3670    7.3830 ho        1 1UD      0.422000
     53 H113       -4.1740    2.0030    1.6770 hn        1 1UD      0.482467
     54 H15        -3.1930    0.8300    8.1260 h2        1 1UD      0.081700
@<TRIPOS>BOND
     1    1    2 ar  
     2    1    8 ar  
     3    1   13 1   
     4    2    3 ar  
     5    2   30 1   
     6    3    4 ar  
     7    3   15 1   
     8    4    5 ar  
     9    4   16 1   
    10    5    6 1   
    11    5    8 ar  
    12    6    7 1   
    13    6   31 1   
    14    6   32 1   
    15    7   24 1   
    16    7   33 1   
    17    7   34 1   
    18    8    9 1   
    19    9   10 2   
    20   10   11 1   
    21   10   12 1   
    22   11   35 1   
    23   11   36 1   
    24   11   53 1   
    25   12   13 1   
    26   12   37 1   
    27   13   14 2   
    28   15   17 1   
    29   15   38 1   
    30   16   17 2   
    31   17   18 1   
    32   18   19 1   
    33   18   39 1   
    34   19   40 1   
    35   19   41 1   
    36   19   42 1   
    37   20   21 1   
    38   20   23 1   
    39   20   28 1   
    40   20   54 1   
    41   21   22 1   
    42   22   43 1   
    43   22   44 1   
    44   22   45 1   
    45   23   24 1   
    46   24   25 1   
    47   24   46 1   
    48   25   26 1   
    49   25   28 1   
    50   25   47 1   
    51   26   27 1   
    52   27   48 1   
    53   27   49 1   
    54   27   50 1   
    55   28   29 1   
    56   28   51 1   
    57   29   52 1   
@<TRIPOS>SUBSTRUCTURE
     1 1UD         1 TEMP              0 ****  ****    0 ROOT
