@<TRIPOS>MOLECULE
1UD
   54    57     1     0     0
SMALL
bcc


@<TRIPOS>ATOM
      1 C1          0.0220    0.2800    0.5440 ca        1 1UD     -0.164600
      2 C2          1.3200    0.0430    0.0970 ca        1 1UD     -0.051000
      3 C3          2.2890   -0.2010    1.0670 ca        1 1UD     -0.069200
      4 C4          1.9780   -0.2050    2.4940 ca        1 1UD      0.134400
      5 C5          0.6660    0.0330    2.9370 ca        1 1UD      0.022700
      6 C6          0.3240    0.0050    4.3870 c3        1 1UD     -0.035100
      7 C7         -0.2370    1.3200    4.9090 c3        1 1UD     -0.074400
      8 C8         -0.3080    0.2690    1.9370 ca        1 1UD      0.116400
      9 N9         -1.6250    0.5090    2.3430 nc        1 1UD     -0.535100
     10 C10        -2.5320    0.7860    1.4320 cd        1 1UD      0.500800
     11 N11        -3.8960    1.1000    1.9660 nz        1 1UD     -0.798600
     12 N12        -2.3350    0.8260    0.0460 ns        1 1UD     -0.513400
     13 C13        -1.0300    0.5570   -0.4510 c         1 1UD      0.728100
     14 O14        -0.8860    0.5830   -1.6790 o         1 1UD     -0.564500
     15 N15         3.6600   -0.4440    0.9610 na        1 1UD     -0.290300
     16 N16         3.1380   -0.4660    3.2310 nc        1 1UD     -0.619100
     17 C17         4.1360   -0.6360    2.2960 cd        1 1UD      0.660700
     18 N18         5.4420   -1.0220    2.5810 nu        1 1UD     -0.788200
     19 C19         6.4880   -0.7730    1.6310 c3        1 1UD      0.172100
     20 C20        -2.4840    1.4700    7.5770 c3        1 1UD      0.295900
     21 O21        -1.5500    2.0790    8.4410 os        1 1UD     -0.437600
     22 C22        -0.9260    1.1760    9.3460 c3        1 1UD      0.120700
     23 O23        -1.7160    0.6560    6.6990 os        1 1UD     -0.432600
     24 C24        -1.6840    1.2010    5.3710 c3        1 1UD      0.153100
     25 C25        -2.4060    2.5670    5.4060 c3        1 1UD      0.128100
     26 O26        -3.2660    2.6400    4.2710 os        1 1UD     -0.476600
     27 C26        -3.9090    3.9050    4.1410 c3        1 1UD      0.117700
     28 C27        -3.1560    2.5970    6.7560 c3        1 1UD      0.091100
     29 O28        -4.5220    2.3190    6.5270 oh        1 1UD     -0.596800
     30 H1          1.5500    0.0540   -0.9810 ha        1 1UD      0.177000
     31 H2          1.2380   -0.2570    4.9870 hc        1 1UD      0.081700
     32 H3         -0.4160   -0.8250    4.5620 hc        1 1UD      0.081700
     33 H4          0.3850    1.6630    5.7790 hc        1 1UD      0.063200
     34 H5         -0.1760    2.1130    4.1190 hc        1 1UD      0.063200
     35 H6         -4.5740    0.4150    1.6220 hn        1 1UD      0.482467
     36 H7         -3.8660    1.0790    3.0080 hn        1 1UD      0.482467
     37 H8         -3.0660    1.0240   -0.5990 hn        1 1UD      0.345500
     38 H9          4.1540   -0.6380    0.1290 hn        1 1UD      0.322700
     39 H11         5.6920   -0.9360    3.5460 hn        1 1UD      0.455800
     40 H12         6.5600    0.3090    1.3360 h1        1 1UD      0.055700
     41 H13         6.3190   -1.3910    0.7090 h1        1 1UD      0.055700
     42 H14         7.4620   -1.0870    2.0940 h1        1 1UD      0.055700
     43 H16        -0.3800    0.3780    8.7860 h1        1 1UD      0.047033
     44 H17        -1.6890    0.7220   10.0250 h1        1 1UD      0.047033
     45 H18        -0.2140    1.8190    9.9210 h1        1 1UD      0.047033
     46 H19        -2.2700    0.4780    4.7400 h1        1 1UD      0.060700
     47 H20        -1.6740    3.4190    5.3690 h1        1 1UD      0.076700
     48 H21        -3.1500    4.7190    4.0430 h1        1 1UD      0.045033
     49 H22        -4.5760    4.0910    5.0190 h1        1 1UD      0.045033
     50 H23        -4.5110    3.8150    3.2030 h1        1 1UD      0.045033
     51 H24        -3.0340    3.5870    7.2710 h1        1 1UD      0.084700
     52 H25        -4.9620    2.3550    7.3880 ho        1 1UD      0.422000
     53 H113       -4.1640    2.0470    1.6790 hn        1 1UD      0.482467
     54 H15        -3.2030    0.8000    8.1180 h2        1 1UD      0.081700
@<TRIPOS>BOND
     1    1    2 ar  
     2    1    8 ar  
     3    1   13 1   
     4    2    3 ar  
     5    2   30 1   
     6    3    4 ar  
     7    3   15 1   
     8    4    5 ar  
     9    4   16 1   
    10    5    6 1   
    11    5    8 ar  
    12    6    7 1   
    13    6   31 1   
    14    6   32 1   
    15    7   24 1   
    16    7   33 1   
    17    7   34 1   
    18    8    9 1   
    19    9   10 2   
    20   10   11 1   
    21   10   12 1   
    22   11   35 1   
    23   11   36 1   
    24   11   53 1   
    25   12   13 1   
    26   12   37 1   
    27   13   14 2   
    28   15   17 1   
    29   15   38 1   
    30   16   17 2   
    31   17   18 1   
    32   18   19 1   
    33   18   39 1   
    34   19   40 1   
    35   19   41 1   
    36   19   42 1   
    37   20   21 1   
    38   20   23 1   
    39   20   28 1   
    40   20   54 1   
    41   21   22 1   
    42   22   43 1   
    43   22   44 1   
    44   22   45 1   
    45   23   24 1   
    46   24   25 1   
    47   24   46 1   
    48   25   26 1   
    49   25   28 1   
    50   25   47 1   
    51   26   27 1   
    52   27   48 1   
    53   27   49 1   
    54   27   50 1   
    55   28   29 1   
    56   28   51 1   
    57   29   52 1   
@<TRIPOS>SUBSTRUCTURE
     1 1UD         1 TEMP              0 ****  ****    0 ROOT
