@<TRIPOS>MOLECULE
1UE
   35    38     1     0     0
SMALL
bcc


@<TRIPOS>ATOM
      1 C2         -0.1010   -0.0760   -0.0990 c         1 1UE      0.742700
      2 C3          2.0060    0.0310    1.1600 cc        1 1UE      0.491800
      3 C4          0.0710    0.0260    2.3800 cd        1 1UE      0.146500
      4 C9         -4.5090   -0.1230    1.7860 ca        1 1UE     -0.167000
      5 C8         -4.4490   -0.0670    3.1840 ca        1 1UE     -0.048000
      6 C7         -3.2400   -0.0070    3.8570 ca        1 1UE     -0.173000
      7 C5         -2.0740   -0.0060    3.0770 ca        1 1UE      0.004800
      8 N4         -0.7450    0.0480    3.5110 na        1 1UE     -0.138400
      9 N3          1.4590    0.0640    2.3750 nd        1 1UE     -0.551300
     10 N2          3.5060    0.0710    1.1290 n4        1 1UE     -0.794600
     11 N1          1.3380   -0.0350   -0.0600 n         1 1UE     -0.497400
     12 O1         -0.5840   -0.1330   -1.2320 o         1 1UE     -0.537500
     13 C1         -0.7460   -0.0430    1.1960 cc        1 1UE     -0.146400
     14 C6         -2.1140   -0.0640    1.6240 ca        1 1UE     -0.055800
     15 C1'        -3.3700   -0.1240    0.9790 ca        1 1UE      0.030900
     16 S1         -3.4220   -0.1910   -0.7000 ss        1 1UE     -0.012800
     17 C2'        -5.0680   -0.2540   -1.1310 ca        1 1UE     -0.106100
     18 C3'        -5.7580    0.9240   -1.4400 ca        1 1UE     -0.066500
     19 C4'        -7.0600    0.8680   -1.9340 ca        1 1UE     -0.144000
     20 C5'        -7.6840   -0.3670   -2.1190 ca        1 1UE     -0.081000
     21 C6'        -7.0030   -1.5460   -1.8100 ca        1 1UE     -0.144000
     22 C7'        -5.7000   -1.4890   -1.3170 ca        1 1UE     -0.066500
     23 H1         -5.5030   -0.1700    1.3070 ha        1 1UE      0.160000
     24 H2         -5.3900   -0.0700    3.7600 ha        1 1UE      0.154000
     25 H3         -3.1940    0.0370    4.9540 ha        1 1UE      0.154000
     26 H4         -0.4380    0.0930    4.4500 hn        1 1UE      0.329700
     27 H5          3.8160    0.9010    0.6110 hn        1 1UE      0.479467
     28 H6          3.8710    0.1180    2.0920 hn        1 1UE      0.479467
     29 H7          1.8210   -0.0560   -0.9320 hn        1 1UE      0.346500
     30 H8         -5.2660    1.8990   -1.2990 ha        1 1UE      0.145500
     31 H9         -7.5950    1.7980   -2.1800 ha        1 1UE      0.146000
     32 H10        -8.7120   -0.4120   -2.5110 ha        1 1UE      0.146000
     33 H11        -7.4920   -2.5200   -1.9590 ha        1 1UE      0.146000
     34 H12        -5.1620   -2.4210   -1.0790 ha        1 1UE      0.145500
     35 H23         3.8610   -0.7790    0.6760 hn        1 1UE      0.479467
@<TRIPOS>BOND
     1    1   11 1   
     2    1   12 2   
     3    1   13 1   
     4    2    9 2   
     5    2   10 1   
     6    2   11 1   
     7    3    8 1   
     8    3    9 1   
     9    3   13 2   
    10    4    5 ar  
    11    4   15 ar  
    12    4   23 1   
    13    5    6 ar  
    14    5   24 1   
    15    6    7 ar  
    16    6   25 1   
    17    7    8 1   
    18    7   14 ar  
    19    8   26 1   
    20   10   27 1   
    21   10   28 1   
    22   10   35 1   
    23   11   29 1   
    24   13   14 1   
    25   14   15 ar  
    26   15   16 1   
    27   16   17 1   
    28   17   18 ar  
    29   17   22 ar  
    30   18   19 ar  
    31   18   30 1   
    32   19   20 ar  
    33   19   31 1   
    34   20   21 ar  
    35   20   32 1   
    36   21   22 ar  
    37   21   33 1   
    38   22   34 1   
@<TRIPOS>SUBSTRUCTURE
     1 1UE         1 TEMP              0 ****  ****    0 ROOT
