@<TRIPOS>MOLECULE
1UE
   35    38     1     0     0
SMALL
bcc


@<TRIPOS>ATOM
      1 C2         -0.1000   -0.0760   -0.0960 c         1 1UE      0.742700
      2 C3          2.0060    0.0320    1.1660 cc        1 1UE      0.491800
      3 C4          0.0690    0.0260    2.3840 cd        1 1UE      0.146500
      4 C9         -4.5110   -0.1250    1.7830 ca        1 1UE     -0.167000
      5 C8         -4.4530   -0.0680    3.1820 ca        1 1UE     -0.048000
      6 C7         -3.2440   -0.0080    3.8560 ca        1 1UE     -0.173000
      7 C5         -2.0770   -0.0060    3.0770 ca        1 1UE      0.004800
      8 N4         -0.7490    0.0480    3.5130 na        1 1UE     -0.138400
      9 N3          1.4570    0.0640    2.3800 nd        1 1UE     -0.551300
     10 N2          3.5050    0.0720    1.1370 nz        1 1UE     -0.794600
     11 N1          1.3380   -0.0350   -0.0540 ns        1 1UE     -0.497400
     12 O1         -0.5810   -0.1340   -1.2300 o         1 1UE     -0.537500
     13 C1         -0.7470   -0.0430    1.1980 cc        1 1UE     -0.146400
     14 C6         -2.1160   -0.0650    1.6250 ca        1 1UE     -0.055800
     15 C1'        -3.3700   -0.1250    0.9770 ca        1 1UE      0.030900
     16 S1         -3.4200   -0.1920   -0.7010 ss        1 1UE     -0.012800
     17 C2'        -5.0660   -0.2550   -1.1350 ca        1 1UE     -0.106100
     18 C3'        -5.7550    0.9230   -1.4440 ca        1 1UE     -0.066500
     19 C4'        -7.0560    0.8680   -1.9400 ca        1 1UE     -0.144000
     20 C5'        -7.6800   -0.3660   -2.1260 ca        1 1UE     -0.081000
     21 C6'        -7.0010   -1.5450   -1.8160 ca        1 1UE     -0.144000
     22 C7'        -5.6990   -1.4900   -1.3210 ca        1 1UE     -0.066500
     23 H1         -5.5040   -0.1720    1.3030 ha        1 1UE      0.160000
     24 H2         -5.3950   -0.0720    3.7560 ha        1 1UE      0.154000
     25 H3         -3.2000    0.0360    4.9530 ha        1 1UE      0.154000
     26 H4         -0.4440    0.0930    4.4530 hn        1 1UE      0.329700
     27 H5          3.8690    0.1200    2.1010 hn        1 1UE      0.479467
     28 H6          3.8610   -0.7770    0.6840 hn        1 1UE      0.479467
     29 H7          1.8230   -0.0550   -0.9260 hn        1 1UE      0.346500
     30 H8         -5.2620    1.8990   -1.3040 ha        1 1UE      0.146000
     31 H9         -7.5900    1.7980   -2.1870 ha        1 1UE      0.146000
     32 H10        -8.7080   -0.4110   -2.5180 ha        1 1UE      0.146000
     33 H11        -7.4900   -2.5200   -1.9650 ha        1 1UE      0.146000
     34 H12        -5.1620   -2.4210   -1.0830 ha        1 1UE      0.146000
     35 H23         3.8150    0.9020    0.6190 hn        1 1UE      0.479467
@<TRIPOS>BOND
     1    1   11 1   
     2    1   12 2   
     3    1   13 1   
     4    2    9 2   
     5    2   10 1   
     6    2   11 1   
     7    3    8 1   
     8    3    9 1   
     9    3   13 2   
    10    4    5 ar  
    11    4   15 ar  
    12    4   23 1   
    13    5    6 ar  
    14    5   24 1   
    15    6    7 ar  
    16    6   25 1   
    17    7    8 1   
    18    7   14 ar  
    19    8   26 1   
    20   10   27 1   
    21   10   28 1   
    22   10   35 1   
    23   11   29 1   
    24   13   14 1   
    25   14   15 ar  
    26   15   16 1   
    27   16   17 1   
    28   17   18 ar  
    29   17   22 ar  
    30   18   19 ar  
    31   18   30 1   
    32   19   20 ar  
    33   19   31 1   
    34   20   21 ar  
    35   20   32 1   
    36   21   22 ar  
    37   21   33 1   
    38   22   34 1   
@<TRIPOS>SUBSTRUCTURE
     1 1UE         1 TEMP              0 ****  ****    0 ROOT
