@<TRIPOS>MOLECULE
1UE
   35    38     1     0     0
SMALL
bcc


@<TRIPOS>ATOM
      1 C2         -0.1080   -0.0080   -0.0950 c         1 1UE      0.742700
      2 C3          2.0020    0.0720    1.1610 cc        1 1UE      0.491800
      3 C4          0.0700   -0.0070    2.3850 cd        1 1UE      0.146500
      4 C9         -4.5100   -0.1930    1.7970 ca        1 1UE     -0.168000
      5 C8         -4.4460   -0.1900    3.1970 ca        1 1UE     -0.048000
      6 C7         -3.2350   -0.1410    3.8690 ca        1 1UE     -0.172000
      7 C5         -2.0720   -0.0940    3.0860 ca        1 1UE      0.004800
      8 N4         -0.7420   -0.0410    3.5180 na        1 1UE     -0.138400
      9 N3          1.4580    0.0480    2.3780 nd        1 1UE     -0.551300
     10 N2          3.5000    0.1310    1.1280 n4        1 1UE     -0.794600
     11 N1          1.3300    0.0480   -0.0580 n         1 1UE     -0.497400
     12 O1         -0.5940   -0.0230   -1.2290 o         1 1UE     -0.537500
     13 C1         -0.7500   -0.0380    1.2010 cc        1 1UE     -0.146400
     14 C6         -2.1160   -0.0940    1.6320 ca        1 1UE     -0.054800
     15 C1'        -3.3730   -0.1460    0.9880 ca        1 1UE      0.030900
     16 S1         -3.4260   -0.1450   -0.6910 ss        1 1UE     -0.009800
     17 C2'        -5.0700   -0.2160   -1.1320 ca        1 1UE     -0.102100
     18 C3'        -5.6630    0.9230   -1.6880 ca        1 1UE     -0.070500
     19 C4'        -6.9600    0.8630   -2.1970 ca        1 1UE     -0.142000
     20 C5'        -7.6760   -0.3330   -2.1440 ca        1 1UE     -0.083000
     21 C6'        -7.0930   -1.4710   -1.5830 ca        1 1UE     -0.142000
     22 C7'        -5.7940   -1.4130   -1.0810 ca        1 1UE     -0.070500
     23 H1         -5.5040   -0.2350    1.3200 ha        1 1UE      0.160000
     24 H2         -5.3850   -0.2270    3.7740 ha        1 1UE      0.154000
     25 H3         -3.1860   -0.1390    4.9660 ha        1 1UE      0.154000
     26 H4         -0.4340   -0.0290    4.4580 hn        1 1UE      0.329700
     27 H5          3.8680    0.1430    2.0920 hn        1 1UE      0.479467
     28 H6          3.8640   -0.6960    0.6400 hn        1 1UE      0.479467
     29 H7          1.8110    0.0690   -0.9320 hn        1 1UE      0.346500
     30 H8         -5.1000    1.8690   -1.7290 ha        1 1UE      0.145000
     31 H9         -7.4160    1.7600   -2.6420 ha        1 1UE      0.146500
     32 H10        -8.7000   -0.3810   -2.5440 ha        1 1UE      0.146000
     33 H11        -7.6550   -2.4160   -1.5420 ha        1 1UE      0.146500
     34 H12        -5.3320   -2.3150   -0.6490 ha        1 1UE      0.145000
     35 H23         3.7990    0.9840    0.6430 hn        1 1UE      0.479467
@<TRIPOS>BOND
     1    1   11 1   
     2    1   12 2   
     3    1   13 1   
     4    2    9 2   
     5    2   10 1   
     6    2   11 1   
     7    3    8 1   
     8    3    9 1   
     9    3   13 2   
    10    4    5 ar  
    11    4   15 ar  
    12    4   23 1   
    13    5    6 ar  
    14    5   24 1   
    15    6    7 ar  
    16    6   25 1   
    17    7    8 1   
    18    7   14 ar  
    19    8   26 1   
    20   10   27 1   
    21   10   28 1   
    22   10   35 1   
    23   11   29 1   
    24   13   14 1   
    25   14   15 ar  
    26   15   16 1   
    27   16   17 1   
    28   17   18 ar  
    29   17   22 ar  
    30   18   19 ar  
    31   18   30 1   
    32   19   20 ar  
    33   19   31 1   
    34   20   21 ar  
    35   20   32 1   
    36   21   22 ar  
    37   21   33 1   
    38   22   34 1   
@<TRIPOS>SUBSTRUCTURE
     1 1UE         1 TEMP              0 ****  ****    0 ROOT
