@<TRIPOS>MOLECULE
1UF
   48    50     1     0     0
SMALL
bcc


@<TRIPOS>ATOM
      1 OE1        -2.1440   -3.6840   -1.2640 o         1 1UF     -0.878800
      2 CD         -2.2670   -2.5480   -0.7190 c         1 1UF      0.906600
      3 OE2        -1.3310   -2.0510   -0.0090 o         1 1UF     -0.878800
      4 CG         -3.5330   -1.7280   -0.9780 c3        1 1UF     -0.189400
      5 CB         -4.2820   -1.3450    0.2790 c3        1 1UF     -0.085400
      6 CA         -5.0500   -0.0110    0.1750 c3        1 1UF     -0.044300
      7 C          -6.0820    0.0310    1.3550 c         1 1UF      0.922600
      8 OXT        -5.6820    0.3690    2.5050 o         1 1UF     -0.848300
      9 O          -7.2700   -0.2970    1.0820 o         1 1UF     -0.848300
     10 N          -4.1810    1.1560    0.2260 n         1 1UF     -0.493900
     11 CAV        -3.4330    1.5370   -0.8740 c         1 1UF      0.662700
     12 OAE        -3.9060    1.6270   -2.0270 o         1 1UF     -0.614100
     13 CBA        -1.9790    1.8430   -0.6340 ca        1 1UF     -0.144600
     14 CAZ        -1.2870    2.9390   -1.1650 ca        1 1UF      0.064400
     15 CL1        -2.1080    4.2490   -1.8860 cl        1 1UF     -0.116400
     16 CAL         0.1110    2.9840   -1.1360 ca        1 1UF     -0.148000
     17 CAK        -1.2520    0.8620    0.0530 ca        1 1UF     -0.072000
     18 CAJ         0.1350    0.9350    0.1340 ca        1 1UF     -0.126000
     19 CAY         0.8320    1.9500   -0.5250 ca        1 1UF     -0.035100
     20 SAS         2.5270    1.9820   -0.6750 ss        1 1UF     -0.060800
     21 CBB         3.0440    0.4050   -0.4320 cc        1 1UF     -0.081100
     22 CBE         4.2450    0.0580    0.2810 cc        1 1UF     -0.215600
     23 CBC         5.2700    0.8220    0.9510 c         1 1UF      0.745100
     24 OAF         5.3960    2.0560    1.0480 o         1 1UF     -0.636500
     25 NAQ         6.2950    0.0440    1.5590 n         1 1UF     -0.500400
     26 CAW         6.2910   -1.3630    1.5220 cc        1 1UF      0.609800
     27 NAB         7.3280   -2.0200    2.2700 nh        1 1UF     -0.868800
     28 NAO         5.3800   -2.1010    0.8690 nd        1 1UF     -0.649100
     29 CBD         4.3540   -1.3730    0.2750 cd        1 1UF      0.145100
     30 NAR         3.2790   -1.8850   -0.4450 na        1 1UF     -0.150100
     31 CAX         2.4820   -0.8180   -0.8790 cd        1 1UF     -0.003600
     32 CAA         1.2630   -1.0620   -1.6730 c3        1 1UF     -0.101800
     33 H2         -3.2140   -0.8080   -1.5370 hc        1 1UF      0.029200
     34 H3         -4.2070   -2.3110   -1.6560 hc        1 1UF      0.029200
     35 H4         -5.0410   -2.1370    0.5170 hc        1 1UF      0.048700
     36 H5         -3.5700   -1.3020    1.1450 hc        1 1UF      0.048700
     37 H6         -5.6150    0.0190   -0.7980 h1        1 1UF      0.066700
     38 H8         -3.7270    1.2380    1.1140 hn        1 1UF      0.296500
     39 H9          0.6480    3.8170   -1.6120 ha        1 1UF      0.132000
     40 H10        -1.7550   -0.0480    0.4620 ha        1 1UF      0.228000
     41 H11         0.6740    0.1440    0.6810 ha        1 1UF      0.156000
     42 H12         6.9630    0.5220    2.1210 hn        1 1UF      0.324500
     43 H13         8.2330   -1.7950    1.9060 hn        1 1UF      0.385300
     44 H14         7.1930   -3.0120    2.2960 hn        1 1UF      0.385300
     45 H15         3.0260   -2.8400   -0.5110 hn        1 1UF      0.318700
     46 H16         0.9410   -0.1150   -2.1710 hc        1 1UF      0.095700
     47 H17         1.4400   -1.8400   -2.4560 hc        1 1UF      0.095700
     48 H18         0.4070   -1.4240   -1.0160 hc        1 1UF      0.095700
@<TRIPOS>BOND
     1    1    2 1   
     2    2    3 1   
     3    2    4 1   
     4    4    5 1   
     5    4   33 1   
     6    4   34 1   
     7    5    6 1   
     8    5   35 1   
     9    5   36 1   
    10    6    7 1   
    11    6   10 1   
    12    6   37 1   
    13    7    8 1   
    14    7    9 1   
    15   10   11 1   
    16   10   38 1   
    17   11   12 2   
    18   11   13 1   
    19   13   14 ar  
    20   13   17 ar  
    21   14   15 1   
    22   14   16 ar  
    23   16   19 ar  
    24   16   39 1   
    25   17   18 ar  
    26   17   40 1   
    27   18   19 ar  
    28   18   41 1   
    29   19   20 1   
    30   20   21 1   
    31   21   22 1   
    32   21   31 2   
    33   22   23 1   
    34   22   29 2   
    35   23   24 2   
    36   23   25 1   
    37   25   26 1   
    38   25   42 1   
    39   26   27 1   
    40   26   28 2   
    41   27   43 1   
    42   27   44 1   
    43   28   29 1   
    44   29   30 1   
    45   30   31 1   
    46   30   45 1   
    47   31   32 1   
    48   32   46 1   
    49   32   47 1   
    50   32   48 1   
@<TRIPOS>SUBSTRUCTURE
     1 1UF         1 TEMP              0 ****  ****    0 ROOT
