@<TRIPOS>MOLECULE
1UF
   50    52     1     0     0
SMALL
bcc


@<TRIPOS>ATOM
      1 OE1         4.5340   -0.2350    1.2960 o         1 1UF     -0.481000
      2 CD          4.6750   -0.8130    0.2200 c         1 1UF      0.623100
      3 OE2         5.3730   -1.9860    0.3160 oh        1 1UF     -0.582100
      4 CG          4.1620   -0.3750   -1.1200 c3        1 1UF     -0.177400
      5 CB          5.3020    0.0540   -2.0180 c3        1 1UF     -0.088400
      6 CA          4.7930    0.4150   -3.4270 c3        1 1UF      0.066700
      7 C           5.9250    1.1770   -4.1110 c         1 1UF      0.609100
      8 OXT         6.9270    0.4010   -4.6090 oh        1 1UF     -0.611100
      9 O           6.0440    2.3970   -4.2320 o         1 1UF     -0.528000
     10 N           4.3460   -0.7240   -4.1820 ns        1 1UF     -0.564900
     11 CAV         3.0740   -0.7810   -4.7350 c         1 1UF      0.682700
     12 OAE         2.2120    0.0730   -4.4520 o         1 1UF     -0.587100
     13 CBA         2.7630   -1.9590   -5.5930 ca        1 1UF     -0.161600
     14 CAZ         3.5250   -2.3330   -6.7060 ca        1 1UF      0.062400
     15 Cl1         4.8920   -1.4390   -7.1830 cl        1 1UF     -0.088400
     16 CAL         3.1640   -3.4450   -7.4710 ca        1 1UF     -0.138000
     17 CAK         1.6210   -2.7070   -5.2690 ca        1 1UF     -0.058000
     18 CAJ         1.2650   -3.8160   -6.0230 ca        1 1UF     -0.136000
     19 CAY         2.0370   -4.1990   -7.1340 ca        1 1UF      0.012900
     20 SAS         1.4770   -5.5590   -7.9610 ss        1 1UF     -0.009800
     21 CBB         2.5420   -5.8480   -9.2170 cc        1 1UF     -0.098100
     22 CBE         3.8230   -6.5020   -9.1970 cc        1 1UF     -0.234600
     23 CBC         4.6730   -7.0090   -8.1430 c         1 1UF      0.747100
     24 OAF         4.4850   -6.9810   -6.9160 o         1 1UF     -0.609500
     25 NAQ         5.8770   -7.6170   -8.5920 ns        1 1UF     -0.507400
     26 CAW         6.2300   -7.6800   -9.9540 cc        1 1UF      0.681800
     27 NAB         7.5100   -8.1880  -10.2710 nv        1 1UF     -0.891800
     28 NAO         5.4440   -7.2340  -10.9630 nd        1 1UF     -0.681100
     29 CBD         4.2610   -6.6390  -10.5530 cd        1 1UF      0.198100
     30 NAR         3.2840   -6.0830  -11.3810 na        1 1UF     -0.164100
     31 CAX         2.2470   -5.6000  -10.5770 cd        1 1UF     -0.023600
     32 CAA         1.0460   -4.9520  -11.1390 c3        1 1UF     -0.054800
     33 H2          3.5880   -1.2210   -1.5820 hc        1 1UF      0.088700
     34 H3          3.4480    0.4790   -0.9700 hc        1 1UF      0.088700
     35 H4          6.0760   -0.7550   -2.0840 hc        1 1UF      0.066700
     36 H5          5.7980    0.9640   -1.5850 hc        1 1UF      0.066700
     37 H6          3.9290    1.1460   -3.3250 h1        1 1UF      0.128700
     38 H8          5.4440   -2.3970   -0.5570 ho        1 1UF      0.425000
     39 H9          3.7750   -3.7360   -8.3410 ha        1 1UF      0.160000
     40 H10         1.0040   -2.3960   -4.4100 ha        1 1UF      0.154000
     41 H11         0.3730   -4.4020   -5.7510 ha        1 1UF      0.150000
     42 H12         6.5150   -7.9320   -7.8930 hn        1 1UF      0.336500
     43 H13         7.6030    0.9630   -5.0230 ho        1 1UF      0.449000
     44 H14         7.6780   -8.3180  -11.2460 hn        1 1UF      0.421300
     45 H15         3.3190   -6.0470  -12.3680 hn        1 1UF      0.314700
     46 H16         0.3960   -4.5960  -10.3000 hc        1 1UF      0.065367
     47 H17         0.4610   -5.6740  -11.7620 hc        1 1UF      0.065367
     48 H18         1.3250   -4.0750  -11.7760 hc        1 1UF      0.065367
     49 H21         5.0490   -1.3470   -4.5100 hn        1 1UF      0.329500
     50 HAB3        7.8270   -8.9390   -9.7000 hn        1 1UF      0.421300
@<TRIPOS>BOND
     1    1    2 2   
     2    2    3 1   
     3    2    4 1   
     4    3   38 1   
     5    4    5 1   
     6    4   33 1   
     7    4   34 1   
     8    5    6 1   
     9    5   35 1   
    10    5   36 1   
    11    6    7 1   
    12    6   10 1   
    13    6   37 1   
    14    7    8 1   
    15    7    9 2   
    16    8   43 1   
    17   10   11 1   
    18   10   49 1   
    19   11   12 2   
    20   11   13 1   
    21   13   14 ar  
    22   13   17 ar  
    23   14   15 1   
    24   14   16 ar  
    25   16   19 ar  
    26   16   39 1   
    27   17   18 ar  
    28   17   40 1   
    29   18   19 ar  
    30   18   41 1   
    31   19   20 1   
    32   20   21 1   
    33   21   22 1   
    34   21   31 2   
    35   22   23 1   
    36   22   29 2   
    37   23   24 2   
    38   23   25 1   
    39   25   26 1   
    40   25   42 1   
    41   26   27 1   
    42   26   28 2   
    43   27   44 1   
    44   27   50 1   
    45   28   29 1   
    46   29   30 1   
    47   30   31 1   
    48   30   45 1   
    49   31   32 1   
    50   32   46 1   
    51   32   47 1   
    52   32   48 1   
@<TRIPOS>SUBSTRUCTURE
     1 1UF         1 TEMP              0 ****  ****    0 ROOT
