@<TRIPOS>MOLECULE
1UF
   50    52     1     0     0
SMALL
bcc


@<TRIPOS>ATOM
      1 OE1         4.5830   -2.4500    0.2870 oh        1 1UF     -0.583100
      2 CD          3.9410   -1.2450    0.3690 c         1 1UF      0.624100
      3 OE2         3.8070   -0.8360    1.5210 o         1 1UF     -0.484000
      4 CG          3.4740   -0.5780   -0.8900 c3        1 1UF     -0.181400
      5 CB          4.6460   -0.0840   -1.7120 c3        1 1UF     -0.091400
      6 CA          4.1960    0.2420   -3.1510 c3        1 1UF      0.070700
      7 C           5.2160    1.2210   -3.7230 c         1 1UF      0.616100
      8 OXT         6.3430    0.6590   -4.2390 oh        1 1UF     -0.610100
      9 O           5.1400    2.4500   -3.7400 o         1 1UF     -0.530000
     10 N           4.0180   -0.9220   -3.9780 n         1 1UF     -0.570900
     11 CAV         2.7600   -1.3790   -4.3340 c         1 1UF      0.684700
     12 OAE         1.7360   -0.8970   -3.8090 o         1 1UF     -0.598100
     13 CBA         2.6930   -2.5190   -5.2890 ca        1 1UF     -0.162600
     14 CAZ         3.3370   -2.5320   -6.5320 ca        1 1UF      0.064400
     15 CL1         4.2590   -1.2040   -7.0670 cl        1 1UF     -0.088400
     16 CAL         3.2180   -3.6350   -7.3810 ca        1 1UF     -0.138000
     17 CAK         1.9100   -3.6230   -4.9190 ca        1 1UF     -0.059000
     18 CAJ         1.7960   -4.7220   -5.7570 ca        1 1UF     -0.136000
     19 CAY         2.4530   -4.7410   -7.0000 ca        1 1UF      0.012900
     20 SAS         2.2130   -6.1370   -7.9180 ss        1 1UF     -0.008800
     21 CBB         3.0930   -5.9600   -9.3280 cc        1 1UF     -0.099100
     22 CBE         4.4990   -6.1610   -9.5590 cc        1 1UF     -0.234600
     23 CBC         5.6250   -6.4490   -8.6990 c         1 1UF      0.747100
     24 OAF         5.6400   -6.5860   -7.4650 o         1 1UF     -0.609500
     25 NAQ         6.8670   -6.5940   -9.3750 n         1 1UF     -0.507400
     26 CAW         6.9930   -6.4260  -10.7680 cc        1 1UF      0.682800
     27 NAB         8.2970   -6.4630  -11.3110 nh        1 1UF     -0.891800
     28 NAO         5.9540   -6.1790  -11.6000 nd        1 1UF     -0.681100
     29 CBD         4.7290   -6.0370  -10.9660 cd        1 1UF      0.198100
     30 NAR         3.5060   -5.7620  -11.5820 na        1 1UF     -0.164100
     31 CAX         2.5170   -5.7100  -10.5940 cd        1 1UF     -0.023600
     32 CAA         1.1000   -5.4440  -10.9070 c3        1 1UF     -0.054800
     33 H2          2.8510   -1.3030   -1.4820 hc        1 1UF      0.092200
     34 H3          2.8080    0.2840   -0.6150 hc        1 1UF      0.092200
     35 H4          5.4700   -0.8450   -1.7270 hc        1 1UF      0.067200
     36 H5          5.0590    0.8520   -1.2490 hc        1 1UF      0.067200
     37 H6          3.2080    0.8020   -3.0950 h1        1 1UF      0.123700
     38 H8          4.8270   -1.2950   -4.4210 hn        1 1UF      0.335500
     39 H9          3.7360   -3.6380   -8.3550 ha        1 1UF      0.160000
     40 H10         1.3770   -3.6010   -3.9540 ha        1 1UF      0.154000
     41 H11         1.1880   -5.5880   -5.4500 ha        1 1UF      0.150000
     42 H12         7.6760   -6.7410   -8.8120 hn        1 1UF      0.336500
     43 H13         8.9210   -7.1130  -10.8880 hn        1 1UF      0.421300
     44 H14         6.9340    1.3550   -4.5720 ho        1 1UF      0.451000
     45 H15         3.3650   -5.6350  -12.5510 hn        1 1UF      0.314700
     46 H16         0.9860   -4.4750  -11.4540 hc        1 1UF      0.065367
     47 H17         0.6720   -6.2630  -11.5390 hc        1 1UF      0.065367
     48 H18         0.5180   -5.3890   -9.9510 hc        1 1UF      0.065367
     49 H21         4.6470   -2.7250   -0.6380 ho        1 1UF      0.425000
     50 HAB3        8.3350   -6.4500  -12.3080 hn        1 1UF      0.421300
@<TRIPOS>BOND
     1    1    2 1   
     2    1   49 1   
     3    2    3 2   
     4    2    4 1   
     5    4    5 1   
     6    4   33 1   
     7    4   34 1   
     8    5    6 1   
     9    5   35 1   
    10    5   36 1   
    11    6    7 1   
    12    6   10 1   
    13    6   37 1   
    14    7    8 1   
    15    7    9 2   
    16    8   44 1   
    17   10   11 1   
    18   10   38 1   
    19   11   12 2   
    20   11   13 1   
    21   13   14 ar  
    22   13   17 ar  
    23   14   15 1   
    24   14   16 ar  
    25   16   19 ar  
    26   16   39 1   
    27   17   18 ar  
    28   17   40 1   
    29   18   19 ar  
    30   18   41 1   
    31   19   20 1   
    32   20   21 1   
    33   21   22 1   
    34   21   31 2   
    35   22   23 1   
    36   22   29 2   
    37   23   24 2   
    38   23   25 1   
    39   25   26 1   
    40   25   42 1   
    41   26   27 1   
    42   26   28 2   
    43   27   43 1   
    44   27   50 1   
    45   28   29 1   
    46   29   30 1   
    47   30   31 1   
    48   30   45 1   
    49   31   32 1   
    50   32   46 1   
    51   32   47 1   
    52   32   48 1   
@<TRIPOS>SUBSTRUCTURE
     1 1UF         1 TEMP              0 ****  ****    0 ROOT
