@<TRIPOS>MOLECULE
1UF
   48    42     1     0     0
SMALL
bcc


@<TRIPOS>ATOM
      1 OE1         4.2600   -3.6810   -6.7680 o         1 1UF     -0.608000
      2 CD          3.0450   -3.9980   -6.6380 c1        1 1UF      0.324000
      3 OE2         2.6160   -5.0720   -7.1420 o         1 1UF     -0.608000
      4 CG          2.0820   -3.0520   -5.9260 c2        1 1UF     -0.212000
      5 CB          2.2860   -3.1600   -4.4100 c3        1 1UF     -0.130000
      6 CA          0.9820   -3.5740   -3.7520 c3        1 1UF     -0.081000
      7 C           1.0770   -5.0120   -3.3060 c2        1 1UF      0.319000
      8 OXT         0.3500   -5.4290   -2.3620 o         1 1UF     -0.591000
      9 O           1.8640   -5.8070   -3.8980 o         1 1UF     -0.591000
     10 N           0.7320   -2.7370   -2.6170 n         1 1UF     -0.270000
     11 CAV        -0.5160   -1.9960   -2.5210 c2        1 1UF      0.330000
     12 OAE        -1.3700   -2.1270   -3.3820 o         1 1UF     -0.370000
     13 CBA        -0.7150   -0.9610   -1.3850 c2        1 1UF     -0.080000
     14 CAZ         0.3190   -0.0920   -1.0480 c2        1 1UF     -0.040000
     15 CL1         1.8770   -0.2500   -1.8190 cl        1 1UF     -0.013000
     16 CAL         0.1110    0.9030   -0.0950 c1        1 1UF     -0.116000
     17 CAK        -1.9590   -0.8360   -0.7690 c1        1 1UF     -0.105000
     18 CAJ        -2.1680    0.1620    0.1870 c1        1 1UF     -0.111000
     19 CAY        -1.1360    1.0300    0.5230 c1        1 1UF     -0.298000
     20 SAS        -1.4620    2.4320    1.6020 s         1 1UF      0.411000
     21 CBB        -1.8530    1.8420    3.2510 c2        1 1UF     -0.261000
     22 CBE        -0.9580    2.8680    3.5020 c1        1 1UF     -0.222000
     23 CBC        -0.1900    3.7830    2.5820 c1        1 1UF      0.386000
     24 OAF        -0.3400    3.7000    1.3790 o         1 1UF     -0.354000
     25 NAQ         0.6170    4.7970    3.1200 n3        1 1UF     -0.345000
     26 CAW         0.7100    4.9600    4.5380 c2        1 1UF      0.187000
     27 NAB         1.5740    5.9480    5.0830 n3        1 1UF     -0.313000
     28 NAO        -0.0280    4.0800    5.4170 n1        1 1UF     -0.238000
     29 CBD        -0.9080    3.0630    4.8610 c1        1 1UF      0.053000
     30 NAR        -1.7760    2.1560    5.4570 n2        1 1UF     -0.151000
     31 CAX        -2.3560    1.4070    4.4660 c1        1 1UF     -0.052000
     32 CAA        -3.6230    0.6310    4.8640 c2        1 1UF     -0.176000
     33 H2          1.1590   -3.2960   -6.1500 ha        1 1UF      0.060500
     34 H3          2.2570   -2.1280   -6.2150 ha        1 1UF      0.060500
     35 H4          2.5710   -2.2900   -4.0550 hc        1 1UF      0.092500
     36 H5          2.9770   -3.8330   -4.2200 hc        1 1UF      0.092500
     37 H6          0.2460   -3.4790   -4.3970 h1        1 1UF      0.109000
     38 H8          1.3680   -2.6510   -1.9620 hn        1 1UF      0.199000
     39 H9          0.8400    1.5150    0.1420 ha        1 1UF      0.140000
     40 H10        -2.6870   -1.4480   -1.0070 ha        1 1UF      0.234000
     41 H11        -3.0570    0.2790    0.5860 ha        1 1UF      0.140000
     42 H12         1.0690    5.3700    2.5600 hn        1 1UF      0.240000
     43 H13         2.0540    6.4950    4.5260 hn        1 1UF      0.189000
     44 H14         1.6710    6.0200    5.9890 hn        1 1UF      0.189000
     45 H15        -1.9330    2.0730    6.3590 DU        1 1UF      0.259000
     46 H16        -3.7140   -0.1640    4.2910 ha        1 1UF      0.108333
     47 H17        -4.4100    1.2080    4.7510 ha        1 1UF      0.108333
     48 H18        -3.5540    0.3500    5.8060 ha        1 1UF      0.108333
@<TRIPOS>BOND
     1    1    2 1   
     2    2    3 1   
     3    4    5 1   
     4    4   33 1   
     5    4   34 1   
     6    5    6 1   
     7    5   35 1   
     8    5   36 1   
     9    6    7 1   
    10    6   10 1   
    11    6   37 1   
    12    7    8 1   
    13    7    9 1   
    14   10   11 1   
    15   10   38 1   
    16   11   12 1   
    17   11   13 1   
    18   13   14 1   
    19   13   17 1   
    20   14   15 1   
    21   14   16 1   
    22   16   39 1   
    23   17   40 1   
    24   18   19 1   
    25   18   41 1   
    26   20   21 1   
    27   21   22 1   
    28   21   31 1   
    29   22   29 1   
    30   23   24 1   
    31   23   25 1   
    32   25   26 1   
    33   25   42 1   
    34   26   27 1   
    35   26   28 1   
    36   27   43 1   
    37   27   44 1   
    38   29   30 1   
    39   30   31 1   
    40   32   46 1   
    41   32   47 1   
    42   32   48 1   
@<TRIPOS>SUBSTRUCTURE
     1 1UF         1 TEMP              0 ****  ****    0 ROOT
