@<TRIPOS>MOLECULE
1UG
   41    45     1     0     0
SMALL
bcc


@<TRIPOS>ATOM
      1 CAG        -0.1300    0.2070    0.1560 ca        1 1UG     -0.042000
      2 CAE         1.2660    0.0770   -0.0160 ca        1 1UG     -0.158000
      3 CAJ         2.0820   -0.0770    1.0780 ca        1 1UG     -0.062000
      4 CAU         1.5330   -0.1120    2.3890 ca        1 1UG     -0.056000
      5 CAI         2.3680   -0.2750    3.5290 ca        1 1UG     -0.106000
      6 CAC         1.8270   -0.3170    4.7900 ca        1 1UG     -0.126000
      7 CAD         0.4270   -0.2010    4.9660 ca        1 1UG     -0.104000
      8 CAL        -0.4010   -0.0420    3.8820 ca        1 1UG     -0.138000
      9 CAX         0.1290    0.0120    2.5630 ca        1 1UG      0.009000
     10 CAR        -0.7000    0.1760    1.4130 ca        1 1UG     -0.097100
     11 SAP        -2.4030    0.1760    1.5320 ss        1 1UG     -0.013800
     12 CAS        -2.8730    1.7820    1.6960 ca        1 1UG      0.028900
     13 CAY        -4.2500    2.0900    1.7690 ca        1 1UG     -0.055800
     14 CAZ        -5.4680    1.3340    1.7390 cc        1 1UG     -0.146400
     15 CAT        -5.7690   -0.0760    1.6200 c         1 1UG      0.742700
     16 OAB        -5.0190   -1.0480    1.5090 o         1 1UG     -0.537500
     17 NAN        -7.1730   -0.3980    1.6340 ns        1 1UG     -0.498400
     18 CAQ        -8.1250    0.6100    1.7560 cc        1 1UG      0.490800
     19 NAA        -9.5690    0.2050    1.7630 nz        1 1UG     -0.794600
     20 NAM        -7.8980    1.9190    1.8690 nd        1 1UG     -0.550300
     21 CAW        -6.5550    2.2720    1.8590 cd        1 1UG      0.145500
     22 NAO        -6.0470    3.5660    1.9620 na        1 1UG     -0.138400
     23 CAV        -4.6520    3.4810    1.9090 ca        1 1UG      0.004800
     24 CAK        -3.7180    4.5260    1.9750 ca        1 1UG     -0.173000
     25 CAF        -2.3780    4.1800    1.9000 ca        1 1UG     -0.047000
     26 CAH        -1.9700    2.8460    1.7640 ca        1 1UG     -0.165000
     27 H1         -0.7660    0.3290   -0.7370 ha        1 1UG      0.145000
     28 H2          1.6840    0.1000   -1.0330 ha        1 1UG      0.147000
     29 H3          3.1730   -0.1770    0.9590 ha        1 1UG      0.145000
     30 H4          3.4540   -0.3680    3.3770 ha        1 1UG      0.142000
     31 H5          2.4700   -0.4440    5.6740 ha        1 1UG      0.143000
     32 H6          0.0120   -0.2440    5.9840 ha        1 1UG      0.139000
     33 H7         -1.4920    0.0370    4.0130 ha        1 1UG      0.143000
     34 H8         -7.4230   -1.3600    1.5530 hn        1 1UG      0.346500
     35 H9         -9.7440   -0.4230    2.5550 hn        1 1UG      0.479467
     36 H10        -9.7960   -0.2690    0.8810 hn        1 1UG      0.479467
     37 H11        -6.5780    4.3950    2.0550 hn        1 1UG      0.329700
     38 H12        -4.0360    5.5710    2.0810 ha        1 1UG      0.154000
     39 H13        -1.6100    4.9700    1.9490 ha        1 1UG      0.154000
     40 H14        -0.8880    2.6330    1.7140 ha        1 1UG      0.162000
     41 HAA3      -10.1630    1.0430    1.8580 hn        1 1UG      0.479467
@<TRIPOS>BOND
     1    1    2 ar  
     2    1   10 ar  
     3    1   27 1   
     4    2    3 ar  
     5    2   28 1   
     6    3    4 ar  
     7    3   29 1   
     8    4    5 ar  
     9    4    9 ar  
    10    5    6 ar  
    11    5   30 1   
    12    6    7 ar  
    13    6   31 1   
    14    7    8 ar  
    15    7   32 1   
    16    8    9 ar  
    17    8   33 1   
    18    9   10 ar  
    19   10   11 1   
    20   11   12 1   
    21   12   13 ar  
    22   12   26 ar  
    23   13   14 1   
    24   13   23 ar  
    25   14   15 1   
    26   14   21 2   
    27   15   16 2   
    28   15   17 1   
    29   17   18 1   
    30   17   34 1   
    31   18   19 1   
    32   18   20 2   
    33   19   35 1   
    34   19   36 1   
    35   19   41 1   
    36   20   21 1   
    37   21   22 1   
    38   22   23 1   
    39   22   37 1   
    40   23   24 ar  
    41   24   25 ar  
    42   24   38 1   
    43   25   26 ar  
    44   25   39 1   
    45   26   40 1   
@<TRIPOS>SUBSTRUCTURE
     1 1UG         1 TEMP              0 ****  ****    0 ROOT
