@<TRIPOS>MOLECULE
1UG
   41    45     1     0     0
SMALL
bcc


@<TRIPOS>ATOM
      1 CAG        -0.1300    0.2100    0.1570 ca        1 1UG     -0.042000
      2 CAE         1.2660    0.0810   -0.0150 ca        1 1UG     -0.158000
      3 CAJ         2.0830   -0.0740    1.0790 ca        1 1UG     -0.062000
      4 CAU         1.5340   -0.1110    2.3890 ca        1 1UG     -0.056000
      5 CAI         2.3680   -0.2740    3.5300 ca        1 1UG     -0.106000
      6 CAC         1.8270   -0.3170    4.7900 ca        1 1UG     -0.126000
      7 CAD         0.4270   -0.2020    4.9660 ca        1 1UG     -0.104000
      8 CAL        -0.4010   -0.0430    3.8820 ca        1 1UG     -0.138000
      9 CAX         0.1290    0.0130    2.5640 ca        1 1UG      0.009000
     10 CAR        -0.6990    0.1780    1.4140 ca        1 1UG     -0.097100
     11 SAP        -2.4020    0.1770    1.5320 ss        1 1UG     -0.013800
     12 CAS        -2.8730    1.7830    1.6960 ca        1 1UG      0.028900
     13 CAY        -4.2500    2.0900    1.7690 ca        1 1UG     -0.055800
     14 CAZ        -5.4680    1.3330    1.7380 cc        1 1UG     -0.146400
     15 CAT        -5.7690   -0.0770    1.6190 c         1 1UG      0.742700
     16 OAB        -5.0180   -1.0490    1.5080 o         1 1UG     -0.537500
     17 NAN        -7.1720   -0.4000    1.6320 n         1 1UG     -0.498400
     18 CAQ        -8.1240    0.6080    1.7540 cc        1 1UG      0.490800
     19 NAA        -9.5690    0.2030    1.7600 n4        1 1UG     -0.794600
     20 NAM        -7.8980    1.9170    1.8670 nd        1 1UG     -0.550300
     21 CAW        -6.5560    2.2700    1.8590 cd        1 1UG      0.145500
     22 NAO        -6.0480    3.5650    1.9620 na        1 1UG     -0.138400
     23 CAV        -4.6530    3.4800    1.9100 ca        1 1UG      0.004800
     24 CAK        -3.7190    4.5250    1.9770 ca        1 1UG     -0.173000
     25 CAF        -2.3790    4.1800    1.9020 ca        1 1UG     -0.047000
     26 CAH        -1.9710    2.8470    1.7660 ca        1 1UG     -0.165000
     27 H1         -0.7650    0.3320   -0.7370 ha        1 1UG      0.145000
     28 H2          1.6850    0.1040   -1.0320 ha        1 1UG      0.147000
     29 H3          3.1740   -0.1740    0.9600 ha        1 1UG      0.145000
     30 H4          3.4540   -0.3670    3.3780 ha        1 1UG      0.142000
     31 H5          2.4700   -0.4450    5.6750 ha        1 1UG      0.143000
     32 H6          0.0110   -0.2460    5.9850 ha        1 1UG      0.139000
     33 H7         -1.4920    0.0360    4.0130 ha        1 1UG      0.143000
     34 H8         -7.4220   -1.3620    1.5510 hn        1 1UG      0.346500
     35 H9         -9.7440   -0.4260    2.5510 hn        1 1UG      0.479467
     36 H10        -9.7950   -0.2710    0.8780 hn        1 1UG      0.479467
     37 H11        -6.5800    4.3940    2.0550 hn        1 1UG      0.329700
     38 H12        -4.0380    5.5710    2.0830 ha        1 1UG      0.154000
     39 H13        -1.6120    4.9710    1.9520 ha        1 1UG      0.154000
     40 H14        -0.8890    2.6340    1.7160 ha        1 1UG      0.162000
     41 HAA3      -10.1630    1.0400    1.8550 hn        1 1UG      0.479467
@<TRIPOS>BOND
     1    1    2 ar  
     2    1   10 ar  
     3    1   27 1   
     4    2    3 ar  
     5    2   28 1   
     6    3    4 ar  
     7    3   29 1   
     8    4    5 ar  
     9    4    9 ar  
    10    5    6 ar  
    11    5   30 1   
    12    6    7 ar  
    13    6   31 1   
    14    7    8 ar  
    15    7   32 1   
    16    8    9 ar  
    17    8   33 1   
    18    9   10 ar  
    19   10   11 1   
    20   11   12 1   
    21   12   13 ar  
    22   12   26 ar  
    23   13   14 1   
    24   13   23 ar  
    25   14   15 1   
    26   14   21 2   
    27   15   16 2   
    28   15   17 1   
    29   17   18 1   
    30   17   34 1   
    31   18   19 1   
    32   18   20 2   
    33   19   35 1   
    34   19   36 1   
    35   19   41 1   
    36   20   21 1   
    37   21   22 1   
    38   22   23 1   
    39   22   37 1   
    40   23   24 ar  
    41   24   25 ar  
    42   24   38 1   
    43   25   26 ar  
    44   25   39 1   
    45   26   40 1   
@<TRIPOS>SUBSTRUCTURE
     1 1UG         1 TEMP              0 ****  ****    0 ROOT
