@<TRIPOS>MOLECULE
1UG
   41    45     1     0     0
SMALL
bcc


@<TRIPOS>ATOM
      1 CAG        -0.1300    0.2320    0.1600 ca        1 1UG     -0.042000
      2 CAE         1.2660    0.1070   -0.0110 ca        1 1UG     -0.158000
      3 CAJ         2.0820   -0.0500    1.0840 ca        1 1UG     -0.062000
      4 CAU         1.5310   -0.0940    2.3930 ca        1 1UG     -0.056000
      5 CAI         2.3650   -0.2600    3.5340 ca        1 1UG     -0.106000
      6 CAC         1.8220   -0.3100    4.7940 ca        1 1UG     -0.126000
      7 CAD         0.4220   -0.1990    4.9690 ca        1 1UG     -0.104000
      8 CAL        -0.4050   -0.0370    3.8850 ca        1 1UG     -0.138000
      9 CAX         0.1260    0.0250    2.5670 ca        1 1UG      0.009000
     10 CAR        -0.7010    0.1930    1.4170 ca        1 1UG     -0.097100
     11 SAP        -2.4050    0.1870    1.5320 ss        1 1UG     -0.013800
     12 CAS        -2.8790    1.7890    1.7110 ca        1 1UG      0.028900
     13 CAY        -4.2570    2.0920    1.7850 ca        1 1UG     -0.055800
     14 CAZ        -5.4730    1.3330    1.7440 cc        1 1UG     -0.146400
     15 CAT        -5.7710   -0.0760    1.6100 c         1 1UG      0.742700
     16 OAB        -5.0170   -1.0450    1.4900 o         1 1UG     -0.537500
     17 NAN        -7.1730   -0.4030    1.6170 n         1 1UG     -0.498400
     18 CAQ        -8.1280    0.6020    1.7480 cc        1 1UG      0.490800
     19 NAA        -9.5720    0.1930    1.7480 n4        1 1UG     -0.794600
     20 NAM        -7.9060    1.9100    1.8750 nd        1 1UG     -0.550300
     21 CAW        -6.5640    2.2670    1.8720 cd        1 1UG      0.145500
     22 NAO        -6.0600    3.5610    1.9890 na        1 1UG     -0.138400
     23 CAV        -4.6640    3.4800    1.9380 ca        1 1UG      0.004800
     24 CAK        -3.7330    4.5270    2.0170 ca        1 1UG     -0.173000
     25 CAF        -2.3920    4.1860    1.9410 ca        1 1UG     -0.047000
     26 CAH        -1.9800    2.8550    1.7930 ca        1 1UG     -0.165000
     27 H1         -0.7650    0.3560   -0.7340 ha        1 1UG      0.145000
     28 H2          1.6860    0.1360   -1.0270 ha        1 1UG      0.147000
     29 H3          3.1730   -0.1470    0.9650 ha        1 1UG      0.145000
     30 H4          3.4520   -0.3490    3.3830 ha        1 1UG      0.142000
     31 H5          2.4640   -0.4390    5.6780 ha        1 1UG      0.143000
     32 H6          0.0050   -0.2490    5.9870 ha        1 1UG      0.139000
     33 H7         -1.4970    0.0380    4.0140 ha        1 1UG      0.143000
     34 H8         -7.4210   -1.3650    1.5260 hn        1 1UG      0.346500
     35 H9         -9.7950   -0.2730    0.8610 hn        1 1UG      0.479467
     36 H10       -10.1680    1.0280    1.8510 hn        1 1UG      0.479467
     37 H11        -6.5930    4.3880    2.0890 hn        1 1UG      0.329700
     38 H12        -4.0550    5.5710    2.1330 ha        1 1UG      0.154000
     39 H13        -1.6270    4.9780    2.0000 ha        1 1UG      0.154000
     40 H14        -0.8970    2.6460    1.7420 ha        1 1UG      0.162000
     41 HAA3       -9.7460   -0.4450    2.5330 hn        1 1UG      0.479467
@<TRIPOS>BOND
     1    1    2 ar  
     2    1   10 ar  
     3    1   27 1   
     4    2    3 ar  
     5    2   28 1   
     6    3    4 ar  
     7    3   29 1   
     8    4    5 ar  
     9    4    9 ar  
    10    5    6 ar  
    11    5   30 1   
    12    6    7 ar  
    13    6   31 1   
    14    7    8 ar  
    15    7   32 1   
    16    8    9 ar  
    17    8   33 1   
    18    9   10 ar  
    19   10   11 1   
    20   11   12 1   
    21   12   13 ar  
    22   12   26 ar  
    23   13   14 1   
    24   13   23 ar  
    25   14   15 1   
    26   14   21 2   
    27   15   16 2   
    28   15   17 1   
    29   17   18 1   
    30   17   34 1   
    31   18   19 1   
    32   18   20 2   
    33   19   35 1   
    34   19   36 1   
    35   19   41 1   
    36   20   21 1   
    37   21   22 1   
    38   22   23 1   
    39   22   37 1   
    40   23   24 ar  
    41   24   25 ar  
    42   24   38 1   
    43   25   26 ar  
    44   25   39 1   
    45   26   40 1   
@<TRIPOS>SUBSTRUCTURE
     1 1UG         1 TEMP              0 ****  ****    0 ROOT
