@<TRIPOS>MOLECULE
1UH
   51    56     1     0     0
SMALL
bcc


@<TRIPOS>ATOM
      1 N19         0.0960    0.0630    0.2900 nv        1 1UH     -0.916500
      2 C18         1.4780   -0.1480    0.2720 ca        1 1UH      0.647200
      3 C12         2.2410   -0.0280    1.4640 ca        1 1UH     -0.111200
      4 O11         1.7440    0.1810    2.7520 os        1 1UH     -0.192200
      5 N17         2.1480   -0.3970   -0.8960 nb        1 1UH     -0.710000
      6 C16         3.4900   -0.4790   -0.8720 ca        1 1UH      0.416200
      7 C15         4.3240   -0.3570    0.2640 ca        1 1UH     -0.103300
      8 C13         3.6610   -0.1320    1.4790 ca        1 1UH     -0.027800
      9 C14         4.0430    0.0190    2.8690 cc        1 1UH     -0.169200
     10 C10         2.8800    0.2040    3.5920 cd        1 1UH      0.101900
     11 C3          2.6610    0.3900    5.0090 ca        1 1UH     -0.010800
     12 C5          3.5770   -0.1800    5.8960 ca        1 1UH     -0.097000
     13 C6          3.4410   -0.0270    7.2850 ca        1 1UH     -0.141000
     14 C4          2.3900    0.7020    7.8140 ca        1 1UH     -0.075000
     15 C1          1.5860    1.1330    5.5320 ca        1 1UH     -0.058100
     16 S9          0.3350    1.9550    4.7460 ss        1 1UH      0.081500
     17 C8         -0.3620    2.5010    6.1750 cc        1 1UH     -0.165400
     18 C7          0.3130    2.0870    7.2880 cd        1 1UH     -0.132200
     19 C2          1.4600    1.2860    6.9440 ca        1 1UH     -0.087800
     20 C20         5.7460   -0.4640    0.1460 cc        1 1UH     -0.200300
     21 C24         6.4830   -1.1670   -0.8290 cd        1 1UH     -0.132300
     22 N23         7.8350   -0.9660   -0.5340 na        1 1UH      0.091400
     23 N22         7.9990   -0.1870    0.5490 nd        1 1UH     -0.510800
     24 C21         6.7610    0.1380    0.9910 cc        1 1UH      0.308200
     25 C25         8.9430   -1.5280   -1.3060 c3        1 1UH      0.064000
     26 C30         8.9270   -3.0650   -1.3010 c3        1 1UH     -0.093400
     27 C29        10.1180   -3.5960   -2.0960 c3        1 1UH      0.163800
     28 N28        10.1810   -3.0720   -3.4450 n7        1 1UH     -0.824200
     29 C27        10.1340   -1.6250   -3.5090 c3        1 1UH      0.163800
     30 C26         8.9440   -1.0300   -2.7600 c3        1 1UH     -0.093400
     31 H1         -0.3290   -0.1560    1.1630 hn        1 1UH      0.410300
     32 H2         -0.4040   -0.2590   -0.5090 hn        1 1UH      0.410300
     33 H3          3.9460   -0.6650   -1.8630 h4        1 1UH      0.021100
     34 H4          5.0590   -0.0120    3.2530 ha        1 1UH      0.170000
     35 H5          4.4210   -0.7660    5.5000 ha        1 1UH      0.140000
     36 H6          4.1830   -0.4940    7.9500 ha        1 1UH      0.137000
     37 H7          2.2760    0.8280    8.9010 ha        1 1UH      0.139000
     38 H8         -1.2610    3.1180    6.1700 h4        1 1UH      0.172000
     39 H9          0.0480    2.3150    8.3230 ha        1 1UH      0.156000
     40 H10         6.1540   -1.7760   -1.6710 h4        1 1UH      0.179000
     41 H11         6.6040    0.7810    1.8580 h4        1 1UH      0.045100
     42 H12         9.9070   -1.1860   -0.8180 h1        1 1UH      0.085700
     43 H13         7.9700   -3.4420   -1.7470 hc        1 1UH      0.060950
     44 H14         8.9970   -3.4510   -0.2520 hc        1 1UH      0.060950
     45 H15        11.0590   -3.3740   -1.5090 h1        1 1UH      0.034200
     46 H16        10.0250   -4.7170   -2.1760 h1        1 1UH      0.034200
     47 H17        11.0020   -3.4110   -3.9100 hn        1 1UH      0.368800
     48 H19        11.0770   -1.1510   -3.1030 h1        1 1UH      0.034200
     49 H20        10.0520   -1.3400   -4.5960 h1        1 1UH      0.034200
     50 H21         9.0260    0.0870   -2.7880 hc        1 1UH      0.060950
     51 H22         7.9870   -1.3210   -3.2670 hc        1 1UH      0.060950
@<TRIPOS>BOND
     1    1    2 1   
     2    1   31 1   
     3    1   32 1   
     4    2    3 ar  
     5    2    5 ar  
     6    3    4 1   
     7    3    8 ar  
     8    4   10 1   
     9    5    6 ar  
    10    6    7 ar  
    11    6   33 1   
    12    7    8 ar  
    13    7   20 1   
    14    8    9 1   
    15    9   10 2   
    16    9   34 1   
    17   10   11 1   
    18   11   12 ar  
    19   11   15 ar  
    20   12   13 ar  
    21   12   35 1   
    22   13   14 ar  
    23   13   36 1   
    24   14   19 ar  
    25   14   37 1   
    26   15   16 1   
    27   15   19 ar  
    28   16   17 1   
    29   17   18 2   
    30   17   38 1   
    31   18   19 1   
    32   18   39 1   
    33   20   21 2   
    34   20   24 1   
    35   21   22 1   
    36   21   40 1   
    37   22   23 1   
    38   22   25 1   
    39   23   24 2   
    40   24   41 1   
    41   25   26 1   
    42   25   30 1   
    43   25   42 1   
    44   26   27 1   
    45   26   43 1   
    46   26   44 1   
    47   27   28 1   
    48   27   45 1   
    49   27   46 1   
    50   28   29 1   
    51   28   47 1   
    52   29   30 1   
    53   29   48 1   
    54   29   49 1   
    55   30   50 1   
    56   30   51 1   
@<TRIPOS>SUBSTRUCTURE
     1 1UH         1 TEMP              0 ****  ****    0 ROOT
