@<TRIPOS>MOLECULE
1UH
   51    40     1     0     0
SMALL
bcc


@<TRIPOS>ATOM
      1 N19        -5.5540    0.6210   -1.2490 n3        1 1UH     -0.314000
      2 C18        -4.0940    0.3880   -1.0930 c1        1 1UH      0.125000
      3 C12        -3.2510    0.4750    0.0300 c1        1 1UH     -0.090000
      4 O11        -3.5230    0.5520    1.3940 o         1 1UH     -0.106000
      5 N17        -3.5590    0.2110   -2.3350 n1        1 1UH     -0.184000
      6 C16        -2.2020    0.1160   -2.4890 c1        1 1UH     -0.049000
      7 C15        -1.3730    0.2010   -1.3860 c1        1 1UH     -0.038000
      8 C13        -1.9160    0.3810   -0.1230 c1        1 1UH     -0.014000
      9 C14        -1.3470    0.3990    1.1150 c1        1 1UH     -0.184000
     10 C10        -2.3610    0.5050    2.0500 c1        1 1UH      0.052000
     11 C3         -2.5210    0.7090    3.5800 c1        1 1UH     -0.144500
     12 C5         -2.4110    2.0670    3.9860 c1        1 1UH     -0.112500
     13 C6         -2.6490    2.4180    5.3040 c1        1 1UH     -0.112500
     14 C4         -3.0050    1.4190    6.2530 c1        1 1UH     -0.075000
     15 C1         -2.8710   -0.2770    4.5140 c1        1 1UH     -0.144500
     16 S9         -2.9140   -1.8620    4.4140 s         1 1UH      0.506000
     17 C8         -3.2050   -2.4080    5.8240 c1        1 1UH     -0.395000
     18 C7         -3.3320   -1.2830    6.7150 c1        1 1UH     -0.138000
     19 C2         -3.1140    0.0790    5.8540 c1        1 1UH     -0.074000
     20 C20         0.1060    0.3340   -1.6530 c1        1 1UH     -0.132000
     21 C24         0.8970   -0.5910   -2.2940 c1        1 1UH     -0.135500
     22 N23         2.1660   -0.0780   -2.3790 n2        1 1UH     -0.098500
     23 N22         2.1620    1.1650   -1.7900 n2        1 1UH     -0.098500
     24 C21         0.8920    1.4190   -1.3420 c1        1 1UH     -0.135500
     25 C25         3.3500   -0.7530   -3.0140 c2        1 1UH      0.055000
     26 C30         3.8330    0.0830   -4.1340 c3        1 1UH     -0.169500
     27 C29         5.1510   -0.4380   -4.7250 c3        1 1UH     -0.073000
     28 N28         6.1800   -0.6500   -3.6990 n3        1 1UH     -0.301000
     29 C27         5.7030   -1.4850   -2.5690 c3        1 1UH     -0.073000
     30 C26         4.4040   -0.9710   -1.9740 c3        1 1UH     -0.169500
     31 H1         -5.9230    0.7190   -2.1020 hn        1 1UH      0.205000
     32 H2         -6.0860    0.6120   -0.5300 hn        1 1UH      0.205000
     33 H3         -1.7950   -0.0190   -3.4330 ha        1 1UH      0.157000
     34 H4         -0.3680    0.3440    1.3140 DU        1 1UH      0.172400
     35 H5         -2.1480    2.8040    3.2860 ha        1 1UH      0.143500
     36 H6         -2.5730    3.3570    5.5830 ha        1 1UH      0.143500
     37 H7         -3.1710    1.6630    7.1710 ha        1 1UH      0.139000
     38 H8         -3.4250   -3.3360    6.0430 DU        1 1UH      0.172400
     39 H9         -3.5160   -1.3300    7.6650 DU        1 1UH      0.172400
     40 H10         0.5990   -1.4790   -2.6360 DU        1 1UH      0.172400
     41 H11         0.6000    2.2160   -0.8900 DU        1 1UH      0.172400
     42 H12         3.0530   -1.6670   -3.3850 ha        1 1UH      0.096000
     43 H13         3.9730    1.0120   -3.8030 hc        1 1UH      0.107250
     44 H14         3.1700    0.0940   -4.8180 hc        1 1UH      0.107250
     45 H15         4.9800   -1.2960   -5.1890 h1        1 1UH      0.070000
     46 H16         5.4800    0.2080   -5.3720 h1        1 1UH      0.070000
     47 H17         6.9300   -1.0540   -4.0880 hn        1 1UH      0.163000
     48 H19         5.5630   -2.4050   -2.8890 h1        1 1UH      0.070000
     49 H20         6.3550   -1.4920   -1.9050 h1        1 1UH      0.070000
     50 H21         4.0760   -1.6230   -1.3180 hc        1 1UH      0.107250
     51 H22         4.5880   -0.0740   -1.4900 hc        1 1UH      0.107250
@<TRIPOS>BOND
     1    1    2 1   
     2    1   31 1   
     3    1   32 1   
     4    2    5 1   
     5    3    8 1   
     6    4   10 1   
     7    6    7 1   
     8    6   33 1   
     9    7    8 1   
    10    9   10 1   
    11   11   15 1   
    12   12   13 1   
    13   12   35 1   
    14   13   36 1   
    15   14   19 1   
    16   14   37 1   
    17   16   17 1   
    18   17   18 1   
    19   18   19 1   
    20   20   21 1   
    21   20   24 1   
    22   21   22 1   
    23   22   23 1   
    24   23   24 1   
    25   25   26 1   
    26   25   30 1   
    27   25   42 1   
    28   26   27 1   
    29   26   43 1   
    30   26   44 1   
    31   27   28 1   
    32   27   45 1   
    33   27   46 1   
    34   28   29 1   
    35   28   47 1   
    36   29   30 1   
    37   29   48 1   
    38   29   49 1   
    39   30   50 1   
    40   30   51 1   
@<TRIPOS>SUBSTRUCTURE
     1 1UH         1 TEMP              0 ****  ****    0 ROOT
