@<TRIPOS>MOLECULE
1UH
   51    56     1     0     0
SMALL
bcc


@<TRIPOS>ATOM
      1 N19         1.9450   -3.9250   -1.1620 nh        1 1UH     -0.917500
      2 C18         0.9410   -2.9900   -0.8960 ca        1 1UH      0.648200
      3 C12         1.2720   -1.6460   -0.5780 ca        1 1UH     -0.112200
      4 O11         2.5460   -1.0760   -0.6020 os        1 1UH     -0.192200
      5 N17        -0.3800   -3.3520   -0.8560 nb        1 1UH     -0.711000
      6 C16        -1.2940   -2.4380   -0.4850 ca        1 1UH      0.416200
      7 C15        -1.0480   -1.0890   -0.1380 ca        1 1UH     -0.104300
      8 C13         0.2930   -0.6830   -0.2000 ca        1 1UH     -0.026800
      9 C14         1.0270    0.5480    0.0120 cc        1 1UH     -0.169200
     10 C10         2.3590    0.2750   -0.2350 cd        1 1UH      0.102900
     11 C3          3.5270    1.1260   -0.1930 ca        1 1UH     -0.011800
     12 C5          3.3590    2.4870   -0.4600 ca        1 1UH     -0.096000
     13 C6          4.4430    3.3770   -0.4190 ca        1 1UH     -0.141000
     14 C4          5.7150    2.9280   -0.1080 ca        1 1UH     -0.075000
     15 C1          4.8140    0.6520    0.1250 ca        1 1UH     -0.058100
     16 S9          5.3470   -0.9040    0.5130 ss        1 1UH      0.080500
     17 C8          6.9450   -0.4300    0.7330 cc        1 1UH     -0.165400
     18 C7          7.1370    0.9060    0.5220 cd        1 1UH     -0.132200
     19 C2          5.9070    1.5680    0.1670 ca        1 1UH     -0.087800
     20 C20        -2.1210   -0.2220    0.2430 cc        1 1UH     -0.197300
     21 C24        -3.4770   -0.3070   -0.1310 cd        1 1UH     -0.135300
     22 N23        -4.1360    0.7530    0.4990 na        1 1UH      0.091400
     23 N22        -3.2950    1.4930    1.2420 nd        1 1UH     -0.508800
     24 C21        -2.0650    0.9380    1.1150 cc        1 1UH      0.308200
     25 C25        -5.5670    1.0310    0.3740 c3        1 1UH      0.067000
     26 C30        -5.9690    1.3390   -1.0770 c3        1 1UH     -0.131400
     27 C29        -7.4690    1.6320   -1.1430 c3        1 1UH      0.150800
     28 N28        -8.3270    0.6160   -0.5670 n3        1 1UH     -0.799200
     29 C27        -7.9090    0.2290    0.7640 c3        1 1UH      0.150800
     30 C26        -6.4270   -0.1240    0.9120 c3        1 1UH     -0.131400
     31 H1          1.6500   -4.7700   -1.5990 hn        1 1UH      0.410800
     32 H2          2.7720   -3.5240   -1.5450 hn        1 1UH      0.410800
     33 H3         -2.3310   -2.8230   -0.4640 h4        1 1UH      0.019100
     34 H4          0.5930    1.5000    0.3080 ha        1 1UH      0.171000
     35 H5          2.3570    2.8690   -0.7120 ha        1 1UH      0.140000
     36 H6          4.2690    4.4420   -0.6390 ha        1 1UH      0.137000
     37 H7          6.5690    3.6190   -0.0730 ha        1 1UH      0.139000
     38 H8          7.7170   -1.1470    1.0140 h4        1 1UH      0.172000
     39 H9          8.0860    1.4400    0.6050 ha        1 1UH      0.156000
     40 H10        -3.9940   -1.0140   -0.7780 h4        1 1UH      0.175000
     41 H11        -1.1920    1.3370    1.6310 h4        1 1UH      0.045100
     42 H12        -5.7920    1.9500    0.9980 h1        1 1UH      0.090700
     43 H13        -5.4060    2.2330   -1.4520 hc        1 1UH      0.057450
     44 H14        -5.7150    0.4730   -1.7410 hc        1 1UH      0.057450
     45 H15        -7.6740    2.5950   -0.5960 h1        1 1UH      0.059200
     46 H16        -7.7630    1.7780   -2.2200 h1        1 1UH      0.059200
     47 H17        -8.3530   -0.1900   -1.1660 hn        1 1UH      0.353800
     48 H19        -8.1460    1.0870    1.4550 h1        1 1UH      0.059200
     49 H20        -8.5260   -0.6550    1.0890 h1        1 1UH      0.059200
     50 H21        -6.1980   -1.0680    0.3540 hc        1 1UH      0.057450
     51 H22        -6.2010   -0.3010    1.9940 hc        1 1UH      0.057450
@<TRIPOS>BOND
     1    1    2 1   
     2    1   31 1   
     3    1   32 1   
     4    2    3 ar  
     5    2    5 ar  
     6    3    4 1   
     7    3    8 ar  
     8    4   10 1   
     9    5    6 ar  
    10    6    7 ar  
    11    6   33 1   
    12    7    8 ar  
    13    7   20 1   
    14    8    9 1   
    15    9   10 2   
    16    9   34 1   
    17   10   11 1   
    18   11   12 ar  
    19   11   15 ar  
    20   12   13 ar  
    21   12   35 1   
    22   13   14 ar  
    23   13   36 1   
    24   14   19 ar  
    25   14   37 1   
    26   15   16 1   
    27   15   19 ar  
    28   16   17 1   
    29   17   18 2   
    30   17   38 1   
    31   18   19 1   
    32   18   39 1   
    33   20   21 2   
    34   20   24 1   
    35   21   22 1   
    36   21   40 1   
    37   22   23 1   
    38   22   25 1   
    39   23   24 2   
    40   24   41 1   
    41   25   26 1   
    42   25   30 1   
    43   25   42 1   
    44   26   27 1   
    45   26   43 1   
    46   26   44 1   
    47   27   28 1   
    48   27   45 1   
    49   27   46 1   
    50   28   29 1   
    51   28   47 1   
    52   29   30 1   
    53   29   48 1   
    54   29   49 1   
    55   30   50 1   
    56   30   51 1   
@<TRIPOS>SUBSTRUCTURE
     1 1UH         1 TEMP              0 ****  ****    0 ROOT
