@<TRIPOS>MOLECULE
1UH
   52    57     1     0     0
SMALL
bcc


@<TRIPOS>ATOM
      1 N19         0.0740   -0.3330    0.3010 n4        1 1UH     -0.791300
      2 C18         1.5390   -0.4150    0.3220 ca        1 1UH      0.366200
      3 C12         2.2430   -0.2240    1.5150 ca        1 1UH      0.006800
      4 O11         1.7180    0.0340    2.7670 os        1 1UH     -0.215200
      5 N17         2.2060   -0.6820   -0.8440 nb        1 1UH     -0.613000
      6 C16         3.5340   -0.7450   -0.8020 ca        1 1UH      0.378200
      7 C15         4.3600   -0.5580    0.3600 ca        1 1UH      0.062700
      8 C13         3.6760   -0.2990    1.5530 ca        1 1UH     -0.076800
      9 C14         4.0200   -0.0780    2.9460 cc        1 1UH     -0.152200
     10 C10         2.8460    0.1180    3.6410 cd        1 1UH      0.142900
     11 C3          2.5670    0.3510    5.0380 ca        1 1UH     -0.053800
     12 C5          3.3180   -0.3550    5.9840 ca        1 1UH     -0.074000
     13 C6          3.1140   -0.1680    7.3580 ca        1 1UH     -0.139000
     14 C4          2.1600    0.7290    7.8150 ca        1 1UH     -0.048000
     15 C1          1.5980    1.2680    5.4840 ca        1 1UH     -0.039100
     16 S9          0.5660    2.2920    4.6160 ss        1 1UH     -0.004500
     17 C8         -0.1320    2.9580    6.0050 cc        1 1UH     -0.133400
     18 C7          0.3850    2.4390    7.1540 cd        1 1UH     -0.112200
     19 C2          1.4030    1.4500    6.8840 ca        1 1UH     -0.086800
     20 C20         5.7720   -0.6350    0.2460 cc        1 1UH     -0.292300
     21 C24         6.5290   -1.2160   -0.8080 cd        1 1UH     -0.077300
     22 N23         7.8650   -1.0460   -0.4830 na        1 1UH      0.124400
     23 N22         8.0200   -0.3930    0.6870 nd        1 1UH     -0.484800
     24 C21         6.7820   -0.1300    1.1630 cc        1 1UH      0.344200
     25 C25         8.9910   -1.5110   -1.3090 c3        1 1UH      0.052000
     26 C30         8.9770   -3.0380   -1.4760 c3        1 1UH     -0.093400
     27 C29        10.1640   -3.4710   -2.3380 c3        1 1UH      0.162800
     28 N28        10.2000   -2.7950   -3.6190 n3        1 1UH     -0.828200
     29 C27        10.1840   -1.3510   -3.5060 c3        1 1UH      0.162800
     30 C26         8.9980   -0.8360   -2.6890 c3        1 1UH     -0.093400
     31 H1         -0.2580   -0.1630    1.2580 hn        1 1UH      0.468467
     32 H2         -0.2230    0.4360   -0.3120 hn        1 1UH      0.468467
     33 H3          4.0150   -0.9570   -1.7780 h4        1 1UH      0.054100
     34 H4          5.0280   -0.0760    3.3590 ha        1 1UH      0.193000
     35 H5          4.0820   -1.0730    5.6450 ha        1 1UH      0.143000
     36 H6          3.7210   -0.7430    8.0750 ha        1 1UH      0.153000
     37 H7          1.9950    0.8810    8.8930 ha        1 1UH      0.155000
     38 H8         -0.9070    3.7220    5.9360 h4        1 1UH      0.183000
     39 H9          0.0940    2.7140    8.1710 ha        1 1UH      0.172000
     40 H10         6.2070   -1.7270   -1.7170 h4        1 1UH      0.190000
     41 H11         6.6290    0.4150    2.0960 h4        1 1UH      0.054100
     42 H12         9.9440   -1.2230   -0.7690 h1        1 1UH      0.101700
     43 H13         9.0590   -3.5400   -0.4780 hc        1 1UH      0.060450
     44 H14         8.0190   -3.3670   -1.9560 hc        1 1UH      0.060450
     45 H15        11.1100   -3.3080   -1.7400 h1        1 1UH      0.043700
     46 H16        10.0740   -4.5760   -2.5410 h1        1 1UH      0.043700
     47 H17        10.9930   -3.0970   -4.1530 hn        1 1UH      0.381800
     48 H19        10.1080   -0.9300   -4.5490 h1        1 1UH      0.043700
     49 H20        11.1320   -0.9460   -3.0410 h1        1 1UH      0.043700
     50 H21         9.0960    0.2740   -2.5790 hc        1 1UH      0.060450
     51 H22         8.0410   -1.0520   -3.2310 hc        1 1UH      0.060450
     52 H193       -0.3210   -1.2130   -0.0530 hn        1 1UH      0.468467
@<TRIPOS>BOND
     1    1    2 1   
     2    1   31 1   
     3    1   32 1   
     4    1   52 1   
     5    2    3 ar  
     6    2    5 ar  
     7    3    4 1   
     8    3    8 ar  
     9    4   10 1   
    10    5    6 ar  
    11    6    7 ar  
    12    6   33 1   
    13    7    8 ar  
    14    7   20 1   
    15    8    9 1   
    16    9   10 2   
    17    9   34 1   
    18   10   11 1   
    19   11   12 ar  
    20   11   15 ar  
    21   12   13 ar  
    22   12   35 1   
    23   13   14 ar  
    24   13   36 1   
    25   14   19 ar  
    26   14   37 1   
    27   15   16 1   
    28   15   19 ar  
    29   16   17 1   
    30   17   18 2   
    31   17   38 1   
    32   18   19 1   
    33   18   39 1   
    34   20   21 2   
    35   20   24 1   
    36   21   22 1   
    37   21   40 1   
    38   22   23 1   
    39   22   25 1   
    40   23   24 2   
    41   24   41 1   
    42   25   26 1   
    43   25   30 1   
    44   25   42 1   
    45   26   27 1   
    46   26   43 1   
    47   26   44 1   
    48   27   28 1   
    49   27   45 1   
    50   27   46 1   
    51   28   29 1   
    52   28   47 1   
    53   29   30 1   
    54   29   48 1   
    55   29   49 1   
    56   30   50 1   
    57   30   51 1   
@<TRIPOS>SUBSTRUCTURE
     1 1UH         1 TEMP              0 ****  ****    0 ROOT
