@<TRIPOS>MOLECULE
1UJ
   27    28     1     0     0
SMALL
bcc


@<TRIPOS>ATOM
      1 O2          0.0430    0.4670    0.4590 o         1 1UJ     -0.521100
      2 C7          1.2110    0.1640    0.1930 c         1 1UJ      0.666100
      3 C8          2.2630   -0.0010    1.2640 c3        1 1UJ     -0.179100
      4 N1          1.6630   -0.0310   -1.1230 n         1 1UJ     -0.480400
      5 C6          0.8830   -0.0370   -2.2680 cc        1 1UJ      0.472800
      6 N          -0.4480   -0.1230   -2.3420 nd        1 1UJ     -0.544100
      7 S           1.7130    0.0760   -3.8400 ss        1 1UJ     -0.094100
      8 C9          0.2240    0.0070   -4.6390 ca        1 1UJ     -0.110100
      9 C5         -0.8440   -0.0890   -3.6840 ca        1 1UJ      0.142400
     10 C4         -2.1780   -0.1500   -4.1370 ca        1 1UJ     -0.102000
     11 C3         -2.4300   -0.1200   -5.4990 ca        1 1UJ     -0.070000
     12 C10        -0.0490    0.0330   -6.0030 ca        1 1UJ     -0.022000
     13 C2         -1.3770   -0.0310   -6.4290 ca        1 1UJ     -0.137600
     14 C1         -1.6420   -0.0010   -7.8740 c         1 1UJ      0.646700
     15 O1         -0.8220    0.0720   -8.7950 o         1 1UJ     -0.546000
     16 O          -2.9710   -0.0640   -8.2080 os        1 1UJ     -0.437900
     17 C          -3.2760   -0.0370   -9.6030 c3        1 1UJ      0.127700
     18 H1          1.7870    0.1910    2.2570 hc        1 1UJ      0.072367
     19 H2          2.6750   -1.0390    1.2540 hc        1 1UJ      0.072367
     20 H3          3.0960    0.7270    1.1160 hc        1 1UJ      0.072367
     21 H4          2.6300   -0.2240   -1.2600 hn        1 1UJ      0.329500
     22 H5         -3.0010   -0.2190   -3.4100 ha        1 1UJ      0.163000
     23 H6         -3.4670   -0.1670   -5.8690 ha        1 1UJ      0.160000
     24 H7          0.7620    0.1040   -6.7470 ha        1 1UJ      0.164000
     25 H8         -4.3920   -0.0970   -9.6280 h1        1 1UJ      0.052033
     26 H9         -2.8070   -0.9120  -10.1130 h1        1 1UJ      0.052033
     27 H10        -2.9060    0.9140  -10.0560 h1        1 1UJ      0.052033
@<TRIPOS>BOND
     1    1    2 2   
     2    2    3 1   
     3    2    4 1   
     4    3   18 1   
     5    3   19 1   
     6    3   20 1   
     7    4    5 1   
     8    4   21 1   
     9    5    6 2   
    10    5    7 1   
    11    6    9 1   
    12    7    8 1   
    13    8    9 ar  
    14    8   12 ar  
    15    9   10 ar  
    16   10   11 ar  
    17   10   22 1   
    18   11   13 ar  
    19   11   23 1   
    20   12   13 ar  
    21   12   24 1   
    22   13   14 1   
    23   14   15 2   
    24   14   16 1   
    25   16   17 1   
    26   17   25 1   
    27   17   26 1   
    28   17   27 1   
@<TRIPOS>SUBSTRUCTURE
     1 1UJ         1 TEMP              0 ****  ****    0 ROOT
