@<TRIPOS>MOLECULE
1UJ
   28    29     1     0     0
SMALL
bcc


@<TRIPOS>ATOM
      1 O2          2.4620    1.8600   -0.2600 o         1 1UJ     -0.393100
      2 C7          1.9060    0.7790   -0.2100 c         1 1UJ      0.573100
      3 C8          0.8840    0.2700    0.7400 c3        1 1UJ     -0.183100
      4 N1          2.3630   -0.2150   -1.2930 n4        1 1UJ     -0.601800
      5 C6          1.4860   -0.1780   -2.4540 cc        1 1UJ      0.289100
      6 N           0.2310   -0.6600   -2.4010 nd        1 1UJ     -0.484100
      7 S           1.9860    0.4770   -3.9680 ss        1 1UJ      0.183900
      8 C9          0.4870    0.1230   -4.6330 ca        1 1UJ     -0.107100
      9 C5         -0.3620   -0.4970   -3.6460 ca        1 1UJ      0.096400
     10 C4         -1.6790   -0.8830   -3.9910 ca        1 1UJ     -0.065000
     11 C3         -2.1250   -0.6540   -5.2780 ca        1 1UJ     -0.065000
     12 C10         0.0090    0.3430   -5.9280 ca        1 1UJ     -0.041000
     13 C2         -1.2890   -0.0450   -6.2410 ca        1 1UJ     -0.067600
     14 C1         -1.7720    0.1970   -7.6180 c         1 1UJ      0.630700
     15 O1         -1.1370    0.7140   -8.5390 o         1 1UJ     -0.511000
     16 O          -3.0550   -0.2090   -7.8390 os        1 1UJ     -0.429900
     17 C          -3.5710    0.0040   -9.1600 c3        1 1UJ      0.125700
     18 H1          1.2500   -0.6430    1.2740 hc        1 1UJ      0.121700
     19 H2         -0.0710    0.0210    0.2060 hc        1 1UJ      0.121700
     20 H3          0.6750    1.0740    1.4960 hc        1 1UJ      0.121700
     21 H4          2.3680   -1.1650   -0.8960 hn        1 1UJ      0.470300
     22 H5         -2.3300   -1.3590   -3.2390 ha        1 1UJ      0.175000
     23 H6         -3.1500   -0.9470   -5.5730 ha        1 1UJ      0.187000
     24 H7          0.6420    0.8170   -6.7000 ha        1 1UJ      0.188000
     25 H8         -3.5640    1.0950   -9.3970 h1        1 1UJ      0.064367
     26 H9         -4.6120   -0.4000   -9.0950 h1        1 1UJ      0.064367
     27 H10        -2.9540   -0.5580   -9.9020 h1        1 1UJ      0.064367
     28 H12         3.3140    0.0270   -1.6030 hn        1 1UJ      0.470300
@<TRIPOS>BOND
     1    1    2 2   
     2    2    3 1   
     3    2    4 1   
     4    3   18 1   
     5    3   19 1   
     6    3   20 1   
     7    4    5 1   
     8    4   21 1   
     9    4   28 1   
    10    5    6 2   
    11    5    7 1   
    12    6    9 1   
    13    7    8 1   
    14    8    9 ar  
    15    8   12 ar  
    16    9   10 ar  
    17   10   11 ar  
    18   10   22 1   
    19   11   13 ar  
    20   11   23 1   
    21   12   13 ar  
    22   12   24 1   
    23   13   14 1   
    24   14   15 2   
    25   14   16 1   
    26   16   17 1   
    27   17   25 1   
    28   17   26 1   
    29   17   27 1   
@<TRIPOS>SUBSTRUCTURE
     1 1UJ         1 TEMP              0 ****  ****    0 ROOT
