@<TRIPOS>MOLECULE
1UJ
   27    28     1     0     0
SMALL
bcc


@<TRIPOS>ATOM
      1 O2         -0.0110   -0.0190    0.5130 o         1 1UJ     -0.518100
      2 C7          1.1880   -0.0030    0.2150 c         1 1UJ      0.664100
      3 C8          2.2760    0.0120    1.2640 c3        1 1UJ     -0.180100
      4 N1          1.6440    0.0020   -1.1140 ns        1 1UJ     -0.478400
      5 C6          0.8650   -0.0060   -2.2590 cc        1 1UJ      0.475800
      6 N          -0.4680   -0.0150   -2.3380 nd        1 1UJ     -0.546100
      7 S           1.7060   -0.0050   -3.8300 ss        1 1UJ     -0.098100
      8 C9          0.2190   -0.0170   -4.6360 ca        1 1UJ     -0.110100
      9 C5         -0.8560   -0.0220   -3.6840 ca        1 1UJ      0.144400
     10 C4         -2.1890   -0.0320   -4.1420 ca        1 1UJ     -0.103000
     11 C3         -2.4340   -0.0370   -5.5050 ca        1 1UJ     -0.069000
     12 C10        -0.0470   -0.0230   -6.0010 ca        1 1UJ     -0.021000
     13 C2         -1.3750   -0.0330   -6.4320 ca        1 1UJ     -0.138600
     14 C1         -1.6330   -0.0390   -7.8780 c         1 1UJ      0.646700
     15 O1         -0.8060   -0.0350   -8.7970 o         1 1UJ     -0.546000
     16 O          -2.9610   -0.0490   -8.2170 os        1 1UJ     -0.437900
     17 C          -3.2600   -0.0550   -9.6140 c3        1 1UJ      0.127700
     18 H1          1.7930    0.0060    2.2720 hc        1 1UJ      0.072700
     19 H2          2.9270   -0.8910    1.1690 hc        1 1UJ      0.072700
     20 H3          2.9030    0.9300    1.1680 hc        1 1UJ      0.072700
     21 H4          2.6280    0.0140   -1.2660 hn        1 1UJ      0.328500
     22 H5         -3.0180   -0.0360   -3.4170 ha        1 1UJ      0.163000
     23 H6         -3.4720   -0.0460   -5.8790 ha        1 1UJ      0.160000
     24 H7          0.7690   -0.0190   -6.7420 ha        1 1UJ      0.164000
     25 H8         -2.8430    0.8620  -10.0970 h1        1 1UJ      0.052033
     26 H9         -4.3770   -0.0630   -9.6430 h1        1 1UJ      0.052033
     27 H10        -2.8300   -0.9680  -10.0920 h1        1 1UJ      0.052033
@<TRIPOS>BOND
     1    1    2 2   
     2    2    3 1   
     3    2    4 1   
     4    3   18 1   
     5    3   19 1   
     6    3   20 1   
     7    4    5 1   
     8    4   21 1   
     9    5    6 2   
    10    5    7 1   
    11    6    9 1   
    12    7    8 1   
    13    8    9 ar  
    14    8   12 ar  
    15    9   10 ar  
    16   10   11 ar  
    17   10   22 1   
    18   11   13 ar  
    19   11   23 1   
    20   12   13 ar  
    21   12   24 1   
    22   13   14 1   
    23   14   15 2   
    24   14   16 1   
    25   16   17 1   
    26   17   25 1   
    27   17   26 1   
    28   17   27 1   
@<TRIPOS>SUBSTRUCTURE
     1 1UJ         1 TEMP              0 ****  ****    0 ROOT
