@<TRIPOS>MOLECULE
1UJ
   27    28     1     0     0
SMALL
bcc


@<TRIPOS>ATOM
      1 O2          4.4260   -1.7380    0.5450 o         1 1UJ     -0.521100
      2 C7          4.6850   -0.5840    0.1850 c         1 1UJ      0.666100
      3 C8          6.1030   -0.1010   -0.0080 c3        1 1UJ     -0.179100
      4 N1          3.6890    0.3780   -0.0520 n         1 1UJ     -0.480400
      5 C6          2.3210    0.1630   -0.0440 cc        1 1UJ      0.472800
      6 N           1.6830   -1.0100   -0.0700 nd        1 1UJ     -0.544100
      7 S           1.2560    1.5910    0.0050 ss        1 1UJ     -0.094100
      8 C9         -0.1040    0.5870   -0.0110 ca        1 1UJ     -0.110100
      9 C5          0.3000   -0.7910   -0.0430 ca        1 1UJ      0.142400
     10 C4         -0.6800   -1.8040   -0.0510 ca        1 1UJ     -0.102000
     11 C3         -2.0180   -1.4470   -0.0350 ca        1 1UJ     -0.070000
     12 C10        -1.4540    0.9250    0.0020 ca        1 1UJ     -0.022000
     13 C2         -2.4080   -0.0940   -0.0090 ca        1 1UJ     -0.137600
     14 C1         -3.8270    0.2860    0.0070 c         1 1UJ      0.646700
     15 O1         -4.3080    1.4240    0.0280 o         1 1UJ     -0.546000
     16 O          -4.6980   -0.7730   -0.0030 os        1 1UJ     -0.437900
     17 C          -6.0900   -0.4500    0.0130 c3        1 1UJ      0.127700
     18 H1          6.2660    0.2250   -1.0630 hc        1 1UJ      0.072367
     19 H2          6.3290    0.7490    0.6800 hc        1 1UJ      0.072367
     20 H3          6.7980   -0.9460    0.2220 hc        1 1UJ      0.072367
     21 H4          3.9790    1.3000   -0.2900 hn        1 1UJ      0.329500
     22 H5         -0.3760   -2.8610   -0.0700 ha        1 1UJ      0.163000
     23 H6         -2.7980   -2.2270   -0.0410 ha        1 1UJ      0.160000
     24 H7         -1.7780    1.9780    0.0230 ha        1 1UJ      0.164000
     25 H8         -6.3370    0.1230    0.9390 h1        1 1UJ      0.052033
     26 H9         -6.3520    0.1500   -0.8900 h1        1 1UJ      0.052033
     27 H10        -6.5900   -1.4500    0.0020 h1        1 1UJ      0.052033
@<TRIPOS>BOND
     1    1    2 2   
     2    2    3 1   
     3    2    4 1   
     4    3   18 1   
     5    3   19 1   
     6    3   20 1   
     7    4    5 1   
     8    4   21 1   
     9    5    6 2   
    10    5    7 1   
    11    6    9 1   
    12    7    8 1   
    13    8    9 ar  
    14    8   12 ar  
    15    9   10 ar  
    16   10   11 ar  
    17   10   22 1   
    18   11   13 ar  
    19   11   23 1   
    20   12   13 ar  
    21   12   24 1   
    22   13   14 1   
    23   14   15 2   
    24   14   16 1   
    25   16   17 1   
    26   17   25 1   
    27   17   26 1   
    28   17   27 1   
@<TRIPOS>SUBSTRUCTURE
     1 1UJ         1 TEMP              0 ****  ****    0 ROOT
