@<TRIPOS>MOLECULE
1UJ
   27    22     1     0     0
SMALL
bcc


@<TRIPOS>ATOM
      1 O2          0.4630   -1.9610    4.1050 o         1 1UJ     -0.333000
      2 C7          1.2690   -1.1110    4.4420 c1        1 1UJ      0.306000
      3 C8          1.9720   -1.2200    5.7930 c2        1 1UJ     -0.240000
      4 N1          1.6200   -0.0610    3.5360 n3        1 1UJ     -0.305000
      5 C6          1.0250   -0.0090    2.2370 c2        1 1UJ     -0.103000
      6 N          -0.3450    0.3830    2.1590 n2        1 1UJ     -0.170000
      7 S           1.5760   -0.0870    0.8020 ss        1 1UJ      0.550000
      8 C9          0.4250    0.2900   -0.1590 c1        1 1UJ     -0.399000
      9 C5         -0.7260    0.5740    0.6290 c1        1 1UJ      0.003000
     10 C4         -1.9360    0.8370    0.0140 c1        1 1UJ     -0.106000
     11 C3         -2.0300    0.8250   -1.3860 c1        1 1UJ     -0.074000
     12 C10         0.3320    0.2780   -1.5440 c1        1 1UJ     -0.010000
     13 C2         -0.8920    0.5450   -2.1650 c1        1 1UJ     -0.122000
     14 C1         -0.9320    0.7140   -3.6870 c1        1 1UJ      0.347000
     15 O1         -0.8170    1.8120   -4.1750 o         1 1UJ     -0.355000
     16 O          -1.0750   -0.4330   -4.5320 o         1 1UJ     -0.280000
     17 C          -1.0240   -0.1310   -5.9430 c3        1 1UJ     -0.061000
     18 H1          1.7560   -2.0840    6.2050 ha        1 1UJ      0.115667
     19 H2          2.9390   -1.1530    5.6640 ha        1 1UJ      0.115667
     20 H3          1.6700   -0.4950    6.3770 ha        1 1UJ      0.115667
     21 H4          2.2480    0.5530    3.7730 hn        1 1UJ      0.255000
     22 H5         -2.7260    1.0320    0.5540 ha        1 1UJ      0.156000
     23 H6         -2.8780    1.0100   -1.8160 ha        1 1UJ      0.160000
     24 H7          1.1240    0.0840   -2.0870 ha        1 1UJ      0.160000
     25 H8         -1.3810   -0.8990   -6.4580 h1        1 1UJ      0.091000
     26 H9         -0.0900    0.0370   -6.2100 h1        1 1UJ      0.091000
     27 H10        -1.5660    0.6680   -6.1280 h1        1 1UJ      0.091000
@<TRIPOS>BOND
     1    1    2 1   
     2    2    4 1   
     3    3   18 1   
     4    3   19 1   
     5    3   20 1   
     6    4    5 1   
     7    4   21 1   
     8    5    6 1   
     9    5    7 1   
    10    6    9 1   
    11    7    8 1   
    12    8   12 1   
    13    9   10 1   
    14   10   22 1   
    15   11   13 1   
    16   11   23 1   
    17   12   24 1   
    18   14   15 1   
    19   16   17 1   
    20   17   25 1   
    21   17   26 1   
    22   17   27 1   
@<TRIPOS>SUBSTRUCTURE
     1 1UJ         1 TEMP              0 ****  ****    0 ROOT
