@<TRIPOS>MOLECULE
1UK
   36    38     1     0     0
SMALL
bcc


@<TRIPOS>ATOM
      1 F2          0.1900   -0.5960   -0.7800 f         1 1UK     -0.239633
      2 C14         1.5140   -0.3300   -0.5370 c3        1 1UK      0.700200
      3 F           1.6880   -0.6710    0.7850 f         1 1UK     -0.239633
      4 F1          2.1840   -1.3290   -1.2100 f         1 1UK     -0.239633
      5 C12         1.9670    1.0720   -0.8890 ca        1 1UK     -0.381600
      6 C11         3.3320    1.4690   -0.6940 ca        1 1UK      0.734200
      7 N4          4.2530    0.5980   -0.1700 nv        1 1UK     -0.965500
      8 N3          3.7450    2.7500   -1.0220 nb        1 1UK     -0.735000
      9 C10         2.8400    3.5930   -1.5140 ca        1 1UK      0.486200
     10 C13         1.0540    1.9910   -1.4060 ca        1 1UK      0.014000
     11 C9          1.4730    3.2830   -1.7300 ca        1 1UK     -0.220300
     12 C5          0.5560    4.2710   -2.2710 cc        1 1UK     -0.066000
     13 C4          0.6360    5.5930   -1.8620 cd        1 1UK     -0.059300
     14 C6         -0.4350    3.8830   -3.2290 cc        1 1UK     -0.111000
     15 C7         -1.3070    4.7940   -3.7550 cd        1 1UK     -0.098000
     16 C8         -1.2290    6.1650   -3.3400 cd        1 1UK     -0.017300
     17 N1         -0.2260    6.5270   -2.3770 na        1 1UK      0.023700
     18 C3         -0.3550    7.8930   -2.1420 cd        1 1UK     -0.231100
     19 N2         -1.9680    7.2480   -3.7070 nc        1 1UK     -0.316600
     20 C2         -1.4330    8.3260   -2.9680 cc        1 1UK      0.191200
     21 N          -1.9300    9.6250   -3.0700 ns        1 1UK     -0.454100
     22 C1         -1.4270   10.7120   -2.3650 c         1 1UK      0.667100
     23 O          -0.4720   10.6040   -1.5730 o         1 1UK     -0.596100
     24 C          -2.1040   12.0380   -2.6150 c3        1 1UK     -0.175100
     25 H1          5.1990    0.8670   -0.0610 hn        1 1UK      0.451300
     26 H2          3.9860   -0.3340    0.0310 hn        1 1UK      0.451300
     27 H3          3.2290    4.5990   -1.7670 h4        1 1UK      0.030100
     28 H4          0.0010    1.6930   -1.5500 ha        1 1UK      0.159000
     29 H5          1.3700    5.9520   -1.1200 h4        1 1UK      0.169000
     30 H6         -0.4740    2.8280   -3.5420 ha        1 1UK      0.145000
     31 H7         -2.0750    4.5230   -4.4940 ha        1 1UK      0.165000
     32 H8          0.2730    8.4560   -1.4520 h4        1 1UK      0.218000
     33 H9         -2.6940    9.7680   -3.6920 hn        1 1UK      0.334500
     34 H10        -3.1830   11.9870   -2.3330 hc        1 1UK      0.070367
     35 H11        -1.6020   12.8160   -1.9890 hc        1 1UK      0.070367
     36 H12        -2.0190   12.3270   -3.6900 hc        1 1UK      0.070367
@<TRIPOS>BOND
     1    1    2 1   
     2    2    3 1   
     3    2    4 1   
     4    2    5 1   
     5    5    6 ar  
     6    5   10 ar  
     7    6    7 1   
     8    6    8 ar  
     9    7   25 1   
    10    7   26 1   
    11    8    9 ar  
    12    9   11 ar  
    13    9   27 1   
    14   10   11 ar  
    15   10   28 1   
    16   11   12 1   
    17   12   13 2   
    18   12   14 1   
    19   13   17 1   
    20   13   29 1   
    21   14   15 2   
    22   14   30 1   
    23   15   16 1   
    24   15   31 1   
    25   16   17 1   
    26   16   19 2   
    27   17   18 1   
    28   18   20 2   
    29   18   32 1   
    30   19   20 1   
    31   20   21 1   
    32   21   22 1   
    33   21   33 1   
    34   22   23 2   
    35   22   24 1   
    36   24   34 1   
    37   24   35 1   
    38   24   36 1   
@<TRIPOS>SUBSTRUCTURE
     1 1UK         1 TEMP              0 ****  ****    0 ROOT
