@<TRIPOS>MOLECULE
1UK
   38    40     1     0     0
SMALL
bcc


@<TRIPOS>ATOM
      1 F2         -0.0610    0.0950    0.3540 f         1 1UK     -0.207300
      2 C14         1.2680    0.0260    0.0610 c3        1 1UK      0.687200
      3 F           1.9170   -0.1640    1.2590 f         1 1UK     -0.207300
      4 F1          1.4540   -1.1630   -0.6050 f         1 1UK     -0.207300
      5 C12         1.8220    1.2220   -0.7180 ca        1 1UK     -0.245600
      6 C11         3.1880    1.2770   -1.0850 ca        1 1UK      0.499200
      7 N4          4.0840    0.1600   -0.7170 n4        1 1UK     -0.830300
      8 N3          3.7340    2.3160   -1.7710 nb        1 1UK     -0.623000
      9 C10         2.9210    3.3260   -2.1140 ca        1 1UK      0.458200
     10 C13         0.9960    2.2880   -1.0860 ca        1 1UK     -0.017000
     11 C9          1.5390    3.3690   -1.7990 ca        1 1UK     -0.091300
     12 C5          0.7050    4.4880   -2.2150 cc        1 1UK     -0.075000
     13 C4          1.1730    5.7860   -2.1210 cd        1 1UK     -0.031300
     14 C6         -0.6150    4.2310   -2.7250 cc        1 1UK     -0.095000
     15 C7         -1.4310    5.2480   -3.1250 cd        1 1UK     -0.063000
     16 C8         -0.9590    6.6040   -3.0260 cd        1 1UK      0.016700
     17 N1          0.3670    6.8340   -2.5140 na        1 1UK      0.015700
     18 C3          0.5820    8.2070   -2.5160 cd        1 1UK     -0.125100
     19 N2         -1.5660    7.7770   -3.3430 nc        1 1UK     -0.247600
     20 C2         -0.6180    8.7670   -3.0320 cc        1 1UK      0.067600
     21 N          -0.8820   10.1780   -3.2250 n4        1 1UK     -0.529600
     22 C1         -1.9450   10.6850   -2.2240 c         1 1UK      0.578100
     23 O          -1.4860   11.0640   -1.1640 o         1 1UK     -0.390100
     24 C          -3.3440   10.6530   -2.7190 c3        1 1UK     -0.185100
     25 H1          3.7250   -0.7080   -1.1450 hn        1 1UK      0.490133
     26 H2          4.0820    0.0570    0.3090 hn        1 1UK      0.490133
     27 H3          3.4110    4.1430   -2.6860 h4        1 1UK      0.072100
     28 H4         -0.0750    2.2710   -0.8070 ha        1 1UK      0.202000
     29 H5          2.1730    6.0510   -1.7300 h4        1 1UK      0.188000
     30 H6         -0.9560    3.1840   -2.8020 ha        1 1UK      0.172000
     31 H7         -2.4450    5.0810   -3.5260 ha        1 1UK      0.203000
     32 H8          1.5080    8.6710   -2.1700 h4        1 1UK      0.222000
     33 H9         -1.2190   10.3300   -4.1860 hn        1 1UK      0.471800
     34 H10        -3.4780   11.3770   -3.5640 hc        1 1UK      0.125367
     35 H11        -3.6330    9.6270   -3.0650 hc        1 1UK      0.125367
     36 H12        -4.0230   10.9570   -1.8760 hc        1 1UK      0.125367
     37 H43         5.0480    0.3300   -1.0440 hn        1 1UK      0.490133
     38 HN3        -0.0020   10.6910   -3.0850 hn        1 1UK      0.471800
@<TRIPOS>BOND
     1    1    2 1   
     2    2    3 1   
     3    2    4 1   
     4    2    5 1   
     5    5    6 ar  
     6    5   10 ar  
     7    6    7 1   
     8    6    8 ar  
     9    7   25 1   
    10    7   26 1   
    11    7   37 1   
    12    8    9 ar  
    13    9   11 ar  
    14    9   27 1   
    15   10   11 ar  
    16   10   28 1   
    17   11   12 1   
    18   12   13 2   
    19   12   14 1   
    20   13   17 1   
    21   13   29 1   
    22   14   15 2   
    23   14   30 1   
    24   15   16 1   
    25   15   31 1   
    26   16   17 1   
    27   16   19 2   
    28   17   18 1   
    29   18   20 2   
    30   18   32 1   
    31   19   20 1   
    32   20   21 1   
    33   21   22 1   
    34   21   33 1   
    35   21   38 1   
    36   22   23 2   
    37   22   24 1   
    38   24   34 1   
    39   24   35 1   
    40   24   36 1   
@<TRIPOS>SUBSTRUCTURE
     1 1UK         1 TEMP              0 ****  ****    0 ROOT
