@<TRIPOS>MOLECULE
1UK
   36    29     1     0     0
SMALL
bcc


@<TRIPOS>ATOM
      1 F2          4.3050   -2.5790   -1.2550 f         1 1UK     -0.168333
      2 C14         4.2560   -3.3160   -0.1370 c3        1 1UK      0.479000
      3 F           4.4820   -4.6000   -0.4390 f         1 1UK     -0.168333
      4 F1          5.1910   -2.8880    0.7200 f         1 1UK     -0.168333
      5 C12         2.8920   -3.1800    0.4960 c2        1 1UK     -0.308000
      6 C11         2.5410   -3.9890    1.5630 c2        1 1UK      0.212000
      7 N4          3.4750   -4.9230    2.0840 n3        1 1UK     -0.362000
      8 N3          1.3020   -3.8840    2.1190 n1        1 1UK     -0.210000
      9 C10         0.4080   -2.9840    1.6270 c1        1 1UK      0.020000
     10 C13         1.9970   -2.2770    0.0020 c1        1 1UK      0.015000
     11 C9          0.7570   -2.1730    0.5600 c1        1 1UK     -0.156000
     12 C5         -0.2280   -1.1490    0.0320 c2        1 1UK     -0.059000
     13 C4         -0.4150    0.0090    0.7760 c2        1 1UK     -0.045000
     14 C6         -0.7720   -1.2520   -1.2260 c1        1 1UK     -0.117000
     15 C7         -1.4990   -0.2150   -1.7440 c1        1 1UK     -0.088000
     16 C8         -1.6870    0.9550   -0.9910 c1        1 1UK      0.001000
     17 N1         -1.1490    1.0560    0.2530 n1        1 1UK     -0.042000
     18 C3         -1.4970    2.2610    0.7620 c1        1 1UK     -0.259000
     19 N2         -2.3770    2.1130   -1.2500 n1        1 1UK     -0.123000
     20 C2         -2.2620    2.9150   -0.1780 c1        1 1UK      0.073000
     21 N          -2.5930    4.2910   -0.1540 n2        1 1UK     -0.318000
     22 C1         -3.0240    4.9380   -1.3440 c1        1 1UK      0.312000
     23 O          -3.1090    4.3080   -2.3820 o         1 1UK     -0.305000
     24 C          -3.4490    6.3890   -1.3030 c2        1 1UK     -0.247000
     25 H1          3.3020   -5.3510    2.8730 hn        1 1UK      0.245500
     26 H2          4.2500   -5.0940    1.6310 hn        1 1UK      0.245500
     27 H3         -0.4800   -2.9090    2.0260 ha        1 1UK      0.165000
     28 H4          2.2440   -1.7060   -0.7500 ha        1 1UK      0.161000
     29 H5          0.0010    0.0970    1.6530 h4        1 1UK      0.165000
     30 H6         -0.6370   -2.0640   -1.7500 ha        1 1UK      0.146000
     31 H7         -1.8860   -0.2880   -2.6370 ha        1 1UK      0.170000
     32 H8         -1.2500    2.6050    1.6410 DU        1 1UK      0.184000
     33 H9         -2.4670    4.7760    0.6080 hn        1 1UK      0.234000
     34 H10        -3.6110    6.6560   -0.3750 ha        1 1UK      0.106667
     35 H11        -2.7400    6.9470   -1.6850 ha        1 1UK      0.106667
     36 H12        -4.2720    6.5030   -1.8240 ha        1 1UK      0.106667
@<TRIPOS>BOND
     1    1    2 1   
     2    2    3 1   
     3    2    4 1   
     4    2    5 1   
     5    5    6 1   
     6    5   10 1   
     7    6    7 1   
     8    6    8 1   
     9    7   25 1   
    10    7   26 1   
    11    9   11 1   
    12    9   27 1   
    13   10   28 1   
    14   11   12 1   
    15   12   13 1   
    16   12   14 1   
    17   13   17 1   
    18   13   29 1   
    19   14   30 1   
    20   15   16 1   
    21   15   31 1   
    22   18   20 1   
    23   19   20 1   
    24   21   22 1   
    25   21   33 1   
    26   22   23 1   
    27   24   34 1   
    28   24   35 1   
    29   24   36 1   
@<TRIPOS>SUBSTRUCTURE
     1 1UK         1 TEMP              0 ****  ****    0 ROOT
