@<TRIPOS>MOLECULE
1UK
   36    38     1     0     0
SMALL
bcc


@<TRIPOS>ATOM
      1 F2         -4.6290   -1.8890   -1.0980 f         1 1UK     -0.239633
      2 C14        -4.9230   -0.6820   -0.5160 c3        1 1UK      0.700200
      3 F          -5.6030    0.0060   -1.4960 f         1 1UK     -0.239633
      4 F1         -5.9100   -0.9830    0.3970 f         1 1UK     -0.239633
      5 C12        -3.7380    0.0600    0.0660 ca        1 1UK     -0.381600
      6 C11        -3.9170    1.3290    0.7140 ca        1 1UK      0.734200
      7 N4         -5.1580    1.9050    0.8050 nh        1 1UK     -0.965500
      8 N3         -2.8320    2.0020    1.2510 nb        1 1UK     -0.735000
      9 C10        -1.6300    1.4420    1.1410 ca        1 1UK      0.486200
     10 C13        -2.4590   -0.4870   -0.0270 ca        1 1UK      0.014000
     11 C9         -1.3670    0.1980    0.5110 ca        1 1UK     -0.220300
     12 C5         -0.0180   -0.3340    0.4370 cc        1 1UK     -0.066000
     13 C4          1.0510    0.5090    0.1830 cd        1 1UK     -0.059300
     14 C6          0.2130   -1.7360    0.6270 cc        1 1UK     -0.111000
     15 C7          1.4720   -2.2610    0.5660 cd        1 1UK     -0.098000
     16 C8          2.5850   -1.3940    0.3060 cd        1 1UK     -0.017300
     17 N1          2.3260    0.0070    0.1190 na        1 1UK      0.023700
     18 C3          3.5510    0.6250   -0.1160 cd        1 1UK     -0.231100
     19 N2          3.9150   -1.6630    0.1970 nc        1 1UK     -0.316600
     20 C2          4.5240   -0.4160   -0.0650 cc        1 1UK      0.191200
     21 N           5.9000   -0.2750   -0.2420 n         1 1UK     -0.454100
     22 C1          6.5350    0.9340   -0.4940 c         1 1UK      0.667100
     23 O           5.9090    2.0070   -0.5820 o         1 1UK     -0.596100
     24 C           8.0360    0.8770   -0.6570 c3        1 1UK     -0.175100
     25 H1         -5.9500    1.4180    0.4660 hn        1 1UK      0.451300
     26 H2         -5.2810    2.7670    1.2760 hn        1 1UK      0.451300
     27 H3         -0.8020    2.0210    1.5960 h4        1 1UK      0.030100
     28 H4         -2.3150   -1.4580   -0.5310 ha        1 1UK      0.159000
     29 H5          0.9380    1.5950    0.0170 h4        1 1UK      0.169000
     30 H6         -0.6530   -2.3830    0.8330 ha        1 1UK      0.145000
     31 H7          1.6770   -3.3320    0.7100 ha        1 1UK      0.165000
     32 H8          3.6720    1.6930   -0.2960 h4        1 1UK      0.218000
     33 H9          6.4490   -1.1030   -0.1800 hn        1 1UK      0.334500
     34 H10         8.5160    0.4850    0.2720 hc        1 1UK      0.070367
     35 H11         8.3120    0.2210   -1.5170 hc        1 1UK      0.070367
     36 H12         8.4110    1.9110   -0.8520 hc        1 1UK      0.070367
@<TRIPOS>BOND
     1    1    2 1   
     2    2    3 1   
     3    2    4 1   
     4    2    5 1   
     5    5    6 ar  
     6    5   10 ar  
     7    6    7 1   
     8    6    8 ar  
     9    7   25 1   
    10    7   26 1   
    11    8    9 ar  
    12    9   11 ar  
    13    9   27 1   
    14   10   11 ar  
    15   10   28 1   
    16   11   12 1   
    17   12   13 2   
    18   12   14 1   
    19   13   17 1   
    20   13   29 1   
    21   14   15 2   
    22   14   30 1   
    23   15   16 1   
    24   15   31 1   
    25   16   17 1   
    26   16   19 2   
    27   17   18 1   
    28   18   20 2   
    29   18   32 1   
    30   19   20 1   
    31   20   21 1   
    32   21   22 1   
    33   21   33 1   
    34   22   23 2   
    35   22   24 1   
    36   24   34 1   
    37   24   35 1   
    38   24   36 1   
@<TRIPOS>SUBSTRUCTURE
     1 1UK         1 TEMP              0 ****  ****    0 ROOT
