@<TRIPOS>MOLECULE
1UK
   36    38     1     0     0
SMALL
bcc


@<TRIPOS>ATOM
      1 F2          0.1930   -0.6060   -0.8310 f         1 1UK     -0.239633
      2 C14         1.5130   -0.3370   -0.5650 c3        1 1UK      0.700200
      3 F           1.6660   -0.6890    0.7570 f         1 1UK     -0.239633
      4 F1          2.1960   -1.3280   -1.2340 f         1 1UK     -0.239633
      5 C12         1.9660    1.0690   -0.8980 ca        1 1UK     -0.381600
      6 C11         3.3260    1.4700   -0.6770 ca        1 1UK      0.734200
      7 N4          4.2410    0.5970   -0.1460 nh        1 1UK     -0.965500
      8 N3          3.7390    2.7550   -0.9890 nb        1 1UK     -0.735000
      9 C10         2.8390    3.5980   -1.4880 ca        1 1UK      0.486200
     10 C13         1.0570    1.9890   -1.4210 ca        1 1UK      0.014000
     11 C9          1.4760    3.2850   -1.7280 ca        1 1UK     -0.220300
     12 C5          0.5650    4.2740   -2.2760 cc        1 1UK     -0.066000
     13 C4          0.6330    5.5930   -1.8550 cd        1 1UK     -0.059300
     14 C6         -0.4100    3.8910   -3.2530 cc        1 1UK     -0.111000
     15 C7         -1.2770    4.8030   -3.7850 cd        1 1UK     -0.098000
     16 C8         -1.2100    6.1700   -3.3570 cd        1 1UK     -0.017300
     17 N1         -0.2240    6.5280   -2.3760 na        1 1UK      0.023700
     18 C3         -0.3620    7.8910   -2.1320 cd        1 1UK     -0.231100
     19 N2         -1.9480    7.2530   -3.7270 nc        1 1UK     -0.316600
     20 C2         -1.4290    8.3280   -2.9710 cc        1 1UK      0.191200
     21 N          -1.9290    9.6260   -3.0700 n         1 1UK     -0.454100
     22 C1         -1.4410   10.7080   -2.3490 c         1 1UK      0.667100
     23 O          -0.4990   10.5980   -1.5430 o         1 1UK     -0.596100
     24 C          -2.1190   12.0340   -2.5980 c3        1 1UK     -0.175100
     25 H1          3.9740   -0.3370    0.0430 hn        1 1UK      0.451300
     26 H2          5.1840    0.8700   -0.0200 hn        1 1UK      0.451300
     27 H3          3.2270    4.6080   -1.7260 h4        1 1UK      0.030100
     28 H4          0.0080    1.6880   -1.5850 ha        1 1UK      0.159000
     29 H5          1.3530    5.9490   -1.0980 h4        1 1UK      0.169000
     30 H6         -0.4400    2.8380   -3.5740 ha        1 1UK      0.145000
     31 H7         -2.0320    4.5350   -4.5380 ha        1 1UK      0.165000
     32 H8          0.2530    8.4510   -1.4270 h4        1 1UK      0.218000
     33 H9         -2.6830    9.7700   -3.7030 hn        1 1UK      0.334500
     34 H10        -1.6290   12.8090   -1.9580 hc        1 1UK      0.070367
     35 H11        -2.0190   12.3320   -3.6700 hc        1 1UK      0.070367
     36 H12        -3.2030   11.9760   -2.3330 hc        1 1UK      0.070367
@<TRIPOS>BOND
     1    1    2 1   
     2    2    3 1   
     3    2    4 1   
     4    2    5 1   
     5    5    6 ar  
     6    5   10 ar  
     7    6    7 1   
     8    6    8 ar  
     9    7   25 1   
    10    7   26 1   
    11    8    9 ar  
    12    9   11 ar  
    13    9   27 1   
    14   10   11 ar  
    15   10   28 1   
    16   11   12 1   
    17   12   13 2   
    18   12   14 1   
    19   13   17 1   
    20   13   29 1   
    21   14   15 2   
    22   14   30 1   
    23   15   16 1   
    24   15   31 1   
    25   16   17 1   
    26   16   19 2   
    27   17   18 1   
    28   18   20 2   
    29   18   32 1   
    30   19   20 1   
    31   20   21 1   
    32   21   22 1   
    33   21   33 1   
    34   22   23 2   
    35   22   24 1   
    36   24   34 1   
    37   24   35 1   
    38   24   36 1   
@<TRIPOS>SUBSTRUCTURE
     1 1UK         1 TEMP              0 ****  ****    0 ROOT
