@<TRIPOS>MOLECULE
1UL
   54    46     1     0     0
SMALL
bcc


@<TRIPOS>ATOM
      1 O1         -1.0580    7.1830    1.5780 o         1 1UL     -0.361000
      2 C1         -2.1000    6.6380    1.2450 c1        1 1UL      0.300000
      3 C23        -3.2210    7.4610    0.5860 c2        1 1UL     -0.238000
      4 N1         -2.3330    5.2560    1.5900 n3        1 1UL     -0.325000
      5 C22        -1.3660    4.4410    2.3380 c3        1 1UL     -0.033500
      6 C21        -1.0580    3.1380    1.6400 c3        1 1UL     -0.196000
      7 C4         -2.2840    2.3990    1.2810 c3        1 1UL      0.058000
      8 C3         -3.2550    3.2520    0.5240 c3        1 1UL     -0.196000
      9 C2         -3.5420    4.5470    1.2260 c3        1 1UL     -0.033500
     10 N2         -1.9270    1.2490    0.4620 n3        1 1UL     -0.125000
     11 C7         -1.6950   -0.0050    0.9120 c1        1 1UL     -0.110000
     12 C6         -1.3390   -0.7790   -0.1580 c1        1 1UL     -0.131000
     13 C5         -1.3550    0.0120   -1.2700 c1        1 1UL     -0.158000
     14 N3         -1.7160    1.2580   -0.8940 n2        1 1UL     -0.076000
     15 C8         -0.8900   -2.2660   -0.1050 c1        1 1UL     -0.041000
     16 C14        -1.9870   -3.0280    0.2300 c2        1 1UL     -0.045000
     17 N4         -1.8890   -4.3990    0.2580 n1        1 1UL     -0.184000
     18 C13        -0.7080   -5.0050   -0.0450 c1        1 1UL      0.135000
     19 N5         -0.7210   -6.4640    0.1750 n3        1 1UL     -0.319000
     20 C12         0.4030   -4.2370   -0.3850 c1        1 1UL     -0.091000
     21 C9          0.3050   -2.8760   -0.4120 c1        1 1UL     -0.017000
     22 O2          1.7100   -4.5840   -0.7400 o         1 1UL     -0.102000
     23 C11         2.4010   -3.4350   -0.9810 c1        1 1UL      0.037000
     24 C10         1.5370   -2.3660   -0.7800 c1        1 1UL     -0.170000
     25 C15         3.9380   -3.4660   -1.2480 c1        1 1UL      0.012000
     26 C20         4.3830   -3.8760   -2.5170 c1        1 1UL     -0.284000
     27 S           3.6210   -4.1890   -3.8570 s         1 1UL      0.277700
     28 N7          4.6240   -4.5170   -4.8670 n2        1 1UL     -0.005700
     29 N6          5.9460   -4.4270   -4.2350 n2        1 1UL      0.003000
     30 C19         5.7520   -4.0210   -2.7590 c1        1 1UL     -0.145000
     31 C18         6.6730   -3.7580   -1.7380 c1        1 1UL     -0.090500
     32 C17         6.2260   -3.3510   -0.4810 c1        1 1UL     -0.090500
     33 C16         4.8620   -3.2050   -0.2360 c1        1 1UL     -0.081000
     34 H1         -3.3370    7.1790   -0.3010 ha        1 1UL      0.107000
     35 H2         -4.0740    7.3300    1.0930 ha        1 1UL      0.107000
     36 H3         -2.9800    8.4040    0.5980 ha        1 1UL      0.107000
     37 H4         -0.5370    4.9490    2.4480 h1        1 1UL      0.100750
     38 H5         -1.7610    4.2320    3.2820 h1        1 1UL      0.100750
     39 H6         -0.5270    2.5940    2.2160 hc        1 1UL      0.109000
     40 H7         -0.5740    3.3190    0.8600 hc        1 1UL      0.109000
     41 H8         -2.6990    2.0930    2.0770 h1        1 1UL      0.100000
     42 H9         -2.8880    3.4440   -0.3520 hc        1 1UL      0.109000
     43 H10        -4.0580    2.7780    0.4220 hc        1 1UL      0.109000
     44 H11        -4.0480    4.3620    2.0260 h1        1 1UL      0.100750
     45 H12        -4.0690    5.1060    0.6470 h1        1 1UL      0.100750
     46 H13        -1.7640   -0.2800    1.7620 DU        1 1UL      0.176667
     47 H14        -1.1440   -0.2710   -2.1710 DU        1 1UL      0.176667
     48 H15        -2.8200   -2.6010    0.4450 h4        1 1UL      0.158000
     49 H16         0.0350   -6.9490    0.0470 hn        1 1UL      0.211000
     50 H17        -1.5080   -6.8880    0.4440 hn        1 1UL      0.211000
     51 H18         1.7550   -1.4420   -0.8780 DU        1 1UL      0.176667
     52 H19         7.5940   -3.8560   -1.9000 ha        1 1UL      0.153500
     53 H20         6.9080   -3.1600    0.2730 ha        1 1UL      0.153500
     54 H21         4.5600   -2.9250    0.6260 ha        1 1UL      0.147000
@<TRIPOS>BOND
     1    1    2 1   
     2    2    4 1   
     3    3   34 1   
     4    3   35 1   
     5    3   36 1   
     6    4    5 1   
     7    4    9 1   
     8    5    6 1   
     9    5   37 1   
    10    5   38 1   
    11    6    7 1   
    12    6   39 1   
    13    6   40 1   
    14    7    8 1   
    15    7   10 1   
    16    7   41 1   
    17    8    9 1   
    18    8   42 1   
    19    8   43 1   
    20    9   44 1   
    21    9   45 1   
    22   10   11 1   
    23   10   14 1   
    24   11   12 1   
    25   12   13 1   
    26   13   14 1   
    27   15   16 1   
    28   15   21 1   
    29   16   17 1   
    30   16   48 1   
    31   18   19 1   
    32   18   20 1   
    33   19   49 1   
    34   19   50 1   
    35   22   23 1   
    36   23   24 1   
    37   25   26 1   
    38   25   33 1   
    39   26   30 1   
    40   27   28 2   
    41   28   29 1   
    42   29   30 1   
    43   31   32 1   
    44   31   52 1   
    45   32   53 1   
    46   33   54 1   
@<TRIPOS>SUBSTRUCTURE
     1 1UL         1 TEMP              0 ****  ****    0 ROOT
