@<TRIPOS>MOLECULE
1UL
   54    59     1     0     0
SMALL
bcc


@<TRIPOS>ATOM
      1 O1         -8.5080   -0.2900    2.0550 o         1 1UL     -0.600100
      2 C1         -8.3400    0.0930    0.8800 c         1 1UL      0.655100
      3 C23        -9.1020    1.2810    0.3500 c3        1 1UL     -0.170100
      4 N1         -7.4990   -0.6240    0.0260 n         1 1UL     -0.467800
      5 C22        -6.6830   -1.6970    0.5550 c3        1 1UL      0.083500
      6 C21        -5.1870   -1.3790    0.6010 c3        1 1UL     -0.120900
      7 C4         -4.7070   -0.9170   -0.7830 c3        1 1UL      0.066000
      8 C3         -5.5500    0.2850   -1.2400 c3        1 1UL     -0.120900
      9 C2         -7.0340   -0.0920   -1.2320 c3        1 1UL      0.083500
     10 N2         -3.2750   -0.6180   -0.7980 na        1 1UL      0.089400
     11 C7         -2.6510    0.3190    0.0310 cc        1 1UL     -0.131300
     12 C6         -1.2850    0.3190   -0.3140 cd        1 1UL     -0.198300
     13 C5         -1.1880   -0.6600   -1.3810 cd        1 1UL      0.307200
     14 N3         -2.4040   -1.1960   -1.6430 nc        1 1UL     -0.508800
     15 C8         -0.2370    1.1140    0.2510 ca        1 1UL     -0.106300
     16 C14        -0.5070    2.3890    0.7990 ca        1 1UL      0.420200
     17 N4          0.3830    3.2320    1.3500 nb        1 1UL     -0.710000
     18 C13         1.6980    2.8540    1.4260 ca        1 1UL      0.656200
     19 N5          2.6440    3.6390    2.0830 nh        1 1UL     -0.921500
     20 C12         2.0570    1.5900    0.8840 ca        1 1UL     -0.111200
     21 C9          1.1040    0.7070    0.3010 ca        1 1UL     -0.028800
     22 O2          3.3370    1.0340    0.8470 os        1 1UL     -0.190200
     23 C11         3.1790   -0.2290    0.2350 cc        1 1UL      0.091900
     24 C10         1.8600   -0.4620   -0.1030 cd        1 1UL     -0.158200
     25 C15         4.3610   -1.0440    0.0760 ca        1 1UL      0.001200
     26 C20         5.6560   -0.5110    0.0180 ca        1 1UL     -0.053100
     27 S           6.3000    1.0600    0.1020 ss        1 1UL      0.153600
     28 N7          7.8940    0.5170   -0.0930 nc        1 1UL     -0.117500
     29 N6          8.0240   -0.7020   -0.2130 nd        1 1UL     -0.135400
     30 C19         6.7770   -1.3990   -0.1650 ca        1 1UL     -0.004600
     31 C18         6.5930   -2.7840   -0.2790 ca        1 1UL     -0.039000
     32 C17         5.3000   -3.2830   -0.2150 ca        1 1UL     -0.141000
     33 C16         4.2030   -2.4310   -0.0410 ca        1 1UL     -0.080000
     34 H1         -8.4020    2.1180    0.1120 hc        1 1UL      0.067367
     35 H2         -9.6820    1.0090   -0.5650 hc        1 1UL      0.067367
     36 H3         -9.8160    1.6230    1.1400 hc        1 1UL      0.067367
     37 H4         -7.0320   -1.9560    1.5950 h1        1 1UL      0.064200
     38 H5         -6.8430   -2.5980   -0.1060 h1        1 1UL      0.064200
     39 H6         -4.9850   -0.5880    1.3680 hc        1 1UL      0.063450
     40 H7         -4.6390   -2.3060    0.9110 hc        1 1UL      0.063450
     41 H8         -4.8860   -1.7640   -1.5140 h1        1 1UL      0.089700
     42 H9         -5.3670    1.1620   -0.5680 hc        1 1UL      0.063450
     43 H10        -5.2660    0.5830   -2.2820 hc        1 1UL      0.063450
     44 H11        -7.2050   -0.8860   -2.0170 h1        1 1UL      0.064200
     45 H12        -7.6330    0.8130   -1.5270 h1        1 1UL      0.064200
     46 H13        -3.1950    0.8880    0.7840 h4        1 1UL      0.179000
     47 H14        -0.2950   -0.9490   -1.9360 h4        1 1UL      0.044100
     48 H15        -1.5440    2.7770    0.7860 h4        1 1UL      0.021100
     49 H16         2.4000    4.5920    2.2380 hn        1 1UL      0.416300
     50 H17         3.5810    3.4840    1.7850 hn        1 1UL      0.416300
     51 H18         1.4450   -1.3470   -0.5800 ha        1 1UL      0.170000
     52 H19         7.4580   -3.4510   -0.4150 ha        1 1UL      0.160000
     53 H20         5.1290   -4.3670   -0.3000 ha        1 1UL      0.147000
     54 H21         3.1900   -2.8620    0.0090 ha        1 1UL      0.147000
@<TRIPOS>BOND
     1    1    2 2   
     2    2    3 1   
     3    2    4 1   
     4    3   34 1   
     5    3   35 1   
     6    3   36 1   
     7    4    5 1   
     8    4    9 1   
     9    5    6 1   
    10    5   37 1   
    11    5   38 1   
    12    6    7 1   
    13    6   39 1   
    14    6   40 1   
    15    7    8 1   
    16    7   10 1   
    17    7   41 1   
    18    8    9 1   
    19    8   42 1   
    20    8   43 1   
    21    9   44 1   
    22    9   45 1   
    23   10   11 1   
    24   10   14 1   
    25   11   12 2   
    26   11   46 1   
    27   12   13 1   
    28   12   15 1   
    29   13   14 2   
    30   13   47 1   
    31   15   16 ar  
    32   15   21 ar  
    33   16   17 ar  
    34   16   48 1   
    35   17   18 ar  
    36   18   19 1   
    37   18   20 ar  
    38   19   49 1   
    39   19   50 1   
    40   20   21 ar  
    41   20   22 1   
    42   21   24 1   
    43   22   23 1   
    44   23   24 2   
    45   23   25 1   
    46   24   51 1   
    47   25   26 ar  
    48   25   33 ar  
    49   26   27 1   
    50   26   30 ar  
    51   27   28 1   
    52   28   29 2   
    53   29   30 1   
    54   30   31 ar  
    55   31   32 ar  
    56   31   52 1   
    57   32   33 ar  
    58   32   53 1   
    59   33   54 1   
@<TRIPOS>SUBSTRUCTURE
     1 1UL         1 TEMP              0 ****  ****    0 ROOT
