@<TRIPOS>MOLECULE
1UL
   55    60     1     0     0
SMALL
bcc


@<TRIPOS>ATOM
      1 O1          1.7640   -0.5100    1.4150 o         1 1UL     -0.589100
      2 C1          2.5460    0.1310    0.6880 c         1 1UL      0.654100
      3 C23         3.7760    0.7850    1.2640 c3        1 1UL     -0.170100
      4 N1          2.2430    0.3140   -0.6680 n         1 1UL     -0.467800
      5 C22         1.0740   -0.3280   -1.2300 c3        1 1UL      0.082000
      6 C21         1.3920   -1.5410   -2.1090 c3        1 1UL     -0.122400
      7 C4          2.4120   -1.1470   -3.1860 c3        1 1UL      0.054000
      8 C3          3.6620   -0.5410   -2.5320 c3        1 1UL     -0.122400
      9 C2          3.2550    0.6400   -1.6420 c3        1 1UL      0.082000
     10 N2          2.7500   -2.2820   -4.0600 na        1 1UL      0.123400
     11 C7          3.1720   -3.5250   -3.6160 cc        1 1UL     -0.075300
     12 C6          3.3900   -4.3230   -4.7720 cd        1 1UL     -0.291300
     13 C5          3.0740   -3.4300   -5.8760 cd        1 1UL      0.344200
     14 N3          2.7010   -2.2190   -5.4070 nc        1 1UL     -0.483800
     15 C8          3.8220   -5.6730   -4.8260 ca        1 1UL      0.063700
     16 C14         4.4720   -6.2660   -3.6880 ca        1 1UL      0.380200
     17 N4          4.9390   -7.5090   -3.6050 nb        1 1UL     -0.610000
     18 C13         4.7990   -8.3230   -4.6980 ca        1 1UL      0.371200
     19 N5          5.3150   -9.6950   -4.6340 n4        1 1UL     -0.792300
     20 C12         4.1730   -7.8510   -5.8550 ca        1 1UL      0.009800
     21 C9          3.6670   -6.5100   -5.9360 ca        1 1UL     -0.076800
     22 O2          3.9370   -8.5480   -7.0260 os        1 1UL     -0.215200
     23 C11         3.2540   -7.6340   -7.8840 cc        1 1UL      0.136900
     24 C10         3.0790   -6.4150   -7.2600 cd        1 1UL     -0.146200
     25 C15         2.8830   -8.1290   -9.1860 ca        1 1UL     -0.036800
     26 C20         3.4330   -9.2900   -9.7450 ca        1 1UL     -0.034100
     27 S           4.5820  -10.4340   -9.2250 ss        1 1UL      0.066600
     28 N7          4.4610  -11.3470  -10.6630 nc        1 1UL     -0.071500
     29 N6          3.6690  -10.9040  -11.4880 nd        1 1UL     -0.110400
     30 C19         3.0120   -9.7060  -11.0590 ca        1 1UL      0.000400
     31 C18         2.0650   -8.9730  -11.7850 ca        1 1UL     -0.009000
     32 C17         1.5360   -7.8260  -11.2040 ca        1 1UL     -0.138000
     33 C16         1.9340   -7.4110   -9.9300 ca        1 1UL     -0.059000
     34 H1          4.6970    0.2720    0.8960 hc        1 1UL      0.071700
     35 H2          3.7340    0.6940    2.3780 hc        1 1UL      0.071700
     36 H3          3.8200    1.8680    0.9930 hc        1 1UL      0.071700
     37 H4          0.3880   -0.6550   -0.3970 h1        1 1UL      0.073200
     38 H5          0.5330    0.4410   -1.8540 h1        1 1UL      0.073200
     39 H6          1.7900   -2.3750   -1.4750 hc        1 1UL      0.063200
     40 H7          0.4390   -1.8920   -2.5840 hc        1 1UL      0.063200
     41 H8          1.9390   -0.3510   -3.8420 h1        1 1UL      0.104700
     42 H9          4.3680   -0.1660   -3.3170 hc        1 1UL      0.063200
     43 H10         4.1970   -1.3160   -1.9250 hc        1 1UL      0.063200
     44 H11         4.1780    1.0400   -1.1370 h1        1 1UL      0.073200
     45 H12         2.8430    1.4590   -2.3020 h1        1 1UL      0.073200
     46 H13         3.2730   -3.7690   -2.5570 h4        1 1UL      0.190000
     47 H14         3.1380   -3.6370   -6.9460 h4        1 1UL      0.052100
     48 H15         4.6220   -5.6570   -2.7730 h4        1 1UL      0.055100
     49 H16         5.1130  -10.1630   -5.5260 hn        1 1UL      0.470467
     50 H17         6.3290   -9.6790   -4.4720 hn        1 1UL      0.470467
     51 H18         2.5840   -5.5360   -7.6690 ha        1 1UL      0.191000
     52 H19         1.7520   -9.3020  -12.7900 ha        1 1UL      0.177000
     53 H20         0.7870   -7.2330  -11.7540 ha        1 1UL      0.163000
     54 H21         1.4890   -6.4980   -9.5000 ha        1 1UL      0.149000
     55 H53         4.8610  -10.2040   -3.8650 hn        1 1UL      0.470467
@<TRIPOS>BOND
     1    1    2 2   
     2    2    3 1   
     3    2    4 1   
     4    3   34 1   
     5    3   35 1   
     6    3   36 1   
     7    4    5 1   
     8    4    9 1   
     9    5    6 1   
    10    5   37 1   
    11    5   38 1   
    12    6    7 1   
    13    6   39 1   
    14    6   40 1   
    15    7    8 1   
    16    7   10 1   
    17    7   41 1   
    18    8    9 1   
    19    8   42 1   
    20    8   43 1   
    21    9   44 1   
    22    9   45 1   
    23   10   11 1   
    24   10   14 1   
    25   11   12 2   
    26   11   46 1   
    27   12   13 1   
    28   12   15 1   
    29   13   14 2   
    30   13   47 1   
    31   15   16 ar  
    32   15   21 ar  
    33   16   17 ar  
    34   16   48 1   
    35   17   18 ar  
    36   18   19 1   
    37   18   20 ar  
    38   19   49 1   
    39   19   50 1   
    40   19   55 1   
    41   20   21 ar  
    42   20   22 1   
    43   21   24 1   
    44   22   23 1   
    45   23   24 2   
    46   23   25 1   
    47   24   51 1   
    48   25   26 ar  
    49   25   33 ar  
    50   26   27 1   
    51   26   30 ar  
    52   27   28 1   
    53   28   29 2   
    54   29   30 1   
    55   30   31 ar  
    56   31   32 ar  
    57   31   52 1   
    58   32   33 ar  
    59   32   53 1   
    60   33   54 1   
@<TRIPOS>SUBSTRUCTURE
     1 1UL         1 TEMP              0 ****  ****    0 ROOT
