@<TRIPOS>MOLECULE
1UL
   54    59     1     0     0
SMALL
bcc


@<TRIPOS>ATOM
      1 O1          1.1690   -0.3200    1.2320 o         1 1UL     -0.600100
      2 C1          2.1630    0.1360    0.6320 c         1 1UL      0.655100
      3 C23         3.3740    0.5960    1.4040 c3        1 1UL     -0.170100
      4 N1          2.1310    0.2900   -0.7550 n         1 1UL     -0.467800
      5 C22         1.0200   -0.2470   -1.5130 c3        1 1UL      0.083500
      6 C21         1.3790   -1.4620   -2.3710 c3        1 1UL     -0.120900
      7 C4          2.5830   -1.1330   -3.2670 c3        1 1UL      0.066000
      8 C3          3.7560   -0.6630   -2.3920 c3        1 1UL     -0.120900
      9 C2          3.3190    0.5310   -1.5380 c3        1 1UL      0.083500
     10 N2          2.9560   -2.2570   -4.1240 na        1 1UL      0.089400
     11 C7          3.3060   -3.5290   -3.6580 cc        1 1UL     -0.131300
     12 C6          3.6160   -4.3050   -4.7920 cd        1 1UL     -0.198300
     13 C5          3.4270   -3.3960   -5.9080 cd        1 1UL      0.307200
     14 N3          3.0350   -2.1780   -5.4640 nc        1 1UL     -0.508800
     15 C8          4.0350   -5.6730   -4.8310 ca        1 1UL     -0.106300
     16 C14         4.7450   -6.2470   -3.7520 ca        1 1UL      0.420200
     17 N4          5.1990   -7.5100   -3.6680 nb        1 1UL     -0.710000
     18 C13         4.9570   -8.3720   -4.7050 ca        1 1UL      0.656200
     19 N5          5.3070   -9.7200   -4.6270 nv        1 1UL     -0.921500
     20 C12         4.2600   -7.8700   -5.8380 ca        1 1UL     -0.111200
     21 C9          3.7870   -6.5290   -5.9140 ca        1 1UL     -0.028800
     22 O2          3.9340   -8.5790   -6.9950 os        1 1UL     -0.190200
     23 C11         3.2350   -7.6630   -7.8110 cc        1 1UL      0.091900
     24 C10         3.1240   -6.4280   -7.1990 cd        1 1UL     -0.158200
     25 C15         2.7570   -8.1380   -9.0890 ca        1 1UL      0.001200
     26 C20         3.3370   -9.2190   -9.7680 ca        1 1UL     -0.053100
     27 S           4.6310  -10.2720   -9.4410 ss        1 1UL      0.153600
     28 N7          4.4320  -11.1160  -10.8980 nc        1 1UL     -0.117500
     29 N6          3.5130  -10.7190  -11.6150 nd        1 1UL     -0.135400
     30 C19         2.8080   -9.6110  -11.0500 ca        1 1UL     -0.004600
     31 C18         1.7230   -8.9350  -11.6250 ca        1 1UL     -0.039000
     32 C17         1.1690   -7.8710  -10.9280 ca        1 1UL     -0.141000
     33 C16         1.6750   -7.4780   -9.6830 ca        1 1UL     -0.080000
     34 H1          3.1460    0.5160    2.4960 hc        1 1UL      0.067367
     35 H2          3.6220    1.6580    1.1650 hc        1 1UL      0.067367
     36 H3          4.2530   -0.0520    1.1720 hc        1 1UL      0.067367
     37 H4          0.6430    0.5750   -2.1870 h1        1 1UL      0.064200
     38 H5          0.1890   -0.5340   -0.8070 h1        1 1UL      0.064200
     39 H6          0.4890   -1.7250   -2.9990 hc        1 1UL      0.063450
     40 H7          1.6090   -2.3420   -1.7160 hc        1 1UL      0.063450
     41 H8          2.2880   -0.2720   -3.9430 h1        1 1UL      0.089700
     42 H9          4.6150   -0.3420   -3.0360 hc        1 1UL      0.063450
     43 H10         4.1090   -1.5010   -1.7370 hc        1 1UL      0.063450
     44 H11         4.1780    0.8300   -0.8760 h1        1 1UL      0.064200
     45 H12         3.0990    1.4000   -2.2260 h1        1 1UL      0.064200
     46 H13         3.2980   -3.7860   -2.5990 h4        1 1UL      0.179000
     47 H14         3.5810   -3.6050   -6.9670 h4        1 1UL      0.044100
     48 H15         4.9820   -5.6250   -2.8670 h4        1 1UL      0.021100
     49 H16         5.9780   -9.9640   -3.9340 hn        1 1UL      0.416300
     50 H17         5.4290  -10.1610   -5.5100 hn        1 1UL      0.416300
     51 H18         2.6340   -5.5390   -7.5880 ha        1 1UL      0.170000
     52 H19         1.3280   -9.2460  -12.6040 ha        1 1UL      0.160000
     53 H20         0.3140   -7.3240  -11.3560 ha        1 1UL      0.147000
     54 H21         1.2070   -6.6310   -9.1550 ha        1 1UL      0.147000
@<TRIPOS>BOND
     1    1    2 2   
     2    2    3 1   
     3    2    4 1   
     4    3   34 1   
     5    3   35 1   
     6    3   36 1   
     7    4    5 1   
     8    4    9 1   
     9    5    6 1   
    10    5   37 1   
    11    5   38 1   
    12    6    7 1   
    13    6   39 1   
    14    6   40 1   
    15    7    8 1   
    16    7   10 1   
    17    7   41 1   
    18    8    9 1   
    19    8   42 1   
    20    8   43 1   
    21    9   44 1   
    22    9   45 1   
    23   10   11 1   
    24   10   14 1   
    25   11   12 2   
    26   11   46 1   
    27   12   13 1   
    28   12   15 1   
    29   13   14 2   
    30   13   47 1   
    31   15   16 ar  
    32   15   21 ar  
    33   16   17 ar  
    34   16   48 1   
    35   17   18 ar  
    36   18   19 1   
    37   18   20 ar  
    38   19   49 1   
    39   19   50 1   
    40   20   21 ar  
    41   20   22 1   
    42   21   24 1   
    43   22   23 1   
    44   23   24 2   
    45   23   25 1   
    46   24   51 1   
    47   25   26 ar  
    48   25   33 ar  
    49   26   27 1   
    50   26   30 ar  
    51   27   28 1   
    52   28   29 2   
    53   29   30 1   
    54   30   31 ar  
    55   31   32 ar  
    56   31   52 1   
    57   32   33 ar  
    58   32   53 1   
    59   33   54 1   
@<TRIPOS>SUBSTRUCTURE
     1 1UL         1 TEMP              0 ****  ****    0 ROOT
