@<TRIPOS>MOLECULE
1UN
   87    90     1     0     0
SMALL
bcc


@<TRIPOS>ATOM
      1 C1          0.1530   -0.1710   -0.1180 c3        1 1UN     -0.069700
      2 C2          1.6650   -0.3130   -0.2110 c3        1 1UN     -0.052700
      3 C3          2.2990   -0.2840    1.1730 c3        1 1UN     -0.079400
      4 C4          1.6660   -1.2690    2.1350 c3        1 1UN     -0.080400
      5 C5          0.1630   -1.1050    2.1990 c3        1 1UN     -0.084400
      6 C6         -0.4710   -1.1870    0.8260 c3        1 1UN     -0.073400
      7 N7          0.0230   -1.2200   -2.4560 n3        1 1UN     -0.753600
      8 C8          1.4060   -1.6550   -2.3510 c3        1 1UN      0.177500
      9 C9          2.0140   -1.5950   -0.9440 c3        1 1UN     -0.100400
     10 C10        -0.4650   -0.2220   -1.5120 c3        1 1UN      0.176800
     11 C11         1.5150   -3.1040   -2.9090 c         1 1UN      0.531100
     12 N12         2.6300   -3.9930   -2.4240 n4        1 1UN     -0.688800
     13 C13         3.8350   -4.0630   -3.3770 c3        1 1UN      0.160200
     14 C14         5.0120   -4.6800   -2.6140 c3        1 1UN     -0.131767
     15 C15         3.4910   -4.9470   -4.5770 c3        1 1UN     -0.131767
     16 C16         4.2180   -2.6640   -3.8540 c3        1 1UN     -0.131767
     17 O17         0.7900   -3.6200   -3.7490 o         1 1UN     -0.437100
     18 C18        -0.3690   -0.8890   -3.8250 c3        1 1UN      0.137800
     19 C19        -1.8960   -0.9710   -4.0480 c3        1 1UN      0.130100
     20 C20        -2.1960   -1.4070   -5.5080 c3        1 1UN      0.141500
     21 O21        -2.5170    0.2960   -3.8980 oh        1 1UN     -0.624800
     22 N22        -3.6760   -1.4640   -5.7580 n4        1 1UN     -0.695800
     23 C23        -1.5260   -0.4680   -6.5120 c3        1 1UN     -0.092300
     24 C24        -4.3780   -2.6940   -5.2120 c         1 1UN      0.592700
     25 O25        -3.6790   -3.5240   -4.6540 o         1 1UN     -0.428100
     26 C29        -5.8290   -2.6880   -5.4520 ca        1 1UN     -0.182600
     27 C30        -6.5910   -1.6070   -4.9750 ca        1 1UN     -0.143000
     28 C31        -7.9700   -1.6030   -5.1490 ca        1 1UN     -0.078000
     29 C32        -8.6010   -2.6610   -5.8040 ca        1 1UN     -0.149000
     30 C33        -7.8370   -3.7330   -6.2780 ca        1 1UN      0.136100
     31 C34        -6.4280   -3.7720   -6.1070 ca        1 1UN     -0.020300
     32 O38        -8.3790   -4.8060   -6.9340 oh        1 1UN     -0.474100
     33 C39        -5.6870   -4.9400   -6.6270 c3        1 1UN     -0.071800
     34 S74        -2.0740   -0.8180   -8.1560 ss        1 1UN     -0.184000
     35 C77        -2.6870    0.6640   -8.7380 ca        1 1UN     -0.068100
     36 C78        -3.8600    0.5990   -9.4990 ca        1 1UN     -0.099500
     37 C79        -4.3620    1.7490  -10.1060 ca        1 1UN     -0.116500
     38 C80        -3.7070    2.9700   -9.9400 ca        1 1UN     -0.084000
     39 C81        -2.5420    3.0380   -9.1750 ca        1 1UN     -0.116500
     40 C82        -2.0270    1.8860   -8.5830 ca        1 1UN     -0.099500
     41 H1         -0.0720    0.8560    0.2970 hc        1 1UN      0.086700
     42 H2          2.0710    0.5580   -0.8010 hc        1 1UN      0.060700
     43 H31A        3.3970   -0.4940    1.0860 hc        1 1UN      0.060700
     44 H32A        2.1880    0.7550    1.5860 hc        1 1UN      0.060700
     45 H41         2.1010   -1.1110    3.1580 hc        1 1UN      0.048200
     46 H42         1.9180   -2.3180    1.8290 hc        1 1UN      0.048200
     47 H51        -0.0850   -0.1150    2.6660 hc        1 1UN      0.062700
     48 H52        -0.2730   -1.9020    2.8570 hc        1 1UN      0.062700
     49 H61        -0.3590   -2.2220    0.4110 hc        1 1UN      0.045200
     50 H62        -1.5710   -0.9830    0.9120 hc        1 1UN      0.045200
     51 H8          2.0820   -1.0610   -3.0510 h1        1 1UN      0.076700
     52 H91         1.6480   -2.4580   -0.3240 hc        1 1UN      0.060700
     53 H92         3.1320   -1.6510   -1.0360 hc        1 1UN      0.060700
     54 H101       -1.5680   -0.4430   -1.3960 h1        1 1UN      0.047700
     55 H102       -0.3570    0.8120   -1.9620 h1        1 1UN      0.047700
     56 HNC         2.2670   -4.9510   -2.3330 hn        1 1UN      0.460800
     57 H141        4.7640   -5.6990   -2.2300 hc        1 1UN      0.079367
     58 H142        5.3360   -4.0300   -1.7660 hc        1 1UN      0.079367
     59 H143        5.8740   -4.7810   -3.3220 hc        1 1UN      0.079367
     60 H151        2.5900   -4.5680   -5.1190 hc        1 1UN      0.079367
     61 H152        4.3590   -4.9350   -5.2830 hc        1 1UN      0.079367
     62 H153        3.3130   -6.0040   -4.2630 hc        1 1UN      0.079367
     63 H161        4.4190   -1.9760   -2.9970 hc        1 1UN      0.079367
     64 H162        3.4210   -2.2290   -4.5050 hc        1 1UN      0.079367
     65 H163        5.1560   -2.7430   -4.4610 hc        1 1UN      0.079367
     66 H181       -0.0350    0.1510   -4.1170 h1        1 1UN      0.064200
     67 H182        0.1230   -1.6210   -4.5270 h1        1 1UN      0.064200
     68 H19        -2.3650   -1.7160   -3.3410 h1        1 1UN      0.086700
     69 H20        -1.7950   -2.4590   -5.6400 hx        1 1UN      0.125700
     70 HOL        -2.3470    0.6140   -3.0020 ho        1 1UN      0.442000
     71 HNM        -3.8110   -1.4350   -6.7980 hn        1 1UN      0.479300
     72 H231       -0.4210   -0.6430   -6.4660 h1        1 1UN      0.110200
     73 H232       -1.7100    0.6000   -6.2280 h1        1 1UN      0.110200
     74 H30        -6.1160   -0.7780   -4.4300 ha        1 1UN      0.135000
     75 H31        -8.5710   -0.7620   -4.7650 ha        1 1UN      0.168000
     76 H32        -9.6940   -2.6550   -5.9410 ha        1 1UN      0.170000
     77 HO         -9.3440   -4.6950   -6.9710 ho        1 1UN      0.448000
     78 H391       -6.0420   -5.8690   -6.1070 hc        1 1UN      0.071367
     79 H392       -5.9020   -5.0720   -7.7200 hc        1 1UN      0.071367
     80 H393       -4.5850   -4.8490   -6.4800 hc        1 1UN      0.071367
     81 H78        -4.3750   -0.3640   -9.6410 ha        1 1UN      0.137500
     82 H79        -5.2740    1.6900  -10.7210 ha        1 1UN      0.157000
     83 H80        -4.1060    3.8800  -10.4190 ha        1 1UN      0.160000
     84 H81        -2.0180    3.9990   -9.0510 ha        1 1UN      0.157000
     85 H82        -1.0890    1.9420   -8.0090 ha        1 1UN      0.137500
     86 H122        2.9680   -3.6840   -1.5080 hn        1 1UN      0.460800
     87 H222       -4.1140   -0.6260   -5.3520 hn        1 1UN      0.479300
@<TRIPOS>BOND
     1    1    2 1   
     2    1    6 1   
     3    1   10 1   
     4    1   41 1   
     5    2    3 1   
     6    2    9 1   
     7    2   42 1   
     8    3    4 1   
     9    3   43 1   
    10    3   44 1   
    11    4    5 1   
    12    4   45 1   
    13    4   46 1   
    14    5    6 1   
    15    5   47 1   
    16    5   48 1   
    17    6   49 1   
    18    6   50 1   
    19    7    8 1   
    20    7   10 1   
    21    7   18 1   
    22    8    9 1   
    23    8   11 1   
    24    8   51 1   
    25    9   52 1   
    26    9   53 1   
    27   10   54 1   
    28   10   55 1   
    29   11   12 1   
    30   11   17 2   
    31   12   13 1   
    32   12   56 1   
    33   12   86 1   
    34   13   14 1   
    35   13   15 1   
    36   13   16 1   
    37   14   57 1   
    38   14   58 1   
    39   14   59 1   
    40   15   60 1   
    41   15   61 1   
    42   15   62 1   
    43   16   63 1   
    44   16   64 1   
    45   16   65 1   
    46   18   19 1   
    47   18   66 1   
    48   18   67 1   
    49   19   20 1   
    50   19   21 1   
    51   19   68 1   
    52   20   22 1   
    53   20   23 1   
    54   20   69 1   
    55   21   70 1   
    56   22   24 1   
    57   22   71 1   
    58   22   87 1   
    59   23   34 1   
    60   23   72 1   
    61   23   73 1   
    62   24   25 2   
    63   24   26 1   
    64   26   27 ar  
    65   26   31 ar  
    66   27   28 ar  
    67   27   74 1   
    68   28   29 ar  
    69   28   75 1   
    70   29   30 ar  
    71   29   76 1   
    72   30   31 ar  
    73   30   32 1   
    74   31   33 1   
    75   32   77 1   
    76   33   78 1   
    77   33   79 1   
    78   33   80 1   
    79   34   35 1   
    80   35   36 ar  
    81   35   40 ar  
    82   36   37 ar  
    83   36   81 1   
    84   37   38 ar  
    85   37   82 1   
    86   38   39 ar  
    87   38   83 1   
    88   39   40 ar  
    89   39   84 1   
    90   40   85 1   
@<TRIPOS>SUBSTRUCTURE
     1 1UN         1 TEMP              0 ****  ****    0 ROOT
