@<TRIPOS>MOLECULE
1UN
   87    90     1     0     0
SMALL
bcc


@<TRIPOS>ATOM
      1 C1          0.1350   -0.1990   -0.1020 c3        1 1UN     -0.069700
      2 C2          1.6480   -0.3250   -0.1950 c3        1 1UN     -0.052700
      3 C3          2.2800   -0.3050    1.1900 c3        1 1UN     -0.079400
      4 C4          1.6560   -1.3050    2.1400 c3        1 1UN     -0.080400
      5 C5          0.1510   -1.1570    2.2050 c3        1 1UN     -0.084400
      6 C6         -0.4800   -1.2300    0.8300 c3        1 1UN     -0.073400
      7 N7          0.0180   -1.2240   -2.4520 n3        1 1UN     -0.753600
      8 C8          1.4050   -1.6480   -2.3490 c3        1 1UN      0.177500
      9 C9          2.0100   -1.5970   -0.9410 c3        1 1UN     -0.100400
     10 C10        -0.4810   -0.2420   -1.4980 c3        1 1UN      0.176800
     11 C11         1.5280   -3.0900   -2.9230 c         1 1UN      0.531100
     12 N12         2.6490   -3.9740   -2.4440 ny        1 1UN     -0.688800
     13 C13         3.8570   -4.0240   -3.3950 c3        1 1UN      0.160200
     14 C14         5.0380   -4.6380   -2.6360 c3        1 1UN     -0.131767
     15 C15         3.5230   -4.8980   -4.6040 c3        1 1UN     -0.131767
     16 C16         4.2280   -2.6160   -3.8570 c3        1 1UN     -0.131767
     17 O17         0.8100   -3.6020   -3.7700 o         1 1UN     -0.437100
     18 C18        -0.3750   -0.8820   -3.8180 c3        1 1UN      0.137800
     19 C19        -1.9010   -0.9770   -4.0440 c3        1 1UN      0.130100
     20 C20        -2.1940   -1.3980   -5.5100 c3        1 1UN      0.141500
     21 O21        -2.5350    0.2820   -3.8800 oh        1 1UN     -0.624800
     22 N22        -3.6730   -1.4670   -5.7640 ny        1 1UN     -0.695800
     23 C23        -1.5320   -0.4400   -6.5010 c3        1 1UN     -0.092300
     24 C24        -4.3640   -2.7110   -5.2350 c         1 1UN      0.592700
     25 O25        -3.6570   -3.5390   -4.6820 o         1 1UN     -0.428100
     26 C29        -5.8130   -2.7190   -5.4810 ca        1 1UN     -0.182600
     27 C30        -6.5890   -1.6520   -4.9960 ca        1 1UN     -0.143000
     28 C31        -7.9670   -1.6620   -5.1760 ca        1 1UN     -0.078000
     29 C32        -8.5830   -2.7200   -5.8450 ca        1 1UN     -0.149000
     30 C33        -7.8050   -3.7790   -6.3270 ca        1 1UN      0.136100
     31 C34        -6.3970   -3.8030   -6.1500 ca        1 1UN     -0.020300
     32 O38        -8.3320   -4.8510   -6.9970 oh        1 1UN     -0.474100
     33 C39        -5.6400   -4.9570   -6.6790 c3        1 1UN     -0.071800
     34 S74        -2.0740   -0.7750   -8.1510 ss        1 1UN     -0.184000
     35 C77        -2.7000    0.7080   -8.7140 ca        1 1UN     -0.068100
     36 C78        -3.8710    0.6420   -9.4790 ca        1 1UN     -0.099500
     37 C79        -4.3840    1.7940  -10.0720 ca        1 1UN     -0.116500
     38 C80        -3.7410    3.0190   -9.8900 ca        1 1UN     -0.084000
     39 C81        -2.5770    3.0880   -9.1220 ca        1 1UN     -0.116500
     40 C82        -2.0520    1.9340   -8.5440 ca        1 1UN     -0.099500
     41 H1         -0.1010    0.8210    0.3220 hc        1 1UN      0.086700
     42 H2          2.0460    0.5550   -0.7760 hc        1 1UN      0.060700
     43 H31A        3.3800   -0.5030    1.1010 hc        1 1UN      0.060700
     44 H32A        2.1590    0.7290    1.6130 hc        1 1UN      0.060700
     45 H41         2.0890   -1.1530    3.1650 hc        1 1UN      0.048200
     46 H42         1.9190   -2.3490    1.8250 hc        1 1UN      0.048200
     47 H51        -0.1060   -0.1730    2.6820 hc        1 1UN      0.062700
     48 H52        -0.2780   -1.9640    2.8550 hc        1 1UN      0.062700
     49 H61        -1.5820   -1.0370    0.9180 hc        1 1UN      0.045200
     50 H62        -0.3580   -2.2600    0.4050 hc        1 1UN      0.045200
     51 H8          2.0760   -1.0400   -3.0420 h1        1 1UN      0.077700
     52 H91         3.1290   -1.6420   -1.0320 hc        1 1UN      0.060700
     53 H92         1.6510   -2.4690   -0.3310 hc        1 1UN      0.060700
     54 H101       -1.5820   -0.4750   -1.3850 h1        1 1UN      0.047700
     55 H102       -0.3840    0.7990   -1.9370 h1        1 1UN      0.047700
     56 HNC         2.2940   -4.9360   -2.3640 hn        1 1UN      0.460800
     57 H141        5.9020   -4.7240   -3.3430 hc        1 1UN      0.079478
     58 H142        4.7980   -5.6630   -2.2620 hc        1 1UN      0.079478
     59 H143        5.3540   -3.9930   -1.7800 hc        1 1UN      0.079478
     60 H151        3.3540   -5.9600   -4.3010 hc        1 1UN      0.079478
     61 H152        4.3930   -4.8720   -5.3080 hc        1 1UN      0.079478
     62 H153        2.6200   -4.5230   -5.1440 hc        1 1UN      0.079478
     63 H161        4.4210   -1.9350   -2.9930 hc        1 1UN      0.079478
     64 H162        3.4280   -2.1820   -4.5050 hc        1 1UN      0.079478
     65 H163        5.1680   -2.6810   -4.4630 hc        1 1UN      0.079478
     66 H181        0.1250   -1.6010   -4.5270 h1        1 1UN      0.064200
     67 H182       -0.0510    0.1650   -4.0970 h1        1 1UN      0.064200
     68 H19        -2.3630   -1.7350   -3.3470 h1        1 1UN      0.086700
     69 H20        -1.7820   -2.4440   -5.6540 hx        1 1UN      0.125700
     70 HOL        -2.3700    0.5910   -2.9790 ho        1 1UN      0.442000
     71 HNM        -3.8070   -1.4260   -6.8040 hn        1 1UN      0.479300
     72 H231       -0.4260   -0.6060   -6.4560 h1        1 1UN      0.110200
     73 H232       -1.7270    0.6230   -6.2050 h1        1 1UN      0.110200
     74 H30        -6.1270   -0.8240   -4.4400 ha        1 1UN      0.135000
     75 H31        -8.5800   -0.8320   -4.7850 ha        1 1UN      0.168000
     76 H32        -9.6760   -2.7250   -5.9870 ha        1 1UN      0.170000
     77 HO         -9.2980   -4.7500   -7.0370 ho        1 1UN      0.448000
     78 H391       -4.5390   -4.8550   -6.5270 hc        1 1UN      0.071367
     79 H392       -5.9860   -5.8950   -6.1700 hc        1 1UN      0.071367
     80 H393       -5.8490   -5.0790   -7.7740 hc        1 1UN      0.071367
     81 H78        -4.3770   -0.3250   -9.6330 ha        1 1UN      0.137500
     82 H79        -5.2950    1.7340  -10.6890 ha        1 1UN      0.157000
     83 H80        -4.1470    3.9300  -10.3580 ha        1 1UN      0.160000
     84 H81        -2.0630    4.0530   -8.9850 ha        1 1UN      0.157000
     85 H82        -1.1160    1.9920   -7.9680 ha        1 1UN      0.137500
     86 H122        2.9820   -3.6720   -1.5240 hn        1 1UN      0.460800
     87 H222       -4.1200   -0.6390   -5.3470 hn        1 1UN      0.479300
@<TRIPOS>BOND
     1    1    2 1   
     2    1    6 1   
     3    1   10 1   
     4    1   41 1   
     5    2    3 1   
     6    2    9 1   
     7    2   42 1   
     8    3    4 1   
     9    3   43 1   
    10    3   44 1   
    11    4    5 1   
    12    4   45 1   
    13    4   46 1   
    14    5    6 1   
    15    5   47 1   
    16    5   48 1   
    17    6   49 1   
    18    6   50 1   
    19    7    8 1   
    20    7   10 1   
    21    7   18 1   
    22    8    9 1   
    23    8   11 1   
    24    8   51 1   
    25    9   52 1   
    26    9   53 1   
    27   10   54 1   
    28   10   55 1   
    29   11   12 1   
    30   11   17 2   
    31   12   13 1   
    32   12   56 1   
    33   12   86 1   
    34   13   14 1   
    35   13   15 1   
    36   13   16 1   
    37   14   57 1   
    38   14   58 1   
    39   14   59 1   
    40   15   60 1   
    41   15   61 1   
    42   15   62 1   
    43   16   63 1   
    44   16   64 1   
    45   16   65 1   
    46   18   19 1   
    47   18   66 1   
    48   18   67 1   
    49   19   20 1   
    50   19   21 1   
    51   19   68 1   
    52   20   22 1   
    53   20   23 1   
    54   20   69 1   
    55   21   70 1   
    56   22   24 1   
    57   22   71 1   
    58   22   87 1   
    59   23   34 1   
    60   23   72 1   
    61   23   73 1   
    62   24   25 2   
    63   24   26 1   
    64   26   27 ar  
    65   26   31 ar  
    66   27   28 ar  
    67   27   74 1   
    68   28   29 ar  
    69   28   75 1   
    70   29   30 ar  
    71   29   76 1   
    72   30   31 ar  
    73   30   32 1   
    74   31   33 1   
    75   32   77 1   
    76   33   78 1   
    77   33   79 1   
    78   33   80 1   
    79   34   35 1   
    80   35   36 ar  
    81   35   40 ar  
    82   36   37 ar  
    83   36   81 1   
    84   37   38 ar  
    85   37   82 1   
    86   38   39 ar  
    87   38   83 1   
    88   39   40 ar  
    89   39   84 1   
    90   40   85 1   
@<TRIPOS>SUBSTRUCTURE
     1 1UN         1 TEMP              0 ****  ****    0 ROOT
