@<TRIPOS>MOLECULE
1UN
   85    84     1     0     0
SMALL
bcc


@<TRIPOS>ATOM
      1 C1          1.5010    2.4020    3.2880 c3        1 1UN     -0.096000
      2 C2          2.9640    2.1670    3.3160 c3        1 1UN     -0.096000
      3 C3          3.5420    2.1980    4.7810 c3        1 1UN     -0.149000
      4 C4          2.7800    1.2640    5.7370 c3        1 1UN     -0.156000
      5 C5          1.2990    1.4880    5.7040 c3        1 1UN     -0.155000
      6 C6          0.7260    1.4470    4.2800 c3        1 1UN     -0.153000
      7 N7          1.2700    0.9100    1.2520 n3        1 1UN     -0.273000
      8 C8          2.7590    0.6460    1.2280 c3        1 1UN     -0.014000
      9 C9          3.3480    0.8390    2.6890 c3        1 1UN     -0.153000
     10 C10         0.8980    2.2200    1.8860 c3        1 1UN     -0.053000
     11 C11         3.0980   -0.7100    0.6410 c2        1 1UN      0.303000
     12 N12         4.4730   -0.9980    0.1970 n         1 1UN     -0.380000
     13 C13         4.9940   -2.3950    0.2440 c3        1 1UN      0.089000
     14 C14         6.4660   -2.4100   -0.1990 c3        1 1UN     -0.230000
     15 C15         4.8870   -2.9320    1.6800 c3        1 1UN     -0.230000
     16 C16         4.1760   -3.2730   -0.6890 c3        1 1UN     -0.230000
     17 O17         2.2370   -1.5680    0.5540 o         1 1UN     -0.362000
     18 C18         0.7370    0.8600   -0.1270 c3        1 1UN     -0.094000
     19 C19        -0.7720    0.6040   -0.0810 c3        1 1UN      0.010000
     20 C20        -1.2950    0.3900   -1.4900 c3        1 1UN      0.047000
     21 O21        -1.4110    1.7000    0.4910 oh        1 1UN     -0.341000
     22 N22        -2.4810   -0.4420   -1.4440 n         1 1UN     -0.374000
     23 C23        -1.6370    1.7220   -2.1040 c3        1 1UN     -0.308000
     24 C24        -2.5850   -1.6220   -2.3150 c2        1 1UN      0.358000
     25 O25        -1.7570   -1.8090   -3.1800 o         1 1UN     -0.367000
     26 C29        -3.8500   -2.5430   -2.2330 c2        1 1UN     -0.092000
     27 C30        -5.1120   -1.9890   -2.3080 c2        1 1UN     -0.134000
     28 C31        -6.2340   -2.8080   -2.2630 c1        1 1UN     -0.103000
     29 C32        -6.0860   -4.1870   -2.1430 c1        1 1UN     -0.195000
     30 C33        -4.8220   -4.7440   -2.0680 c1        1 1UN      0.068000
     31 C34        -3.7010   -3.9280   -2.1130 c1        1 1UN     -0.041000
     32 O38        -4.6720   -6.1520   -1.9960 oh        1 1UN     -0.248000
     33 C39        -2.3150   -4.5430   -2.1030 c3        1 1UN     -0.191000
     34 S74        -2.9460    1.5110   -3.2940 ss        1 1UN      0.233000
     35 C77        -3.6190    3.1140   -3.7270 c2        1 1UN     -0.227000
     36 C78        -3.3980    3.6390   -4.9910 c2        1 1UN     -0.123000
     37 C79        -4.0050    4.8320   -5.3650 c1        1 1UN     -0.114000
     38 C80        -4.8360    5.5000   -4.4720 c1        1 1UN     -0.127000
     39 C81        -5.0580    4.9760   -3.2080 c1        1 1UN     -0.127000
     40 C82        -4.4500    3.7820   -2.8330 c1        1 1UN     -0.146000
     41 H1          1.3390    3.3210    3.5680 hc        1 1UN      0.089000
     42 H2          3.3950    2.8820    2.8040 hc        1 1UN      0.079000
     43 H31A        3.4860    3.1170    5.1250 hc        1 1UN      0.079000
     44 H32A        4.4730    1.9300    4.7560 hc        1 1UN      0.079000
     45 H41         2.9640    0.3430    5.4860 hc        1 1UN      0.081500
     46 H42         3.1050    1.4150    6.6540 hc        1 1UN      0.081500
     47 H51         1.1030    2.3600    6.0980 hc        1 1UN      0.078000
     48 H52         0.8620    0.7930    6.2420 hc        1 1UN      0.078000
     49 H61         0.7790    0.5370    3.9460 hc        1 1UN      0.089000
     50 H62        -0.2120    1.7180    4.3110 hc        1 1UN      0.089000
     51 H8          3.2070    1.2420    0.5920 h1        1 1UN      0.060000
     52 H91         4.3210    0.7820    2.6460 hc        1 1UN      0.103500
     53 H92         3.0160    0.1170    3.2590 hc        1 1UN      0.103500
     54 H101       -0.0720    2.2700    1.9530 h1        1 1UN      0.073000
     55 H102        1.2130    2.9500    1.3100 h1        1 1UN      0.073000
     56 HNC         4.9910   -0.3310   -0.1450 hn        1 1UN      0.221000
     57 H141        6.8640   -3.2900    0.0100 hc        1 1UN      0.087111
     58 H142        6.5190   -2.2470   -1.1720 hc        1 1UN      0.087111
     59 H143        6.9570   -1.7080    0.2760 hc        1 1UN      0.087111
     60 H151        5.4060   -3.7640    1.7590 hc        1 1UN      0.087111
     61 H152        3.9510   -3.1120    1.8920 hc        1 1UN      0.087111
     62 H153        5.2410   -2.2680    2.3050 hc        1 1UN      0.087111
     63 H161        4.7240   -4.0370   -0.9870 hc        1 1UN      0.087111
     64 H162        3.8950   -2.7490   -1.4660 hc        1 1UN      0.087111
     65 H163        3.3850   -3.6040   -0.2150 hc        1 1UN      0.087111
     66 H181        1.1770    0.1350   -0.6230 h1        1 1UN      0.086000
     67 H182        0.9110    1.7200   -0.5780 h1        1 1UN      0.086000
     68 H19        -0.9490   -0.1910    0.4550 h1        1 1UN      0.115000
     69 H20        -0.6090   -0.0490   -2.0270 h1        1 1UN      0.138000
     70 HOL        -2.1640    1.4320    0.8840 ho        1 1UN      0.221000
     71 HNM        -3.1920   -0.1940   -0.9290 hn        1 1UN      0.238000
     72 H231       -0.8510    2.0860   -2.5480 h1        1 1UN      0.119000
     73 H232       -1.9310    2.3370   -1.4040 h1        1 1UN      0.119000
     74 H30        -5.2170   -1.0240   -2.3920 ha        1 1UN      0.148000
     75 H31        -7.1270   -2.4160   -2.3160 ha        1 1UN      0.138000
     76 H32        -6.8790   -4.7660   -2.1120 ha        1 1UN      0.135000
     77 HO         -4.9710   -6.4450   -1.2010 ho        1 1UN      0.218000
     78 H391       -2.3800   -5.4930   -1.8610 hc        1 1UN      0.100333
     79 H392       -1.7570   -4.0780   -1.4490 hc        1 1UN      0.100333
     80 H393       -1.9160   -4.4600   -2.9890 hc        1 1UN      0.100333
     81 H78        -2.8150    3.1720   -5.6170 ha        1 1UN      0.142000
     82 H79        -3.8480    5.2010   -6.2580 ha        1 1UN      0.133000
     83 H80        -5.2640    6.3430   -4.7370 ha        1 1UN      0.131500
     84 H81        -5.6440    5.4470   -2.5780 ha        1 1UN      0.131500
     85 H82        -4.6050    3.4140   -1.9450 ha        1 1UN      0.132000
@<TRIPOS>BOND
     1    1    2 1   
     2    1    6 1   
     3    1   10 1   
     4    1   41 1   
     5    2    3 1   
     6    2    9 1   
     7    2   42 1   
     8    3    4 1   
     9    3   43 1   
    10    3   44 1   
    11    4    5 1   
    12    4   45 1   
    13    4   46 1   
    14    5    6 1   
    15    5   47 1   
    16    5   48 1   
    17    6   49 1   
    18    6   50 1   
    19    7    8 1   
    20    7   10 1   
    21    7   18 1   
    22    8    9 1   
    23    8   11 1   
    24    8   51 1   
    25    9   52 1   
    26    9   53 1   
    27   10   54 1   
    28   10   55 1   
    29   11   12 1   
    30   11   17 1   
    31   12   13 1   
    32   12   56 1   
    33   13   14 1   
    34   13   15 1   
    35   13   16 1   
    36   14   57 1   
    37   14   58 1   
    38   14   59 1   
    39   15   60 1   
    40   15   61 1   
    41   15   62 1   
    42   16   63 1   
    43   16   64 1   
    44   16   65 1   
    45   18   19 1   
    46   18   66 1   
    47   18   67 1   
    48   19   20 1   
    49   19   21 1   
    50   19   68 1   
    51   20   22 1   
    52   20   23 1   
    53   20   69 1   
    54   21   70 1   
    55   22   24 1   
    56   22   71 1   
    57   23   34 1   
    58   23   72 1   
    59   23   73 1   
    60   24   25 1   
    61   24   26 1   
    62   26   27 1   
    63   26   31 1   
    64   27   28 1   
    65   27   74 1   
    66   28   75 1   
    67   29   30 1   
    68   29   76 1   
    69   30   32 1   
    70   31   33 1   
    71   32   77 1   
    72   33   78 1   
    73   33   79 1   
    74   33   80 1   
    75   34   35 1   
    76   35   36 1   
    77   35   40 1   
    78   36   37 1   
    79   36   81 1   
    80   37   82 1   
    81   38   39 1   
    82   38   83 1   
    83   39   84 1   
    84   40   85 1   
@<TRIPOS>SUBSTRUCTURE
     1 1UN         1 TEMP              0 ****  ****    0 ROOT
