@<TRIPOS>MOLECULE
1UN
   85    88     1     0     0
SMALL
bcc


@<TRIPOS>ATOM
      1 C1         -2.2690   -2.1620   -4.2040 c3        1 1UN     -0.052700
      2 C2         -1.5560   -1.6170   -5.4390 c3        1 1UN     -0.057700
      3 C3         -2.4750   -1.6200   -6.6500 c3        1 1UN     -0.069400
      4 C4         -3.8070   -0.9480   -6.3850 c3        1 1UN     -0.077400
      5 C5         -4.4900   -1.5340   -5.1680 c3        1 1UN     -0.076400
      6 C6         -3.5930   -1.4610   -3.9500 c3        1 1UN     -0.074400
      7 N7         -0.7780   -0.7630   -2.7400 n3        1 1UN     -0.710600
      8 C8         -0.0970   -0.2290   -3.9230 c3        1 1UN      0.124500
      9 C9         -0.9960   -0.2330   -5.1690 c3        1 1UN     -0.072400
     10 C10        -1.3510   -2.0810   -2.9820 c3        1 1UN      0.164800
     11 C11         0.3260    1.2480   -3.7080 c         1 1UN      0.657100
     12 N12         1.6800    1.5000   -3.6700 n         1 1UN     -0.577900
     13 C13         2.2620    2.8350   -3.5460 c3        1 1UN      0.125400
     14 C14         3.7990    2.7390   -3.5490 c3        1 1UN     -0.109100
     15 C15         1.8470    3.7520   -4.7100 c3        1 1UN     -0.109100
     16 C16         1.8370    3.5160   -2.2340 c3        1 1UN     -0.109100
     17 O17        -0.5270    2.1470   -3.5940 o         1 1UN     -0.587100
     18 C18         0.0610   -0.7340   -1.5510 c3        1 1UN      0.142800
     19 C19        -0.7290   -0.9540   -0.2460 c3        1 1UN      0.114100
     20 C20         0.0080   -0.2910    0.9570 c3        1 1UN      0.086700
     21 O21        -0.9700   -2.3250    0.0080 oh        1 1UN     -0.598800
     22 N22        -0.8240   -0.2970    2.1350 n         1 1UN     -0.565900
     23 C23         1.3480   -1.0010    1.1960 c3        1 1UN     -0.068300
     24 C24        -1.3130    0.8600    2.7170 c         1 1UN      0.678700
     25 O25        -0.9780    1.9880    2.3080 o         1 1UN     -0.590100
     26 C29        -2.2520    0.6590    3.8640 ca        1 1UN     -0.099600
     27 C30        -3.4590   -0.0040    3.6210 ca        1 1UN     -0.142000
     28 C31        -4.3760   -0.1900    4.6540 ca        1 1UN     -0.106000
     29 C32        -4.0940    0.2730    5.9340 ca        1 1UN     -0.139000
     30 C33        -2.8780    0.9340    6.1720 ca        1 1UN      0.118100
     31 C34        -1.9370    1.1410    5.1420 ca        1 1UN     -0.104300
     32 O38        -2.6800    1.3490    7.4690 oh        1 1UN     -0.499100
     33 C39        -0.6670    1.8490    5.4290 c3        1 1UN     -0.069800
     34 S74         2.3640    0.0590    2.1740 ss        1 1UN     -0.143000
     35 C77         3.8420   -0.7530    2.3200 ca        1 1UN     -0.008100
     36 C78         4.8380   -0.0510    3.0200 ca        1 1UN     -0.135000
     37 C79         6.0940   -0.6140    3.2120 ca        1 1UN     -0.112000
     38 C80         6.3780   -1.8860    2.7090 ca        1 1UN     -0.140000
     39 C81         5.3960   -2.5870    2.0140 ca        1 1UN     -0.112000
     40 C82         4.1340   -2.0250    1.8210 ca        1 1UN     -0.135000
     41 H1         -2.4820   -3.2550   -4.3800 hc        1 1UN      0.047700
     42 H2         -0.6890   -2.3030   -5.6630 hc        1 1UN      0.037700
     43 H31A       -2.6570   -2.6850   -6.9560 hc        1 1UN      0.039200
     44 H32A       -1.9620   -1.1060   -7.5050 hc        1 1UN      0.039200
     45 H41        -4.4670   -1.0700   -7.2830 hc        1 1UN      0.042200
     46 H42        -3.6500    0.1520   -6.2310 hc        1 1UN      0.042200
     47 H51        -4.7640   -2.6030   -5.3700 hc        1 1UN      0.038200
     48 H52        -5.4410   -0.9760   -4.9660 hc        1 1UN      0.038200
     49 H61        -4.1040   -1.9440   -3.0770 hc        1 1UN      0.053200
     50 H62        -3.4090   -0.3880   -3.6800 hc        1 1UN      0.053200
     51 H8          0.8160   -0.8610   -4.1580 h1        1 1UN      0.017700
     52 H91        -0.3830    0.1090   -6.0430 hc        1 1UN      0.065200
     53 H92        -1.8300    0.5050   -5.0230 hc        1 1UN      0.065200
     54 H101       -0.5360   -2.8570   -3.1080 h1        1 1UN      0.040700
     55 H102       -1.9460   -2.3560   -2.0630 h1        1 1UN      0.040700
     56 HNC         2.3140    0.7590   -3.8430 hn        1 1UN      0.305500
     57 H141        4.2220    3.7670   -3.4490 hc        1 1UN      0.046256
     58 H142        4.1620    2.1220   -2.6930 hc        1 1UN      0.046256
     59 H143        4.1700    2.2940   -4.5030 hc        1 1UN      0.046256
     60 H151        2.1890    3.3320   -5.6860 hc        1 1UN      0.046256
     61 H152        0.7370    3.8700   -4.7320 hc        1 1UN      0.046256
     62 H153        2.3140    4.7550   -4.5690 hc        1 1UN      0.046256
     63 H161        2.1630    2.9160   -1.3520 hc        1 1UN      0.046256
     64 H162        2.3110    4.5240   -2.1760 hc        1 1UN      0.046256
     65 H163        0.7260    3.6360   -2.2010 hc        1 1UN      0.046256
     66 H181        0.5410    0.2840   -1.4880 h1        1 1UN      0.041200
     67 H182        0.8840   -1.5080   -1.6090 h1        1 1UN      0.041200
     68 H19        -1.7630   -0.5080   -0.3370 h1        1 1UN      0.111700
     69 H20         0.2140    0.7900    0.6790 h1        1 1UN      0.114700
     70 HOL        -0.1190   -2.7810   -0.0020 ho        1 1UN      0.396000
     71 HNM        -1.1910   -1.1760    2.4160 hn        1 1UN      0.321500
     72 H231        1.1930   -1.9870    1.7000 h1        1 1UN      0.067700
     73 H232        1.8410   -1.1980    0.2130 h1        1 1UN      0.067700
     74 H30        -3.6920   -0.3690    2.6100 ha        1 1UN      0.141000
     75 H31        -5.3280   -0.7060    4.4560 ha        1 1UN      0.140000
     76 H32        -4.8030    0.1350    6.7630 ha        1 1UN      0.153000
     77 HO         -1.8420    1.8310    7.5160 ho        1 1UN      0.424000
     78 H391       -0.0420    1.9660    4.5090 hc        1 1UN      0.056700
     79 H392       -0.8770    2.8730    5.8290 hc        1 1UN      0.056700
     80 H393       -0.0700    1.2830    6.1890 hc        1 1UN      0.056700
     81 H78         4.6150    0.9530    3.4160 ha        1 1UN      0.133500
     82 H79         6.8650   -0.0550    3.7620 ha        1 1UN      0.132500
     83 H80         7.3730   -2.3290    2.8620 ha        1 1UN      0.133000
     84 H81         5.6120   -3.5900    1.6170 ha        1 1UN      0.132500
     85 H82         3.3710   -2.5980    1.2740 ha        1 1UN      0.133500
@<TRIPOS>BOND
     1    1    2 1   
     2    1    6 1   
     3    1   10 1   
     4    1   41 1   
     5    2    3 1   
     6    2    9 1   
     7    2   42 1   
     8    3    4 1   
     9    3   43 1   
    10    3   44 1   
    11    4    5 1   
    12    4   45 1   
    13    4   46 1   
    14    5    6 1   
    15    5   47 1   
    16    5   48 1   
    17    6   49 1   
    18    6   50 1   
    19    7    8 1   
    20    7   10 1   
    21    7   18 1   
    22    8    9 1   
    23    8   11 1   
    24    8   51 1   
    25    9   52 1   
    26    9   53 1   
    27   10   54 1   
    28   10   55 1   
    29   11   12 1   
    30   11   17 2   
    31   12   13 1   
    32   12   56 1   
    33   13   14 1   
    34   13   15 1   
    35   13   16 1   
    36   14   57 1   
    37   14   58 1   
    38   14   59 1   
    39   15   60 1   
    40   15   61 1   
    41   15   62 1   
    42   16   63 1   
    43   16   64 1   
    44   16   65 1   
    45   18   19 1   
    46   18   66 1   
    47   18   67 1   
    48   19   20 1   
    49   19   21 1   
    50   19   68 1   
    51   20   22 1   
    52   20   23 1   
    53   20   69 1   
    54   21   70 1   
    55   22   24 1   
    56   22   71 1   
    57   23   34 1   
    58   23   72 1   
    59   23   73 1   
    60   24   25 2   
    61   24   26 1   
    62   26   27 ar  
    63   26   31 ar  
    64   27   28 ar  
    65   27   74 1   
    66   28   29 ar  
    67   28   75 1   
    68   29   30 ar  
    69   29   76 1   
    70   30   31 ar  
    71   30   32 1   
    72   31   33 1   
    73   32   77 1   
    74   33   78 1   
    75   33   79 1   
    76   33   80 1   
    77   34   35 1   
    78   35   36 ar  
    79   35   40 ar  
    80   36   37 ar  
    81   36   81 1   
    82   37   38 ar  
    83   37   82 1   
    84   38   39 ar  
    85   38   83 1   
    86   39   40 ar  
    87   39   84 1   
    88   40   85 1   
@<TRIPOS>SUBSTRUCTURE
     1 1UN         1 TEMP              0 ****  ****    0 ROOT
