@<TRIPOS>MOLECULE
1UN
   87    90     1     0     0
SMALL
bcc


@<TRIPOS>ATOM
      1 C1          0.1610   -0.1740   -0.1190 c3        1 1UN     -0.069700
      2 C2          1.6720   -0.3220   -0.2130 c3        1 1UN     -0.052700
      3 C3          2.3070   -0.2940    1.1700 c3        1 1UN     -0.079400
      4 C4          1.6720   -1.2750    2.1330 c3        1 1UN     -0.080400
      5 C5          0.1690   -1.1050    2.1990 c3        1 1UN     -0.084400
      6 C6         -0.4660   -1.1850    0.8260 c3        1 1UN     -0.073400
      7 N7          0.0250   -1.2230   -2.4570 n3        1 1UN     -0.753600
      8 C8          1.4070   -1.6650   -2.3520 c3        1 1UN      0.177500
      9 C9          2.0150   -1.6060   -0.9450 c3        1 1UN     -0.100400
     10 C10        -0.4590   -0.2240   -1.5130 c3        1 1UN      0.176800
     11 C11         1.5080   -3.1150   -2.9090 c         1 1UN      0.531100
     12 N12         2.6190   -4.0090   -2.4220 n4        1 1UN     -0.688800
     13 C13         3.8240   -4.0860   -3.3740 c3        1 1UN      0.160200
     14 C14         4.9970   -4.7080   -2.6100 c3        1 1UN     -0.131767
     15 C15         3.4760   -4.9700   -4.5730 c3        1 1UN     -0.131767
     16 C16         4.2130   -2.6900   -3.8530 c3        1 1UN     -0.131767
     17 O17         0.7820   -3.6270   -3.7500 o         1 1UN     -0.437100
     18 C18        -0.3660   -0.8920   -3.8260 c3        1 1UN      0.137800
     19 C19        -1.8930   -0.9680   -4.0480 c3        1 1UN      0.130100
     20 C20        -2.1940   -1.4010   -5.5090 c3        1 1UN      0.141500
     21 O21        -2.5100    0.3010   -3.8970 oh        1 1UN     -0.624800
     22 N22        -3.6740   -1.4540   -5.7600 n4        1 1UN     -0.695800
     23 C23        -1.5210   -0.4640   -6.5120 c3        1 1UN     -0.092300
     24 C24        -4.3810   -2.6820   -5.2160 c         1 1UN      0.592700
     25 O25        -3.6840   -3.5130   -4.6550 o         1 1UN     -0.428100
     26 C29        -5.8300   -2.6740   -5.4600 ca        1 1UN     -0.182600
     27 C30        -6.5920   -1.5920   -4.9860 ca        1 1UN     -0.143000
     28 C31        -7.9700   -1.5850   -5.1640 ca        1 1UN     -0.078000
     29 C32        -8.6010   -2.6430   -5.8210 ca        1 1UN     -0.149000
     30 C33        -7.8380   -3.7160   -6.2920 ca        1 1UN      0.136100
     31 C34        -6.4290   -3.7570   -6.1160 ca        1 1UN     -0.020300
     32 O38        -8.3800   -4.7880   -6.9490 oh        1 1UN     -0.474100
     33 C39        -5.6890   -4.9270   -6.6340 c3        1 1UN     -0.071800
     34 S74        -2.0710   -0.8090   -8.1570 ss        1 1UN     -0.184000
     35 C77        -2.6790    0.6760   -8.7350 ca        1 1UN     -0.068100
     36 C78        -3.8530    0.6170   -9.4960 ca        1 1UN     -0.099500
     37 C79        -4.3510    1.7690  -10.1010 ca        1 1UN     -0.116500
     38 C80        -3.6910    2.9880   -9.9330 ca        1 1UN     -0.084000
     39 C81        -2.5250    3.0500   -9.1690 ca        1 1UN     -0.116500
     40 C82        -2.0140    1.8950   -8.5790 ca        1 1UN     -0.099500
     41 H1         -0.0590    0.8550    0.2940 hc        1 1UN      0.086700
     42 H2          2.0810    0.5460   -0.8050 hc        1 1UN      0.060700
     43 H31A        2.2020    0.7460    1.5820 hc        1 1UN      0.060700
     44 H32A        3.4040   -0.5080    1.0820 hc        1 1UN      0.060700
     45 H41         1.9190   -2.3260    1.8290 hc        1 1UN      0.048200
     46 H42         2.1080   -1.1180    3.1560 hc        1 1UN      0.048200
     47 H51        -0.0740   -0.1130    2.6650 hc        1 1UN      0.062700
     48 H52        -0.2700   -1.8990    2.8590 hc        1 1UN      0.062700
     49 H61        -0.3590   -2.2210    0.4130 hc        1 1UN      0.045200
     50 H62        -1.5650   -0.9770    0.9140 hc        1 1UN      0.045200
     51 H8          2.0850   -1.0750   -3.0520 h1        1 1UN      0.077700
     52 H91         3.1330   -1.6680   -1.0380 hc        1 1UN      0.060700
     53 H92         1.6460   -2.4660   -0.3240 hc        1 1UN      0.060700
     54 H101       -0.3480    0.8100   -1.9640 h1        1 1UN      0.047700
     55 H102       -1.5620   -0.4410   -1.3950 h1        1 1UN      0.047700
     56 HNC         2.9580   -3.7010   -1.5060 hn        1 1UN      0.460800
     57 H141        4.7440   -5.7250   -2.2240 hc        1 1UN      0.079478
     58 H142        5.8590   -4.8140   -3.3170 hc        1 1UN      0.079478
     59 H143        5.3240   -4.0580   -1.7620 hc        1 1UN      0.079478
     60 H151        3.2930   -6.0260   -4.2580 hc        1 1UN      0.079478
     61 H152        2.5770   -4.5880   -5.1160 hc        1 1UN      0.079478
     62 H153        4.3450   -4.9640   -5.2790 hc        1 1UN      0.079478
     63 H161        3.4180   -2.2520   -4.5050 hc        1 1UN      0.079478
     64 H162        5.1510   -2.7740   -4.4600 hc        1 1UN      0.079478
     65 H163        4.4180   -2.0020   -2.9970 hc        1 1UN      0.079478
     66 H181        0.1240   -1.6250   -4.5270 h1        1 1UN      0.064200
     67 H182       -0.0280    0.1480   -4.1170 h1        1 1UN      0.064200
     68 H19        -2.3640   -1.7120   -3.3420 h1        1 1UN      0.086700
     69 H20        -1.7970   -2.4550   -5.6420 hx        1 1UN      0.125700
     70 HOL        -2.3390    0.6170   -3.0000 ho        1 1UN      0.442000
     71 HNM        -3.8100   -1.4220   -6.8000 hn        1 1UN      0.479300
     72 H231       -0.4170   -0.6440   -6.4670 h1        1 1UN      0.110200
     73 H232       -1.7010    0.6050   -6.2270 h1        1 1UN      0.110200
     74 H30        -6.1180   -0.7630   -4.4400 ha        1 1UN      0.135000
     75 H31        -8.5710   -0.7430   -4.7820 ha        1 1UN      0.168000
     76 H32        -9.6940   -2.6340   -5.9620 ha        1 1UN      0.170000
     77 HO         -9.3440   -4.6760   -6.9890 ho        1 1UN      0.448000
     78 H391       -4.5870   -4.8380   -6.4840 hc        1 1UN      0.071367
     79 H392       -6.0470   -5.8540   -6.1140 hc        1 1UN      0.071367
     80 H393       -5.9010   -5.0590   -7.7270 hc        1 1UN      0.071367
     81 H78        -4.3710   -0.3440   -9.6390 ha        1 1UN      0.137500
     82 H79        -5.2640    1.7160  -10.7150 ha        1 1UN      0.157000
     83 H80        -4.0870    3.9000  -10.4100 ha        1 1UN      0.160000
     84 H81        -1.9980    4.0090   -9.0430 ha        1 1UN      0.157000
     85 H82        -1.0760    1.9470   -8.0060 ha        1 1UN      0.137500
     86 H122        2.2500   -4.9650   -2.3310 hn        1 1UN      0.460800
     87 H222       -4.1090   -0.6150   -5.3510 hn        1 1UN      0.479300
@<TRIPOS>BOND
     1    1    2 1   
     2    1    6 1   
     3    1   10 1   
     4    1   41 1   
     5    2    3 1   
     6    2    9 1   
     7    2   42 1   
     8    3    4 1   
     9    3   43 1   
    10    3   44 1   
    11    4    5 1   
    12    4   45 1   
    13    4   46 1   
    14    5    6 1   
    15    5   47 1   
    16    5   48 1   
    17    6   49 1   
    18    6   50 1   
    19    7    8 1   
    20    7   10 1   
    21    7   18 1   
    22    8    9 1   
    23    8   11 1   
    24    8   51 1   
    25    9   52 1   
    26    9   53 1   
    27   10   54 1   
    28   10   55 1   
    29   11   12 1   
    30   11   17 2   
    31   12   13 1   
    32   12   56 1   
    33   12   86 1   
    34   13   14 1   
    35   13   15 1   
    36   13   16 1   
    37   14   57 1   
    38   14   58 1   
    39   14   59 1   
    40   15   60 1   
    41   15   61 1   
    42   15   62 1   
    43   16   63 1   
    44   16   64 1   
    45   16   65 1   
    46   18   19 1   
    47   18   66 1   
    48   18   67 1   
    49   19   20 1   
    50   19   21 1   
    51   19   68 1   
    52   20   22 1   
    53   20   23 1   
    54   20   69 1   
    55   21   70 1   
    56   22   24 1   
    57   22   71 1   
    58   22   87 1   
    59   23   34 1   
    60   23   72 1   
    61   23   73 1   
    62   24   25 2   
    63   24   26 1   
    64   26   27 ar  
    65   26   31 ar  
    66   27   28 ar  
    67   27   74 1   
    68   28   29 ar  
    69   28   75 1   
    70   29   30 ar  
    71   29   76 1   
    72   30   31 ar  
    73   30   32 1   
    74   31   33 1   
    75   32   77 1   
    76   33   78 1   
    77   33   79 1   
    78   33   80 1   
    79   34   35 1   
    80   35   36 ar  
    81   35   40 ar  
    82   36   37 ar  
    83   36   81 1   
    84   37   38 ar  
    85   37   82 1   
    86   38   39 ar  
    87   38   83 1   
    88   39   40 ar  
    89   39   84 1   
    90   40   85 1   
@<TRIPOS>SUBSTRUCTURE
     1 1UN         1 TEMP              0 ****  ****    0 ROOT
