@<TRIPOS>MOLECULE
1UO
   51    56     1     0     0
SMALL
bcc


@<TRIPOS>ATOM
      1 O1          8.8150   -1.4470   -1.7120 oh        1 1UO     -0.595800
      2 C2          7.5470   -0.8580   -1.4570 c3        1 1UO      0.139100
      3 C4          6.5560   -2.0110   -1.3220 c3        1 1UO     -0.095900
      4 C5          5.1780   -1.4980   -0.9730 c3        1 1UO     -0.090900
      5 C6          5.2270   -0.6880    0.3340 c3        1 1UO      0.064000
      6 C8          6.2020    0.4910    0.1710 c3        1 1UO     -0.090900
      7 C9          7.5800   -0.0180   -0.1830 c3        1 1UO     -0.095900
      8 N10         3.8970   -0.2400    0.7480 na        1 1UO      0.090400
      9 C11         3.0710    0.5960   -0.0100 cc        1 1UO     -0.126300
     10 C12         1.8880    0.7760    0.7330 cd        1 1UO     -0.213300
     11 C13         2.1030    0.0040    1.9420 cd        1 1UO      0.318200
     12 N14         3.3200   -0.5900    1.9120 nc        1 1UO     -0.510800
     13 C15         0.7510    1.5780    0.3830 ca        1 1UO     -0.101300
     14 C16         0.9320    2.9290    0.0030 ca        1 1UO      0.424200
     15 N17        -0.0280    3.8050   -0.3370 nb        1 1UO     -0.709000
     16 C18        -1.3330    3.3860   -0.3460 ca        1 1UO      0.659200
     17 N19        -2.3610    4.2160   -0.7900 nh        1 1UO     -0.922500
     18 C20        -1.6010    2.0420    0.0330 ca        1 1UO     -0.114200
     19 O21        -2.8600    1.4420    0.0950 os        1 1UO     -0.180200
     20 C22        -2.6270    0.1100    0.4880 cc        1 1UO      0.095900
     21 C23        -3.7920   -0.7350    0.6350 ca        1 1UO     -0.005800
     22 C24        -3.8860   -1.5800    1.7450 ca        1 1UO     -0.070000
     23 C25        -4.9870   -2.4280    1.9270 ca        1 1UO     -0.144000
     24 C26        -6.0270   -2.4620    1.0100 ca        1 1UO     -0.035000
     25 C27        -5.9520   -1.6240   -0.1120 ca        1 1UO     -0.007600
     26 N28        -6.9130   -1.5260   -1.1650 nc        1 1UO     -0.135400
     27 N29        -6.5870   -0.7150   -2.0340 nd        1 1UO     -0.119500
     28 S30        -5.1100    0.0750   -1.7710 ss        1 1UO      0.162600
     29 C31        -4.8270   -0.7450   -0.3100 ca        1 1UO     -0.053100
     30 C32        -1.2730   -0.1230    0.6750 cd        1 1UO     -0.024800
     31 CL3        -0.5630   -1.5680    1.1050 cl        1 1UO     -0.026400
     32 C34        -0.5740    1.1230    0.3920 ca        1 1UO     -0.017800
     33 H1          9.4540   -0.7250   -1.7540 ho        1 1UO      0.401000
     34 H2          7.2590   -0.2060   -2.3300 h1        1 1UO      0.033700
     35 H3          6.5180   -2.5760   -2.2900 hc        1 1UO      0.058450
     36 H4          6.9230   -2.7190   -0.5340 hc        1 1UO      0.058450
     37 H5          4.7860   -0.8550   -1.8040 hc        1 1UO      0.055950
     38 H6          4.4790   -2.3670   -0.8560 hc        1 1UO      0.055950
     39 H7          5.6300   -1.3640    1.1490 h1        1 1UO      0.091700
     40 H8          5.8320    1.1820   -0.6320 hc        1 1UO      0.055950
     41 H9          6.2550    1.0760    1.1270 hc        1 1UO      0.055950
     42 H10         7.9910   -0.6410    0.6550 hc        1 1UO      0.058450
     43 H11         8.2730    0.8520   -0.3260 hc        1 1UO      0.058450
     44 H12         3.3650    0.9790   -0.9860 h4        1 1UO      0.178000
     45 H13         1.4200   -0.1130    2.7840 h4        1 1UO      0.047100
     46 H14         1.9560    3.3500   -0.0210 h4        1 1UO      0.027100
     47 H15        -2.1600    5.1900   -0.8260 hn        1 1UO      0.417300
     48 H16        -3.2600    3.9780   -0.4370 hn        1 1UO      0.417300
     49 H17        -3.0770   -1.5790    2.4940 ha        1 1UO      0.153000
     50 H18        -5.0210   -3.0760    2.8170 ha        1 1UO      0.148000
     51 H19        -6.8930   -3.1280    1.1510 ha        1 1UO      0.160000
@<TRIPOS>BOND
     1    1    2 1   
     2    1   33 1   
     3    2    3 1   
     4    2    7 1   
     5    2   34 1   
     6    3    4 1   
     7    3   35 1   
     8    3   36 1   
     9    4    5 1   
    10    4   37 1   
    11    4   38 1   
    12    5    6 1   
    13    5    8 1   
    14    5   39 1   
    15    6    7 1   
    16    6   40 1   
    17    6   41 1   
    18    7   42 1   
    19    7   43 1   
    20    8    9 1   
    21    8   12 1   
    22    9   10 2   
    23    9   44 1   
    24   10   11 1   
    25   10   13 1   
    26   11   12 2   
    27   11   45 1   
    28   13   14 ar  
    29   13   32 ar  
    30   14   15 ar  
    31   14   46 1   
    32   15   16 ar  
    33   16   17 1   
    34   16   18 ar  
    35   17   47 1   
    36   17   48 1   
    37   18   19 1   
    38   18   32 ar  
    39   19   20 1   
    40   20   21 1   
    41   20   30 2   
    42   21   22 ar  
    43   21   29 ar  
    44   22   23 ar  
    45   22   49 1   
    46   23   24 ar  
    47   23   50 1   
    48   24   25 ar  
    49   24   51 1   
    50   25   26 1   
    51   25   29 ar  
    52   26   27 2   
    53   27   28 1   
    54   28   29 1   
    55   30   31 1   
    56   30   32 1   
@<TRIPOS>SUBSTRUCTURE
     1 1UO         1 TEMP              0 ****  ****    0 ROOT
