@<TRIPOS>MOLECULE
1UO
   51    56     1     0     0
SMALL
bcc


@<TRIPOS>ATOM
      1 O1         -0.2230   -0.3250   -0.0410 oh        1 1UO     -0.595800
      2 C2          1.1860   -0.2520   -0.2190 c3        1 1UO      0.139100
      3 C4          1.7630    0.2250    1.1110 c3        1 1UO     -0.095900
      4 C5          3.2730    0.2670    1.0570 c3        1 1UO     -0.090900
      5 C6          3.8320   -1.1230    0.7060 c3        1 1UO      0.064000
      6 C8          3.2700   -1.5740   -0.6530 c3        1 1UO     -0.090900
      7 C9          1.7590   -1.6130   -0.6050 c3        1 1UO     -0.095900
      8 N10         5.2950   -1.1420    0.7220 na        1 1UO      0.090400
      9 C11         6.1070   -0.3530   -0.0990 cc        1 1UO     -0.126300
     10 C12         7.4400   -0.6630    0.2330 cd        1 1UO     -0.213300
     11 C13         7.3260   -1.6670    1.2740 cd        1 1UO      0.318200
     12 N14         6.0220   -1.9260    1.5380 nc        1 1UO     -0.510800
     13 C15         8.6330   -0.1320   -0.3590 ca        1 1UO     -0.101300
     14 C16         8.7900   -0.1500   -1.7650 ca        1 1UO      0.424200
     15 N17         9.8490    0.2950   -2.4630 nb        1 1UO     -0.709000
     16 C18        10.9030    0.8470   -1.7840 ca        1 1UO      0.659200
     17 N19        11.9820    1.4190   -2.4570 nv        1 1UO     -0.922500
     18 C20        10.8280    0.8950   -0.3660 ca        1 1UO     -0.114200
     19 O21        11.8040    1.4070    0.4920 os        1 1UO     -0.180200
     20 C22        11.2780    1.2660    1.7910 cc        1 1UO      0.095900
     21 C23        12.1140    1.7240    2.8800 ca        1 1UO     -0.005800
     22 C24        12.2320    0.9340    4.0270 ca        1 1UO     -0.070000
     23 C25        13.0180    1.3370    5.1150 ca        1 1UO     -0.144000
     24 C26        13.7090    2.5390    5.0960 ca        1 1UO     -0.035000
     25 C27        13.6040    3.3490    3.9550 ca        1 1UO     -0.007600
     26 N28        14.2270    4.6180    3.7520 nc        1 1UO     -0.135400
     27 N29        13.9530    5.1160    2.6590 nd        1 1UO     -0.119500
     28 S30        12.9260    4.1890    1.6790 ss        1 1UO      0.162600
     29 C31        12.8020    2.9450    2.8280 ca        1 1UO     -0.053100
     30 C32        10.0220    0.6810    1.7590 cd        1 1UO     -0.024800
     31 Cl3         9.0370    0.3680    3.0660 cl        1 1UO     -0.026400
     32 C34         9.7010    0.4190    0.3620 ca        1 1UO     -0.017800
     33 H1         -0.5900   -0.6670   -0.8650 ho        1 1UO      0.401000
     34 H2          1.4190    0.4980   -1.0280 h1        1 1UO      0.033700
     35 H3          1.3630    1.2460    1.3390 hc        1 1UO      0.058450
     36 H4          1.4180   -0.4610    1.9270 hc        1 1UO      0.058450
     37 H5          3.6690    0.5950    2.0540 hc        1 1UO      0.055950
     38 H6          3.6090    1.0160    0.2930 hc        1 1UO      0.055950
     39 H7          3.4710   -1.8540    1.4930 h1        1 1UO      0.091700
     40 H8          3.6600   -2.5940   -0.9070 hc        1 1UO      0.055950
     41 H9          3.6070   -0.8690   -1.4570 hc        1 1UO      0.055950
     42 H10         1.3620   -1.9150   -1.6080 hc        1 1UO      0.058450
     43 H11         1.4150   -2.3790    0.1390 hc        1 1UO      0.058450
     44 H12         5.6980    0.3490   -0.8240 h4        1 1UO      0.178000
     45 H13         8.1360   -2.1730    1.7990 h4        1 1UO      0.047100
     46 H14         7.9830   -0.5760   -2.3930 h4        1 1UO      0.027100
     47 H15        12.8210    1.4610   -1.9240 hn        1 1UO      0.417300
     48 H16        12.0950    1.1650   -3.4120 hn        1 1UO      0.417300
     49 H17        11.6960   -0.0280    4.0780 ha        1 1UO      0.153000
     50 H18        13.0840    0.6830    5.9990 ha        1 1UO      0.148000
     51 H19        14.3260    2.8590    5.9490 ha        1 1UO      0.160000
@<TRIPOS>BOND
     1    1    2 1   
     2    1   33 1   
     3    2    3 1   
     4    2    7 1   
     5    2   34 1   
     6    3    4 1   
     7    3   35 1   
     8    3   36 1   
     9    4    5 1   
    10    4   37 1   
    11    4   38 1   
    12    5    6 1   
    13    5    8 1   
    14    5   39 1   
    15    6    7 1   
    16    6   40 1   
    17    6   41 1   
    18    7   42 1   
    19    7   43 1   
    20    8    9 1   
    21    8   12 1   
    22    9   10 2   
    23    9   44 1   
    24   10   11 1   
    25   10   13 1   
    26   11   12 2   
    27   11   45 1   
    28   13   14 ar  
    29   13   32 ar  
    30   14   15 ar  
    31   14   46 1   
    32   15   16 ar  
    33   16   17 1   
    34   16   18 ar  
    35   17   47 1   
    36   17   48 1   
    37   18   19 1   
    38   18   32 ar  
    39   19   20 1   
    40   20   21 1   
    41   20   30 2   
    42   21   22 ar  
    43   21   29 ar  
    44   22   23 ar  
    45   22   49 1   
    46   23   24 ar  
    47   23   50 1   
    48   24   25 ar  
    49   24   51 1   
    50   25   26 1   
    51   25   29 ar  
    52   26   27 2   
    53   27   28 1   
    54   28   29 1   
    55   30   31 1   
    56   30   32 1   
@<TRIPOS>SUBSTRUCTURE
     1 1UO         1 TEMP              0 ****  ****    0 ROOT
