@<TRIPOS>MOLECULE
1UO
   51    45     1     0     0
SMALL
bcc


@<TRIPOS>ATOM
      1 O1         -7.7480   -2.3320    0.2240 oh        1 1UO     -0.325000
      2 C2         -6.3240   -2.3470    0.2220 c3        1 1UO      0.028000
      3 C4         -5.8370   -2.3600   -1.2160 c3        1 1UO     -0.175000
      4 C5         -4.3280   -2.1920   -1.3210 c3        1 1UO     -0.167500
      5 C6         -3.8260   -0.9890   -0.5510 c3        1 1UO      0.055000
      6 C8         -4.3130   -0.9760    0.8870 c3        1 1UO     -0.167500
      7 C9         -5.8210   -1.1440    0.9920 c3        1 1UO     -0.175000
      8 N10        -2.3660   -1.0010   -0.5540 n3        1 1UO     -0.124000
      9 C11        -1.5630   -0.2090   -1.3100 c1        1 1UO     -0.103000
     10 C12        -0.2570   -0.5270   -1.0190 c1        1 1UO     -0.148000
     11 C13        -0.2650   -1.5200   -0.0800 c1        1 1UO     -0.146000
     12 N14        -1.5640   -1.8150    0.2090 n2        1 1UO     -0.079000
     13 C15         0.9890    0.1170   -1.6400 c1        1 1UO     -0.032000
     14 C16         1.0850   -0.0820   -3.0150 c2        1 1UO     -0.042000
     15 N17         2.2200    0.3040   -3.6890 n1        1 1UO     -0.181000
     16 C18         3.2590    0.8870   -3.0090 c1        1 1UO      0.134000
     17 N19         4.3220    1.1760   -3.9270 n3        1 1UO     -0.318000
     18 C20         3.1660    1.0910   -1.6190 c1        1 1UO     -0.091000
     19 O21         4.0530    1.6530   -0.6940 o         1 1UO     -0.098000
     20 C22         3.4610    1.6090    0.5430 c1        1 1UO      0.044000
     21 C23         4.3070    2.1070    1.7390 c1        1 1UO      0.007000
     22 C24         4.3650    3.4640    2.0490 c2        1 1UO     -0.066000
     23 C25         5.3110    3.9330    2.9730 c1        1 1UO     -0.146000
     24 C26         6.1930    3.0430    3.5820 c1        1 1UO     -0.034000
     25 C27         6.1360    1.6830    3.2730 c1        1 1UO     -0.145000
     26 N28         7.0170    0.4940    3.7120 n1        1 1UO      0.005000
     27 N29         6.5620   -0.6890    3.0200 n2        1 1UO     -0.153000
     28 S30         5.4310   -0.3060    2.1590 ss        1 1UO      0.418000
     29 C31         5.1910    1.2140    2.3490 c1        1 1UO     -0.284000
     30 C32         2.2160    1.0270    0.4000 c1        1 1UO     -0.125000
     31 CL3         1.4150    0.8550    1.9460 cl        1 1UO      0.071000
     32 C34         2.0420    0.7080   -0.9480 c1        1 1UO     -0.006000
     33 H1         -8.0570   -3.1290    0.5030 ho        1 1UO      0.200000
     34 H2         -6.0160   -3.1590    0.6680 h1        1 1UO      0.078000
     35 H3         -6.2720   -1.6290   -1.7050 hc        1 1UO      0.094250
     36 H4         -6.0890   -3.2090   -1.6270 hc        1 1UO      0.094250
     37 H5         -4.0860   -2.0880   -2.2690 hc        1 1UO      0.102000
     38 H6         -3.8940   -2.9970   -0.9690 hc        1 1UO      0.102000
     39 H7         -4.1350   -0.1800   -0.9960 h1        1 1UO      0.102000
     40 H8         -3.8790   -1.7060    1.3750 hc        1 1UO      0.102000
     41 H9         -4.0600   -0.1260    1.2990 hc        1 1UO      0.102000
     42 H10        -6.2550   -0.3390    0.6400 hc        1 1UO      0.094250
     43 H11        -6.0630   -1.2480    1.9310 hc        1 1UO      0.094250
     44 H12        -1.8600    0.4680   -1.9480 DU        1 1UO      0.182000
     45 H13         0.5220   -1.9430    0.3150 DU        1 1UO      0.182000
     46 H14         0.3430   -0.4980   -3.5040 h4        1 1UO      0.165000
     47 H15         4.2640    0.8980   -4.7950 hn        1 1UO      0.210000
     48 H16         5.0540    1.6670   -3.6480 hn        1 1UO      0.210000
     49 H17         3.7490    4.0870    1.6240 ha        1 1UO      0.152000
     50 H18         5.3510    4.8860    3.1900 ha        1 1UO      0.147000
     51 H19         6.8530    3.3710    4.2280 ha        1 1UO      0.160000
@<TRIPOS>BOND
     1    1    2 1   
     2    1   33 1   
     3    2    3 1   
     4    2    7 1   
     5    2   34 1   
     6    3    4 1   
     7    3   35 1   
     8    3   36 1   
     9    4    5 1   
    10    4   37 1   
    11    4   38 1   
    12    5    6 1   
    13    5    8 1   
    14    5   39 1   
    15    6    7 1   
    16    6   40 1   
    17    6   41 1   
    18    7   42 1   
    19    7   43 1   
    20    8    9 1   
    21    8   12 1   
    22    9   10 1   
    23   10   11 1   
    24   11   12 1   
    25   13   14 1   
    26   13   32 1   
    27   14   15 1   
    28   14   46 1   
    29   16   17 1   
    30   16   18 1   
    31   17   47 1   
    32   17   48 1   
    33   19   20 1   
    34   20   30 1   
    35   21   22 1   
    36   21   29 1   
    37   22   23 1   
    38   22   49 1   
    39   23   50 1   
    40   24   25 1   
    41   24   51 1   
    42   26   27 1   
    43   27   28 1   
    44   28   29 1   
    45   30   32 1   
@<TRIPOS>SUBSTRUCTURE
     1 1UO         1 TEMP              0 ****  ****    0 ROOT
