@<TRIPOS>MOLECULE
1UO
   52    57     1     0     0
SMALL
bcc


@<TRIPOS>ATOM
      1 O1         -0.3130   -0.6710   -0.2780 oh        1 1UO     -0.587800
      2 C2          1.0910   -0.5230   -0.4240 c3        1 1UO      0.141100
      3 C4          1.5760    0.1870    0.8370 c3        1 1UO     -0.099900
      4 C5          3.0820    0.3220    0.8380 c3        1 1UO     -0.088400
      5 C6          3.7320   -1.0660    0.7240 c3        1 1UO      0.050000
      6 C8          3.2750   -1.7490   -0.5750 c3        1 1UO     -0.088400
      7 C9          1.7690   -1.8820   -0.5820 c3        1 1UO     -0.099900
      8 N10         5.2000   -0.9880    0.8090 na        1 1UO      0.124400
      9 C11         6.0040   -0.2580   -0.0520 cc        1 1UO     -0.081300
     10 C12         7.3420   -0.4320    0.3920 cd        1 1UO     -0.303300
     11 C13         7.2210   -1.3190    1.5360 cd        1 1UO      0.349200
     12 N14         5.9230   -1.6310    1.7480 nc        1 1UO     -0.483800
     13 C15         8.5190    0.1010   -0.2010 ca        1 1UO      0.072700
     14 C16         8.5850    0.1900   -1.6360 ca        1 1UO      0.383200
     15 N17         9.6230    0.6100   -2.3550 nb        1 1UO     -0.609000
     16 C18        10.7480    1.0060   -1.6820 ca        1 1UO      0.373200
     17 N19        11.9150    1.4550   -2.4500 n4        1 1UO     -0.792300
     18 C20        10.7810    0.9820   -0.2840 ca        1 1UO      0.012800
     19 O21        11.8260    1.3900    0.5250 os        1 1UO     -0.207200
     20 C22        11.3550    1.2510    1.8620 cc        1 1UO      0.132900
     21 C23        12.2860    1.6350    2.8970 ca        1 1UO     -0.042800
     22 C24        12.3910    0.8470    4.0500 ca        1 1UO     -0.051000
     23 C25        13.2670    1.1850    5.0870 ca        1 1UO     -0.140000
     24 C26        14.0680    2.3180    5.0120 ca        1 1UO     -0.007000
     25 C27        13.9770    3.1200    3.8660 ca        1 1UO     -0.001600
     26 N28        14.7100    4.3230    3.6080 nc        1 1UO     -0.111400
     27 N29        14.4330    4.8380    2.5300 nd        1 1UO     -0.072500
     28 S30        13.2570    4.0040    1.6160 ss        1 1UO      0.075600
     29 C31        13.0810    2.7840    2.7890 ca        1 1UO     -0.035100
     30 C32        10.0620    0.7540    1.8740 cd        1 1UO     -0.014800
     31 CL3         9.1190    0.5150    3.2190 cl        1 1UO      0.020600
     32 C34         9.6520    0.5450    0.4880 ca        1 1UO     -0.070800
     33 H1         -0.6320   -1.1250   -1.0670 ho        1 1UO      0.408000
     34 H2          1.3090    0.1140   -1.3290 h1        1 1UO      0.033700
     35 H3          1.2330   -0.3890    1.7370 hc        1 1UO      0.067700
     36 H4          1.1050    1.2030    0.8900 hc        1 1UO      0.067700
     37 H5          3.4060    0.8210    1.7890 hc        1 1UO      0.054700
     38 H6          3.4080    0.9690   -0.0180 hc        1 1UO      0.054700
     39 H7          3.3790   -1.6960    1.5970 h1        1 1UO      0.107700
     40 H8          3.6080   -1.1460   -1.4610 hc        1 1UO      0.054700
     41 H9          3.7380   -2.7670   -0.6580 hc        1 1UO      0.054700
     42 H10         1.4350   -2.5550    0.2510 hc        1 1UO      0.067700
     43 H11         1.4430   -2.3530   -1.5460 hc        1 1UO      0.067700
     44 H12         5.6020    0.3350   -0.8750 h4        1 1UO      0.188000
     45 H13         8.0220   -1.7330    2.1510 h4        1 1UO      0.058100
     46 H14         7.7050   -0.1260   -2.2330 h4        1 1UO      0.060100
     47 H15        11.6380    2.1870   -3.1160 hn        1 1UO      0.471133
     48 H16        12.6150    1.8270   -1.7960 hn        1 1UO      0.471133
     49 H17        11.7710   -0.0610    4.1440 ha        1 1UO      0.155000
     50 H18        13.3200    0.5380    5.9780 ha        1 1UO      0.164000
     51 H19        14.7580    2.5870    5.8290 ha        1 1UO      0.177000
     52 H193       12.3120    0.6630   -2.9690 hn        1 1UO      0.471133
@<TRIPOS>BOND
     1    1    2 1   
     2    1   33 1   
     3    2    3 1   
     4    2    7 1   
     5    2   34 1   
     6    3    4 1   
     7    3   35 1   
     8    3   36 1   
     9    4    5 1   
    10    4   37 1   
    11    4   38 1   
    12    5    6 1   
    13    5    8 1   
    14    5   39 1   
    15    6    7 1   
    16    6   40 1   
    17    6   41 1   
    18    7   42 1   
    19    7   43 1   
    20    8    9 1   
    21    8   12 1   
    22    9   10 2   
    23    9   44 1   
    24   10   11 1   
    25   10   13 1   
    26   11   12 2   
    27   11   45 1   
    28   13   14 ar  
    29   13   32 ar  
    30   14   15 ar  
    31   14   46 1   
    32   15   16 ar  
    33   16   17 1   
    34   16   18 ar  
    35   17   47 1   
    36   17   48 1   
    37   17   52 1   
    38   18   19 1   
    39   18   32 ar  
    40   19   20 1   
    41   20   21 1   
    42   20   30 2   
    43   21   22 ar  
    44   21   29 ar  
    45   22   23 ar  
    46   22   49 1   
    47   23   24 ar  
    48   23   50 1   
    49   24   25 ar  
    50   24   51 1   
    51   25   26 1   
    52   25   29 ar  
    53   26   27 2   
    54   27   28 1   
    55   28   29 1   
    56   30   31 1   
    57   30   32 1   
@<TRIPOS>SUBSTRUCTURE
     1 1UO         1 TEMP              0 ****  ****    0 ROOT
