@<TRIPOS>MOLECULE
1UP
   37    38     1     0     0
SMALL
bcc


@<TRIPOS>ATOM
      1 O3          2.6120   -1.1200    1.0290 o         1 1UP     -0.379100
      2 C13         2.0400   -0.7070    0.0360 c         1 1UP      0.525100
      3 N1          0.6920   -1.3170   -0.2490 n4        1 1UP     -0.751400
      4 C12         2.5510    0.3510   -0.9230 c3        1 1UP      0.071400
      5 O2          1.5740    0.6790   -1.9020 os        1 1UP     -0.343900
      6 C11         1.9260    0.3850   -3.2190 ca        1 1UP      0.024100
      7 C2          2.2020   -0.9150   -3.6380 ca        1 1UP      0.126100
      8 O1          2.2250   -1.8870   -2.6580 os        1 1UP     -0.407900
      9 C1          2.7270   -3.1750   -3.0440 c3        1 1UP      0.109700
     10 C10         1.8700    1.4590   -4.1590 ca        1 1UP     -0.010000
     11 C5          2.1000    1.1660   -5.5290 ca        1 1UP     -0.029000
     12 C4          2.3910   -0.1690   -5.9290 ca        1 1UP     -0.057000
     13 C3          2.4450   -1.1860   -5.0110 ca        1 1UP     -0.144000
     14 C9          1.5790    2.7950   -3.7740 ca        1 1UP     -0.059000
     15 C8          1.5200    3.7920   -4.7270 ca        1 1UP     -0.228900
     16 C14         1.1580    5.1720   -4.3300 ce        1 1UP      0.579800
     17 N3          2.2280    6.1710   -4.6820 n4        1 1UP     -0.821600
     18 N2          0.1140    5.6360   -3.7610 n2        1 1UP     -0.694100
     19 C7          1.7390    3.5010   -6.0980 ca        1 1UP     -0.132000
     20 C6          2.0240    2.2150   -6.4860 ca        1 1UP     -0.061000
     21 H1          0.4070   -1.9450    0.5120 hn        1 1UP      0.478800
     22 H2         -0.0030   -0.5720   -0.3650 hn        1 1UP      0.478800
     23 H3          2.7290    1.2900   -0.3230 h1        1 1UP      0.133700
     24 H4          3.5130   -0.0250   -1.3680 h1        1 1UP      0.133700
     25 H5          2.0180   -3.6610   -3.7580 h1        1 1UP      0.073700
     26 H6          2.7670   -3.7360   -2.0760 h1        1 1UP      0.073700
     27 H7          3.7480   -3.0800   -3.4870 h1        1 1UP      0.073700
     28 H8          2.5710   -0.3750   -6.9990 ha        1 1UP      0.178000
     29 H9          2.6670   -2.2160   -5.3370 ha        1 1UP      0.178000
     30 H10         1.3970    3.0050   -2.7070 ha        1 1UP      0.155000
     31 H11         3.0690    5.9580   -4.1370 hn        1 1UP      0.476133
     32 H12         2.4400    6.0790   -5.6820 hn        1 1UP      0.476133
     33 H13        -0.6310    5.0120   -3.5270 hn        1 1UP      0.490400
     34 H14         1.6450    4.2940   -6.8570 ha        1 1UP      0.150000
     35 H15         2.1900    1.9740   -7.5510 ha        1 1UP      0.177000
     36 H131        0.7490   -1.8450   -1.1320 hn        1 1UP      0.478800
     37 H33         1.9300    7.1380   -4.4850 hn        1 1UP      0.476133
@<TRIPOS>BOND
     1    1    2 2   
     2    2    3 1   
     3    2    4 1   
     4    3   21 1   
     5    3   22 1   
     6    3   36 1   
     7    4    5 1   
     8    4   23 1   
     9    4   24 1   
    10    5    6 1   
    11    6    7 ar  
    12    6   10 ar  
    13    7    8 1   
    14    7   13 ar  
    15    8    9 1   
    16    9   25 1   
    17    9   26 1   
    18    9   27 1   
    19   10   11 ar  
    20   10   14 ar  
    21   11   12 ar  
    22   11   20 ar  
    23   12   13 ar  
    24   12   28 1   
    25   13   29 1   
    26   14   15 ar  
    27   14   30 1   
    28   15   16 1   
    29   15   19 ar  
    30   16   17 1   
    31   16   18 2   
    32   17   31 1   
    33   17   32 1   
    34   17   37 1   
    35   18   33 1   
    36   19   20 ar  
    37   19   34 1   
    38   20   35 1   
@<TRIPOS>SUBSTRUCTURE
     1 1UP         1 TEMP              0 ****  ****    0 ROOT
