@<TRIPOS>MOLECULE
1UP
   37    38     1     0     0
SMALL
bcc


@<TRIPOS>ATOM
      1 O3          2.4950   -1.1280    1.0410 o         1 1UP     -0.379100
      2 C13         1.9500   -0.7170    0.0330 c         1 1UP      0.525100
      3 N1          0.6160   -1.3360   -0.2940 n4        1 1UP     -0.751400
      4 C12         2.4810    0.3470   -0.9070 c3        1 1UP      0.071400
      5 O2          1.5310    0.6720   -1.9140 os        1 1UP     -0.343900
      6 C11         1.9240    0.3840   -3.2210 ca        1 1UP      0.024100
      7 C2          2.2220   -0.9120   -3.6350 ca        1 1UP      0.126100
      8 O1          2.2230   -1.8870   -2.6580 os        1 1UP     -0.407900
      9 C1          2.7470   -3.1700   -3.0340 c3        1 1UP      0.109700
     10 C10         1.8880    1.4610   -4.1590 ca        1 1UP     -0.010000
     11 C5          2.1600    1.1740   -5.5220 ca        1 1UP     -0.029000
     12 C4          2.4720   -0.1570   -5.9170 ca        1 1UP     -0.057000
     13 C3          2.5070   -1.1770   -5.0020 ca        1 1UP     -0.144000
     14 C9          1.5750    2.7930   -3.7780 ca        1 1UP     -0.059000
     15 C8          1.5360    3.7930   -4.7300 ca        1 1UP     -0.228900
     16 C14         1.1530    5.1690   -4.3390 ce        1 1UP      0.579800
     17 N3          2.2250    6.1770   -4.6570 n4        1 1UP     -0.821600
     18 N2          0.0890    5.6240   -3.8000 n2        1 1UP     -0.694100
     19 C7          1.7980    3.5080   -6.0950 ca        1 1UP     -0.132000
     20 C6          2.1040    2.2250   -6.4790 ca        1 1UP     -0.061000
     21 H1          0.7030   -1.8620   -1.1770 hn        1 1UP      0.478800
     22 H2         -0.0820   -0.5970   -0.4280 hn        1 1UP      0.478800
     23 H3          3.4580   -0.0210   -1.3250 h1        1 1UP      0.133700
     24 H4          2.6350    1.2860   -0.3000 h1        1 1UP      0.133700
     25 H5          3.7790   -3.0660   -3.4460 h1        1 1UP      0.073700
     26 H6          2.0630   -3.6590   -3.7690 h1        1 1UP      0.073700
     27 H7          2.7620   -3.7330   -2.0660 h1        1 1UP      0.073700
     28 H8          2.6850   -0.3580   -6.9830 ha        1 1UP      0.178000
     29 H9          2.7470   -2.2040   -5.3240 ha        1 1UP      0.178000
     30 H10         1.3610    2.9990   -2.7170 ha        1 1UP      0.155000
     31 H11         1.9150    7.1410   -4.4650 hn        1 1UP      0.476133
     32 H12         3.0520    5.9680   -4.0880 hn        1 1UP      0.476133
     33 H13        -0.6570    4.9940   -3.5900 hn        1 1UP      0.490400
     34 H14         1.7200    4.3030   -6.8540 ha        1 1UP      0.150000
     35 H15         2.3030    1.9890   -7.5390 ha        1 1UP      0.177000
     36 H131        0.3130   -1.9690    0.4570 hn        1 1UP      0.478800
     37 H33         2.4670    6.0900   -5.6510 hn        1 1UP      0.476133
@<TRIPOS>BOND
     1    1    2 2   
     2    2    3 1   
     3    2    4 1   
     4    3   21 1   
     5    3   22 1   
     6    3   36 1   
     7    4    5 1   
     8    4   23 1   
     9    4   24 1   
    10    5    6 1   
    11    6    7 ar  
    12    6   10 ar  
    13    7    8 1   
    14    7   13 ar  
    15    8    9 1   
    16    9   25 1   
    17    9   26 1   
    18    9   27 1   
    19   10   11 ar  
    20   10   14 ar  
    21   11   12 ar  
    22   11   20 ar  
    23   12   13 ar  
    24   12   28 1   
    25   13   29 1   
    26   14   15 ar  
    27   14   30 1   
    28   15   16 1   
    29   15   19 ar  
    30   16   17 1   
    31   16   18 2   
    32   17   31 1   
    33   17   32 1   
    34   17   37 1   
    35   18   33 1   
    36   19   20 ar  
    37   19   34 1   
    38   20   35 1   
@<TRIPOS>SUBSTRUCTURE
     1 1UP         1 TEMP              0 ****  ****    0 ROOT
