@<TRIPOS>MOLECULE
1UP
   37    38     1     0     0
SMALL
bcc


@<TRIPOS>ATOM
      1 O3          0.1150   -0.5840   -0.0940 o         1 1UP     -0.358100
      2 C13         1.3090   -0.7350   -0.2610 c         1 1UP      0.520100
      3 N1          1.8760   -2.0480    0.2380 nz        1 1UP     -0.764400
      4 C12         2.3080    0.2200   -0.8980 c3        1 1UP      0.088400
      5 O2          1.6380    0.9060   -1.9380 os        1 1UP     -0.291900
      6 C11         1.9450    0.5240   -3.2430 ca        1 1UP      0.058100
      7 C2          2.1560   -0.7830   -3.6660 ca        1 1UP      0.105100
      8 O1          2.1300   -1.7870   -2.7080 os        1 1UP     -0.414900
      9 C1          2.0050   -3.1220   -3.2190 c3        1 1UP      0.112700
     10 C10         1.9330    1.6010   -4.1870 ca        1 1UP     -0.019000
     11 C5          2.1700    1.3080   -5.5550 ca        1 1UP     -0.018000
     12 C4          2.4330   -0.0320   -5.9520 ca        1 1UP     -0.072000
     13 C3          2.4250   -1.0520   -5.0360 ca        1 1UP     -0.134000
     14 C9          1.6520    2.9390   -3.8010 ca        1 1UP     -0.047000
     15 C8          1.6050    3.9380   -4.7530 ca        1 1UP     -0.236900
     16 C14         1.2300    5.3120   -4.3550 ce        1 1UP      0.581800
     17 N3          2.2860    6.3250   -4.7110 nz        1 1UP     -0.821600
     18 N2          0.1830    5.7650   -3.7800 n2        1 1UP     -0.696100
     19 C7          1.8400    3.6480   -6.1230 ca        1 1UP     -0.128000
     20 C6          2.1210    2.3610   -6.5100 ca        1 1UP     -0.067000
     21 H1          1.1370   -2.6130    0.6790 hn        1 1UP      0.473467
     22 H2          2.2640   -2.5660   -0.5610 hn        1 1UP      0.473467
     23 H3          2.5520    1.0120   -0.1300 h1        1 1UP      0.118200
     24 H4          3.2360   -0.3020   -1.2500 h1        1 1UP      0.118200
     25 H5          1.1730   -3.1910   -3.9600 h1        1 1UP      0.066033
     26 H6          1.7660   -3.7320   -2.3110 h1        1 1UP      0.066033
     27 H7          2.9760   -3.4480   -3.6670 h1        1 1UP      0.066033
     28 H8          2.6360   -0.2410   -7.0170 ha        1 1UP      0.176000
     29 H9          2.6260   -2.0860   -5.3640 ha        1 1UP      0.173000
     30 H10         1.4610    3.1500   -2.7360 ha        1 1UP      0.161000
     31 H11         3.1340    6.1160   -4.1730 hn        1 1UP      0.474800
     32 H12         2.4920    6.2390   -5.7120 hn        1 1UP      0.474800
     33 H13        -0.5530    5.1330   -3.5410 hn        1 1UP      0.493400
     34 H14         1.7610    4.4430   -6.8810 ha        1 1UP      0.148000
     35 H15         2.2990    2.1200   -7.5730 ha        1 1UP      0.175000
     36 H131        2.6200   -1.8810    0.9220 hn        1 1UP      0.473467
     37 H33         1.9810    7.2870   -4.5050 hn        1 1UP      0.474800
@<TRIPOS>BOND
     1    1    2 2   
     2    2    3 1   
     3    2    4 1   
     4    3   21 1   
     5    3   22 1   
     6    3   36 1   
     7    4    5 1   
     8    4   23 1   
     9    4   24 1   
    10    5    6 1   
    11    6    7 ar  
    12    6   10 ar  
    13    7    8 1   
    14    7   13 ar  
    15    8    9 1   
    16    9   25 1   
    17    9   26 1   
    18    9   27 1   
    19   10   11 ar  
    20   10   14 ar  
    21   11   12 ar  
    22   11   20 ar  
    23   12   13 ar  
    24   12   28 1   
    25   13   29 1   
    26   14   15 ar  
    27   14   30 1   
    28   15   16 1   
    29   15   19 ar  
    30   16   17 1   
    31   16   18 2   
    32   17   31 1   
    33   17   32 1   
    34   17   37 1   
    35   18   33 1   
    36   19   20 ar  
    37   19   34 1   
    38   20   35 1   
@<TRIPOS>SUBSTRUCTURE
     1 1UP         1 TEMP              0 ****  ****    0 ROOT
