@<TRIPOS>MOLECULE
1UP
   35    36     1     0     0
SMALL
bcc


@<TRIPOS>ATOM
      1 O3          0.4360   -3.0240    0.1660 o         1 1UP     -0.595100
      2 C13         1.4510   -2.4810    0.6450 c         1 1UP      0.624100
      3 N1          1.8650   -2.7920    1.9160 n         1 1UP     -0.675000
      4 C12         2.2960   -1.5060   -0.1700 c3        1 1UP      0.061400
      5 O2          1.4610   -0.6380   -0.9330 os        1 1UP     -0.298900
      6 C11         1.0180    0.4980   -0.2710 ca        1 1UP      0.072100
      7 C2          1.8900    1.5200    0.0980 ca        1 1UP      0.086100
      8 O1          3.2440    1.2610   -0.0250 os        1 1UP     -0.335900
      9 C1          4.0910    2.4040   -0.0910 c3        1 1UP      0.115700
     10 C10        -0.3910    0.6590   -0.1070 ca        1 1UP     -0.020000
     11 C5         -0.8830    1.8910    0.3950 ca        1 1UP     -0.047000
     12 C4          0.0300    2.9170    0.7560 ca        1 1UP     -0.095000
     13 C3          1.3840    2.7390    0.6210 ca        1 1UP     -0.167000
     14 C9         -1.3080   -0.3750   -0.4450 ca        1 1UP     -0.074000
     15 C8         -2.6620   -0.1720   -0.3060 ca        1 1UP     -0.183900
     16 C14        -3.6270   -1.2530   -0.6890 ce        1 1UP      0.643800
     17 N3         -4.4950   -1.6530    0.3470 nh        1 1UP     -0.893800
     18 N2         -3.6470   -1.8330   -1.8530 n2        1 1UP     -0.832100
     19 C7         -3.1570    1.0680    0.1780 ca        1 1UP     -0.115000
     20 C6         -2.2880    2.0720    0.5230 ca        1 1UP     -0.119000
     21 H1          1.3250   -3.4140    2.4650 hn        1 1UP      0.310500
     22 H2          2.6140   -2.3120    2.3420 hn        1 1UP      0.310500
     23 H3          3.0180   -0.9230    0.4570 h1        1 1UP      0.082700
     24 H4          2.8470   -2.0940   -0.9560 h1        1 1UP      0.082700
     25 H5          5.0740    1.9810   -0.4180 h1        1 1UP      0.046033
     26 H6          3.7130    3.1450   -0.8350 h1        1 1UP      0.046033
     27 H7          4.1830    2.8730    0.9190 h1        1 1UP      0.046033
     28 H8         -0.3700    3.8650    1.1500 ha        1 1UP      0.138000
     29 H9          2.0830    3.5370    0.9090 ha        1 1UP      0.141000
     30 H10        -0.9000   -1.3410   -0.7990 ha        1 1UP      0.186000
     31 H11        -4.7590   -0.9130    0.9580 hn        1 1UP      0.397300
     32 H12        -5.2520   -2.2410    0.0740 hn        1 1UP      0.397300
     33 H13        -2.9140   -1.5450   -2.4650 hn        1 1UP      0.398400
     34 H14        -4.2430    1.2210    0.2650 ha        1 1UP      0.131000
     35 H15        -2.6620    3.0350    0.9010 ha        1 1UP      0.134000
@<TRIPOS>BOND
     1    1    2 2   
     2    2    3 1   
     3    2    4 1   
     4    3   21 1   
     5    3   22 1   
     6    4    5 1   
     7    4   23 1   
     8    4   24 1   
     9    5    6 1   
    10    6    7 ar  
    11    6   10 ar  
    12    7    8 1   
    13    7   13 ar  
    14    8    9 1   
    15    9   25 1   
    16    9   26 1   
    17    9   27 1   
    18   10   11 ar  
    19   10   14 ar  
    20   11   12 ar  
    21   11   20 ar  
    22   12   13 ar  
    23   12   28 1   
    24   13   29 1   
    25   14   15 ar  
    26   14   30 1   
    27   15   16 1   
    28   15   19 ar  
    29   16   17 1   
    30   16   18 2   
    31   17   31 1   
    32   17   32 1   
    33   18   33 1   
    34   19   20 ar  
    35   19   34 1   
    36   20   35 1   
@<TRIPOS>SUBSTRUCTURE
     1 1UP         1 TEMP              0 ****  ****    0 ROOT
