@<TRIPOS>MOLECULE
1UP
   35    28     1     0     0
SMALL
bcc


@<TRIPOS>ATOM
      1 O3         -2.1220   -0.9830    3.5180 o         1 1UP     -0.374000
      2 C13        -0.9470   -1.3190    3.5250 c1        1 1UP      0.283000
      3 N1         -0.3430   -1.7700    4.7370 n2        1 1UP     -0.370500
      4 C12        -0.1080   -1.1810    2.2600 c3        1 1UP     -0.047000
      5 O2         -0.9650   -0.9140    1.1470 os        1 1UP     -0.231000
      6 C11        -0.2930   -0.8320   -0.0770 c2        1 1UP      0.020000
      7 C2         -0.2470   -2.0960   -0.6420 c1        1 1UP      0.005000
      8 O1         -0.6880   -3.3050   -0.0680 o         1 1UP     -0.222000
      9 C1         -1.8110   -3.8580   -0.6980 c3        1 1UP     -0.073000
     10 C10         0.2420    0.2710   -0.7670 c1        1 1UP      0.005000
     11 C5          0.8120    0.0960   -2.0040 c1        1 1UP     -0.031000
     12 C4          0.8600   -1.1910   -2.5800 c1        1 1UP     -0.116500
     13 C3          0.3290   -2.2780   -1.8940 c1        1 1UP     -0.112000
     14 C9          0.1670    1.5750   -0.1920 c1        1 1UP     -0.112000
     15 C8          0.6730    2.6710   -0.8860 c1        1 1UP     -0.090000
     16 C14         0.6800    4.1150   -0.3210 c1        1 1UP      0.100000
     17 N3         -0.4200    4.9830   -0.5780 n2        1 1UP     -0.370500
     18 N2          1.6920    4.5340    0.3890 n1        1 1UP     -0.290000
     19 C7          1.2570    2.4930   -2.1530 c1        1 1UP     -0.098000
     20 C6          1.3300    1.2190   -2.7140 c1        1 1UP     -0.116500
     21 H1          0.4710   -2.1460    4.7200 hn        1 1UP      0.207750
     22 H2         -0.8030   -1.7250    5.5120 hn        1 1UP      0.207750
     23 H3          0.3950   -2.0310    2.0960 h1        1 1UP      0.121500
     24 H4          0.5270   -0.4430    2.3680 h1        1 1UP      0.121500
     25 H5         -2.3230   -4.3830   -0.0470 h1        1 1UP      0.084667
     26 H6         -2.3780   -3.1360   -1.0560 h1        1 1UP      0.084667
     27 H7         -1.5190   -4.4430   -1.4360 h1        1 1UP      0.084667
     28 H8          1.2590   -1.3160   -3.4510 ha        1 1UP      0.139500
     29 H9          0.3630   -3.1810   -2.2960 ha        1 1UP      0.152500
     30 H10        -0.3100    1.7090    0.6550 ha        1 1UP      0.152500
     31 H11        -1.2030    4.6410   -0.8970 hn        1 1UP      0.207750
     32 H12        -0.3310    5.8810   -0.4560 hn        1 1UP      0.207750
     33 H13         2.3930    3.9780    0.5530 DU        1 1UP      0.176000
     34 H14         1.6160    3.2750   -2.6480 ha        1 1UP      0.154000
     35 H15         1.7470    1.0930   -3.6170 ha        1 1UP      0.139500
@<TRIPOS>BOND
     1    1    2 1   
     2    2    4 1   
     3    3   21 1   
     4    3   22 1   
     5    4    5 1   
     6    4   23 1   
     7    4   24 1   
     8    5    6 1   
     9    6    7 1   
    10    6   10 1   
    11    7   13 1   
    12    8    9 1   
    13    9   25 1   
    14    9   26 1   
    15    9   27 1   
    16   10   14 1   
    17   11   12 1   
    18   11   20 1   
    19   12   28 1   
    20   13   29 1   
    21   14   30 1   
    22   15   16 1   
    23   15   19 1   
    24   16   18 1   
    25   17   31 1   
    26   17   32 1   
    27   19   34 1   
    28   20   35 1   
@<TRIPOS>SUBSTRUCTURE
     1 1UP         1 TEMP              0 ****  ****    0 ROOT
