@<TRIPOS>MOLECULE
1UQ
   31    32     1     0     0
SMALL
bcc


@<TRIPOS>ATOM
      1 C2          0.0000    0.0000    0.0000 c2        1 1UQ      0.083000
      2 O4          0.0350    0.0000   -2.3940 oh        1 1UQ     -0.353000
      3 C5         -2.1380    0.0000   -1.1670 DU        1 1UQ     -0.287000
      4 C6          1.5080    0.0000    0.0000 c3        1 1UQ     -0.260000
      5 C19         5.6490    2.8470    4.1750 ca        1 1UQ     -0.129000
      6 C15         4.3360    2.4520    4.3460 ca        1 1UQ     -0.145500
      7 C14         3.7280    1.6440    3.3990 ca        1 1UQ     -0.094500
      8 C17         6.3570    2.4360    3.0580 ca        1 1UQ     -0.145500
      9 C16         5.9000    1.1830    2.4640 ca        1 1UQ     -0.094500
     10 C13         4.5260    1.0040    2.4480 ca        1 1UQ     -0.001000
     11 C8          3.9140   -0.0010    1.5060 c3        1 1UQ     -0.514000
     12 P9          4.5680   -1.6610    1.8800 p5        1 1UQ      0.926500
     13 O12         6.1680   -1.6610    1.6990 o         1 1UQ     -0.557167
     14 O11         3.9130   -2.7340    0.8730 o         1 1UQ     -0.557167
     15 O10         4.2290   -2.0220    3.2740 o         1 1UQ     -0.557167
     16 S7          2.1120    0.0000    1.7100 ss        1 1UQ      0.051000
     17 O1         -0.6060    0.0050    1.0500 o         1 1UQ     -0.292000
     18 N3         -0.6730   -0.0000   -1.1670 nx        1 1UQ      0.590000
     19 H1         -0.4190    0.5400   -3.0190 ho        1 1UQ      0.197000
     20 H2         -2.4990   -0.8750   -0.6400 hx        1 1UQ      0.075667
     21 H3         -2.4990    0.8940   -0.6730 hx        1 1UQ      0.075667
     22 H4         -2.5000   -0.0190   -2.1880 hx        1 1UQ      0.075667
     23 H5          1.8690   -0.9950   -0.2290 h1        1 1UQ      0.120500
     24 H6          1.8690    0.6960   -0.7470 h1        1 1UQ      0.120500
     25 H9          2.7820    1.2060    3.6950 ha        1 1UQ      0.153500
     26 H10         7.3940    2.7350    2.9620 ha        1 1UQ      0.083000
     27 H11         6.6360    0.4860    2.0810 ha        1 1UQ      0.153500
     28 H12         4.1620    0.2630    0.4850 h1        1 1UQ      0.091000
     29 H8          3.7840    2.7690    5.2230 ha        1 1UQ      0.083000
     30 H31        -1.1890    0.8530   -1.2550 DU        1 1UQ      0.030000
     31 H7          6.1170    3.5000    4.9030 ha        1 1UQ      0.078000
@<TRIPOS>BOND
     1    1    4 1   
     2    1   17 1   
     3    1   18 1   
     4    2   18 1   
     5    2   19 1   
     6    3   18 1   
     7    3   20 1   
     8    3   21 1   
     9    3   22 1   
    10    3   30 1   
    11    4   16 1   
    12    4   23 1   
    13    4   24 1   
    14    5    6 1   
    15    5    8 1   
    16    5   31 1   
    17    6    7 1   
    18    6   29 1   
    19    7   10 1   
    20    7   25 1   
    21    8    9 1   
    22    8   26 1   
    23    9   10 1   
    24    9   27 1   
    25   10   11 1   
    26   11   12 1   
    27   11   16 1   
    28   11   28 1   
    29   12   13 1   
    30   12   14 1   
    31   12   15 1   
    32   18   30 1   
@<TRIPOS>SUBSTRUCTURE
     1 1UQ         1 TEMP              0 ****  ****    0 ROOT
