@<TRIPOS>MOLECULE
1UQ
   30    24     1     0     0
SMALL
bcc


@<TRIPOS>ATOM
      1 C2         -2.5990   -0.2630   -1.3310 c1        1 1UQ      0.267000
      2 O4         -3.3020    1.4100   -2.9610 oh        1 1UQ     -0.264000
      3 C5         -4.8140   -0.4430   -2.4720 c3        1 1UQ     -0.112000
      4 C6         -1.1250    0.0990   -1.4910 c2        1 1UQ     -0.389000
      5 C19         2.6090    0.4700    3.9210 c1        1 1UQ     -0.173250
      6 C15         2.0090   -0.7070    3.4970 c1        1 1UQ     -0.173250
      7 C14         1.6450   -0.8580    2.1700 c1        1 1UQ     -0.173250
      8 C17         2.8430    1.4870    3.0210 c1        1 1UQ     -0.173250
      9 C16         2.4780    1.3350    1.6930 c1        1 1UQ     -0.234000
     10 C13         1.8790    0.1610    1.2700 c1        1 1UQ      0.133000
     11 C8          1.4440    0.0160   -0.1620 c2        1 1UQ     -0.707000
     12 P9          2.6090   -1.0750   -1.0450 p3        1 1UQ      2.361000
     13 O12         3.9820   -0.9550   -0.4220 os        1 1UQ     -1.120000
     14 O11         2.1320   -2.5120   -0.9430 o         1 1UQ     -1.120000
     15 O10         2.6780   -0.6660   -2.5090 o         1 1UQ     -1.120000
     16 S7         -0.1840   -0.6890   -0.2180 ss        1 1UQ      0.222000
     17 O1         -2.9590   -0.9690   -0.3930 o         1 1UQ     -0.381000
     18 N3         -3.5750    0.2650   -2.2510 n3        1 1UQ     -0.158000
     19 H1         -3.8450    2.0630   -2.6920 ho        1 1UQ      0.252000
     20 H2         -4.6250   -1.3980   -2.6150 h1        1 1UQ      0.080000
     21 H3         -5.3970   -0.3370   -1.6860 h1        1 1UQ      0.080000
     22 H4         -5.2680   -0.0730   -3.2710 h1        1 1UQ      0.080000
     23 H5         -0.8100   -0.2010   -2.3600 h4        1 1UQ      0.115000
     24 H6         -1.0160    1.0760   -1.4220 h4        1 1UQ      0.115000
     25 H7          2.8690    0.5790    4.8670 ha        1 1UQ      0.097250
     26 H8          1.7760   -1.3980    4.1480 ha        1 1UQ      0.097250
     27 H9          1.2220   -1.6870    1.8710 ha        1 1UQ      0.097250
     28 H10         3.2680    2.3210    3.3210 ha        1 1UQ      0.097250
     29 H11         2.6450    2.0570    1.0550 ha        1 1UQ      0.105000
     30 H12         1.4330    0.8910   -0.5880 h4        1 1UQ      0.101000
@<TRIPOS>BOND
     1    1   17 1   
     2    1   18 1   
     3    2   18 1   
     4    2   19 1   
     5    3   18 1   
     6    3   20 1   
     7    3   21 1   
     8    3   22 1   
     9    4   16 1   
    10    4   23 1   
    11    4   24 1   
    12    5    8 1   
    13    5   25 1   
    14    6    7 1   
    15    6   26 1   
    16    7   27 1   
    17    8   28 1   
    18    9   10 1   
    19    9   29 1   
    20   11   12 1   
    21   11   16 1   
    22   11   30 1   
    23   12   14 1   
    24   12   15 1   
@<TRIPOS>SUBSTRUCTURE
     1 1UQ         1 TEMP              0 ****  ****    0 ROOT
