@<TRIPOS>MOLECULE
1UQ
   30    29     1     0     0
SMALL
bcc


@<TRIPOS>ATOM
      1 C2          0.8480    0.6230    0.1870 c2        1 1UQ      0.293000
      2 O4          0.0700   -1.0090   -1.2940 oh        1 1UQ     -0.310000
      3 C5         -1.5120    0.0130    0.0060 c3        1 1UQ     -0.104000
      4 C6          2.2760    0.3840   -0.1790 c3        1 1UQ     -0.369000
      5 C19         4.7690    3.3070    4.3280 ca        1 1UQ     -0.302000
      6 C15         3.5080    2.8530    3.9250 ca        1 1UQ     -0.096000
      7 C14         3.3750    1.8270    3.0100 ca        1 1UQ     -0.241500
      8 C17         5.9030    2.7000    3.7820 ca        1 1UQ     -0.096000
      9 C16         5.7900    1.6730    2.8640 ca        1 1UQ     -0.241500
     10 C13         4.5160    1.1870    2.4420 ca        1 1UQ      0.141000
     11 C8          4.4270    0.1590    1.5050 c2        1 1UQ     -0.657000
     12 P9          3.5130   -3.0180   -0.0250 p3        1 1UQ      2.431000
     13 O12         4.8470   -2.9020   -0.6510 o         1 1UQ     -1.149000
     14 O11         3.3540   -3.8020    1.2180 o         1 1UQ     -1.149000
     15 O10         2.3180   -2.8050   -0.8890 o         1 1UQ     -1.149000
     16 S7          3.0820   -0.6650    1.0540 ss        1 1UQ      0.203000
     17 O1          0.4620    1.6310    0.8150 o         1 1UQ     -0.396000
     18 N3         -0.1220   -0.4050   -0.1180 n         1 1UQ     -0.147000
     19 H1          0.6970   -1.7570   -1.1140 ho        1 1UQ      0.305000
     20 H2         -1.7970    0.8140   -0.7260 h1        1 1UQ      0.067333
     21 H3         -1.6560    0.4010    1.0460 h1        1 1UQ      0.067333
     22 H4         -2.1620   -0.8820   -0.1670 h1        1 1UQ      0.067333
     23 H5          2.3490   -0.1100   -1.1780 h1        1 1UQ      0.125500
     24 H6          2.8090    1.3630   -0.2050 h1        1 1UQ      0.125500
     25 H9          2.3790    1.4870    2.6880 ha        1 1UQ      0.119000
     26 H10         6.9000    3.0470    4.0910 ha        1 1UQ      0.074000
     27 H11         6.6900    1.2030    2.4470 ha        1 1UQ      0.119000
     28 H12         5.3690   -0.1700    1.0460 h4        1 1UQ      0.118000
     29 H7          4.8640    4.1200    5.0550 ha        1 1UQ      0.077000
     30 H8          2.6080    3.3270    4.3440 ha        1 1UQ      0.074000
@<TRIPOS>BOND
     1    1    4 1   
     2    1   17 1   
     3    1   18 1   
     4    2   18 1   
     5    2   19 1   
     6    3   18 1   
     7    3   20 1   
     8    3   21 1   
     9    3   22 1   
    10    4   16 1   
    11    4   23 1   
    12    4   24 1   
    13    5    6 1   
    14    5    8 1   
    15    5   29 1   
    16    6    7 1   
    17    6   30 1   
    18    7   10 1   
    19    7   25 1   
    20    8    9 1   
    21    8   26 1   
    22    9   10 1   
    23    9   27 1   
    24   10   11 1   
    25   11   16 1   
    26   11   28 1   
    27   12   13 1   
    28   12   14 1   
    29   12   15 1   
@<TRIPOS>SUBSTRUCTURE
     1 1UQ         1 TEMP              0 ****  ****    0 ROOT
