@<TRIPOS>MOLECULE
1UQ
   30    29     1     0     0
SMALL
bcc


@<TRIPOS>ATOM
      1 C2        131.7620  270.0820 -116.7670 c2        1 1UQ      0.267000
      2 O4        131.9610  270.9570 -114.5750 oh        1 1UQ     -0.264000
      3 C5        132.9780  268.9640 -114.9700 c3        1 1UQ     -0.112000
      4 C6        131.1400  271.2950 -117.3790 c3        1 1UQ     -0.389000
      5 C19       130.0770  276.9450 -115.8790 ca        1 1UQ     -0.263000
      6 C15       129.9090  276.3270 -114.6380 ca        1 1UQ     -0.097000
      7 C14       129.7660  274.9530 -114.5420 ca        1 1UQ     -0.235000
      8 C17       130.0940  276.1530 -117.0290 ca        1 1UQ     -0.097000
      9 C16       129.9510  274.7790 -116.9490 ca        1 1UQ     -0.235000
     10 C13       129.7820  274.1250 -115.6980 ca        1 1UQ      0.132000
     11 C8        129.6540  272.7330 -115.5810 c2        1 1UQ     -0.707000
     12 P9       -848.8740-1768.9170  754.3880 p3        1 1UQ      2.361000
     13 O12      -850.1990-1768.3190  754.1460 o         1 1UQ     -1.120000
     14 O11      -847.8940-1769.0070  753.2900 o         1 1UQ     -1.120000
     15 O10      -848.5290-1769.4270  755.7270 o         1 1UQ     -1.120000
     16 S7        129.4920  271.6640 -116.7920 ss        1 1UQ      0.222000
     17 O1        131.7740  268.9770 -117.3460 o         1 1UQ     -0.381000
     18 N3        132.5310  270.2310 -115.5470 n         1 1UQ     -0.158000
     19 H1        131.7200  271.8240 -114.9670 ho        1 1UQ      0.252000
     20 H2        133.6480  268.4790 -115.7240 h1        1 1UQ      0.080000
     21 H3        133.5440  269.1840 -114.0300 h1        1 1UQ      0.080000
     22 H4        132.1290  268.2710 -114.7350 h1        1 1UQ      0.080000
     23 H5        131.7910  272.1900 -117.2400 h1        1 1UQ      0.115000
     24 H6        131.0190  271.1010 -118.4730 h1        1 1UQ      0.115000
     25 H9        129.6330  274.4810 -113.5600 ha        1 1UQ      0.112500
     26 H10       130.2220  276.6310 -118.0120 ha        1 1UQ      0.088000
     27 H11       129.9560  274.1620 -117.8590 ha        1 1UQ      0.112500
     28 H12       129.5900  272.3400 -114.5570 h4        1 1UQ      0.101000
     29 H7        130.1910  278.0330 -115.9490 ha        1 1UQ      0.093000
     30 H8        129.8910  276.9420 -113.7270 ha        1 1UQ      0.088000
@<TRIPOS>BOND
     1    1    4 1   
     2    1   17 1   
     3    1   18 1   
     4    2   18 1   
     5    2   19 1   
     6    3   18 1   
     7    3   20 1   
     8    3   21 1   
     9    3   22 1   
    10    4   16 1   
    11    4   23 1   
    12    4   24 1   
    13    5    6 1   
    14    5    8 1   
    15    5   29 1   
    16    6    7 1   
    17    6   30 1   
    18    7   10 1   
    19    7   25 1   
    20    8    9 1   
    21    8   26 1   
    22    9   10 1   
    23    9   27 1   
    24   10   11 1   
    25   11   16 1   
    26   11   28 1   
    27   12   13 1   
    28   12   14 1   
    29   12   15 1   
@<TRIPOS>SUBSTRUCTURE
     1 1UQ         1 TEMP              0 ****  ****    0 ROOT
