@<TRIPOS>MOLECULE
1UR
   29    21     1     0     0
SMALL
bcc


@<TRIPOS>ATOM
      1 CAK         0.7960    0.0910   -1.6110 c1        1 1UR     -0.345000
      2 CAL         2.2390    0.0190   -1.5910 c1        1 1UR      0.317000
      3 OAM         2.8540   -0.1510   -2.6250 o         1 1UR     -0.340000
      4 CAN         2.9700    0.0310   -0.2750 c2        1 1UR     -0.196000
      5 CAO         4.3630   -0.0750   -0.2470 c2        1 1UR     -0.051000
      6 CAP         5.0350   -0.1280    0.9760 c1        1 1UR     -0.179000
      7 CAQ         4.3110   -0.0750    2.1780 c1        1 1UR     -0.120250
      8 CAR         2.9200    0.0300    2.1520 c1        1 1UR     -0.120250
      9 CAS         2.2450    0.0840    0.9290 c1        1 1UR      0.105000
     10 OAT         0.7620    0.2610    0.9020 o         1 1UR     -0.132000
     11 CAJ         0.0500    0.1790   -0.3420 c1        1 1UR      0.188000
     12 CAG        -1.4610    0.1060   -0.3450 c1        1 1UR     -0.095000
     13 CAF        -2.0960   -1.1230   -0.2680 c1        1 1UR     -0.120250
     14 CAE        -3.4810   -1.1880   -0.2470 c1        1 1UR     -0.120250
     15 CAD        -4.2300   -0.0230   -0.3040 c1        1 1UR     -0.095000
     16 CAB        -5.7400   -0.0920   -0.2420 c1        1 1UR      0.354000
     17 OAC        -6.3240   -0.1040    0.8730 o         1 1UR     -0.555000
     18 OAA        -6.4120   -0.1490   -1.3050 os        1 1UR     -0.555000
     19 CAI        -3.5950    1.2060   -0.3820 c1        1 1UR     -0.118000
     20 CAH        -2.2100    1.2710   -0.4030 c1        1 1UR     -0.118000
     21 H1          0.3150    0.0350   -2.4580 ha        1 1UR      0.169000
     22 H2          4.8660   -0.1210   -1.0820 ha        1 1UR      0.154000
     23 H3          6.0080   -0.2020    0.9950 ha        1 1UR      0.130000
     24 H4          4.7810   -0.1130    3.0330 ha        1 1UR      0.141250
     25 H5          2.4170    0.0630    2.9880 ha        1 1UR      0.141250
     26 H6         -1.5690   -1.9430   -0.2270 ha        1 1UR      0.141250
     27 H7         -3.9280   -2.0540   -0.1920 ha        1 1UR      0.141250
     28 H9         -4.1230    2.0270   -0.4230 ha        1 1UR      0.139000
     29 H10        -1.7630    2.1370   -0.4580 ha        1 1UR      0.139000
@<TRIPOS>BOND
     1    1   11 1   
     2    1   21 1   
     3    2    3 1   
     4    2    4 1   
     5    4    5 1   
     6    4    9 1   
     7    5    6 1   
     8    5   22 1   
     9    6   23 1   
    10    7    8 1   
    11    7   24 1   
    12    8   25 1   
    13   10   11 1   
    14   12   20 1   
    15   13   14 1   
    16   13   26 1   
    17   14   27 1   
    18   15   19 1   
    19   16   17 1   
    20   19   28 1   
    21   20   29 1   
@<TRIPOS>SUBSTRUCTURE
     1 1UR         1 TEMP              0 ****  ****    0 ROOT
