@<TRIPOS>MOLECULE
1UR
   29    31     1     0     0
SMALL
bcc


@<TRIPOS>ATOM
      1 CAK        -1.1800    1.5980    0.2510 cc        1 1UR     -0.364200
      2 CAL        -2.6280    1.7170    0.2660 c         1 1UR      0.595900
      3 OAM        -3.2280    2.7940    0.4210 o         1 1UR     -0.579100
      4 CAN        -3.3390    0.4390    0.0840 ca        1 1UR     -0.216600
      5 CAO        -4.7400    0.3670    0.0840 ca        1 1UR     -0.051000
      6 CAP        -5.3820   -0.8520   -0.0870 ca        1 1UR     -0.179000
      7 CAQ        -4.6330   -2.0240   -0.2610 ca        1 1UR     -0.088000
      8 CAR        -3.2470   -1.9850   -0.2640 ca        1 1UR     -0.162000
      9 CAS        -2.6030   -0.7430   -0.0910 ca        1 1UR      0.150100
     10 OAT        -1.2230   -0.7860   -0.1110 os        1 1UR     -0.221200
     11 CAJ        -0.5410    0.4140    0.0660 cd        1 1UR      0.243900
     12 CAG         0.9020    0.2160    0.0310 ca        1 1UR     -0.134800
     13 CAF         1.4640   -1.0350    0.3360 ca        1 1UR     -0.110500
     14 CAE         2.8440   -1.2060    0.3130 ca        1 1UR     -0.123000
     15 CAD         3.6880   -0.1410   -0.0180 ca        1 1UR     -0.087600
     16 CAB         5.2010   -0.3340   -0.0440 c         1 1UR      0.905200
     17 OAC         5.9130    0.6600   -0.3570 o         1 1UR     -0.820300
     18 OAA         5.6500   -1.4760    0.2490 o         1 1UR     -0.820300
     19 CAI         3.1270    1.1030   -0.3290 ca        1 1UR     -0.123000
     20 CAH         1.7490    1.2860   -0.3070 ca        1 1UR     -0.110500
     21 H1         -0.6050    2.5220    0.4060 ha        1 1UR      0.169000
     22 H2         -5.3110    1.3000    0.2220 ha        1 1UR      0.154000
     23 H3         -6.4790   -0.9020   -0.0870 ha        1 1UR      0.130000
     24 H4         -5.1500   -2.9860   -0.3950 ha        1 1UR      0.129000
     25 H5         -2.6420   -2.8930   -0.4000 ha        1 1UR      0.153000
     26 H6          0.8040   -1.8760    0.5950 ha        1 1UR      0.120500
     27 H7          3.3030   -2.1790    0.5540 ha        1 1UR      0.160000
     28 H9          3.8080    1.9300   -0.5910 ha        1 1UR      0.160000
     29 H10         1.3200    2.2660   -0.5620 ha        1 1UR      0.120500
@<TRIPOS>BOND
     1    1    2 1   
     2    1   11 2   
     3    1   21 1   
     4    2    3 2   
     5    2    4 1   
     6    4    5 ar  
     7    4    9 ar  
     8    5    6 ar  
     9    5   22 1   
    10    6    7 ar  
    11    6   23 1   
    12    7    8 ar  
    13    7   24 1   
    14    8    9 ar  
    15    8   25 1   
    16    9   10 1   
    17   10   11 1   
    18   11   12 1   
    19   12   13 ar  
    20   12   20 ar  
    21   13   14 ar  
    22   13   26 1   
    23   14   15 ar  
    24   14   27 1   
    25   15   16 1   
    26   15   19 ar  
    27   16   17 1   
    28   16   18 1   
    29   19   20 ar  
    30   19   28 1   
    31   20   29 1   
@<TRIPOS>SUBSTRUCTURE
     1 1UR         1 TEMP              0 ****  ****    0 ROOT
