@<TRIPOS>MOLECULE
1UR
   29    31     1     0     0
SMALL
bcc


@<TRIPOS>ATOM
      1 CAK         0.0850   -0.2630   -0.0860 cc        1 1UR     -0.364200
      2 CAL         1.5380   -0.2790   -0.0700 c         1 1UR      0.595900
      3 OAM         2.2350   -0.4400   -1.0870 o         1 1UR     -0.579100
      4 CAN         2.1270   -0.0910    1.2670 ca        1 1UR     -0.216600
      5 CAO         3.5160   -0.0910    1.4690 ca        1 1UR     -0.051000
      6 CAP         4.0420    0.0860    2.7410 ca        1 1UR     -0.179000
      7 CAQ         3.1880    0.2660    3.8380 ca        1 1UR     -0.088000
      8 CAR         1.8110    0.2700    3.6700 ca        1 1UR     -0.162000
      9 CAS         1.2850    0.0900    2.3750 ca        1 1UR      0.150100
     10 OAT        -0.0930    0.1110    2.2890 os        1 1UR     -0.221200
     11 CAJ        -0.6610   -0.0710    1.0320 cd        1 1UR      0.243900
     12 CAG        -2.1160   -0.0340    1.0950 ca        1 1UR     -0.134800
     13 CAF        -2.7920   -0.3320    2.2900 ca        1 1UR     -0.110500
     14 CAE        -4.1810   -0.3070    2.3330 ca        1 1UR     -0.123000
     15 CAD        -4.9230    0.0180    1.1920 ca        1 1UR     -0.087600
     16 CAB        -6.4480    0.0460    1.2440 c         1 1UR      0.905200
     17 OAC        -7.0640    0.3530    0.1860 o         1 1UR     -0.820300
     18 OAA        -7.0010   -0.2400    2.3410 o         1 1UR     -0.820300
     19 CAI        -4.2490    0.3210    0.0030 ca        1 1UR     -0.123000
     20 CAH        -2.8600    0.2980   -0.0510 ca        1 1UR     -0.110500
     21 H1         -0.4020   -0.4220   -1.0590 ha        1 1UR      0.169000
     22 H2          4.1710   -0.2340    0.5940 ha        1 1UR      0.154000
     23 H3          5.1300    0.0850    2.8930 ha        1 1UR      0.130000
     24 H4          3.6130    0.4050    4.8430 ha        1 1UR      0.129000
     25 H5          1.1250    0.4110    4.5170 ha        1 1UR      0.153000
     26 H6         -2.2130   -0.5860    3.1900 ha        1 1UR      0.120500
     27 H7         -4.7300   -0.5420    3.2600 ha        1 1UR      0.160000
     28 H9         -4.8500    0.5800   -0.8840 ha        1 1UR      0.160000
     29 H10        -2.3420    0.5470   -0.9880 ha        1 1UR      0.120500
@<TRIPOS>BOND
     1    1    2 1   
     2    1   11 2   
     3    1   21 1   
     4    2    3 2   
     5    2    4 1   
     6    4    5 ar  
     7    4    9 ar  
     8    5    6 ar  
     9    5   22 1   
    10    6    7 ar  
    11    6   23 1   
    12    7    8 ar  
    13    7   24 1   
    14    8    9 ar  
    15    8   25 1   
    16    9   10 1   
    17   10   11 1   
    18   11   12 1   
    19   12   13 ar  
    20   12   20 ar  
    21   13   14 ar  
    22   13   26 1   
    23   14   15 ar  
    24   14   27 1   
    25   15   16 1   
    26   15   19 ar  
    27   16   17 1   
    28   16   18 1   
    29   19   20 ar  
    30   19   28 1   
    31   20   29 1   
@<TRIPOS>SUBSTRUCTURE
     1 1UR         1 TEMP              0 ****  ****    0 ROOT
