@<TRIPOS>MOLECULE
1US
   42    38     1     0     0
SMALL
bcc


@<TRIPOS>ATOM
      1 C10         0.1490   -0.1880   -1.1820 c3        1 1US     -0.114000
      2 C15         7.1310    0.1150   -6.7810 c2        1 1US      0.059000
      3 C17         8.8940    0.8740   -8.2820 c1        1 1US     -0.011000
      4 C20         7.8430    0.0790   -5.6510 c2        1 1US     -0.272000
      5 C01         3.9340   -1.1110   -3.9420 ca        1 1US     -0.159000
      6 C02         4.7570   -1.0650   -5.0660 ca        1 1US     -0.101000
      7 C03         5.0440    0.1660   -5.6660 ca        1 1US      0.007000
      8 C04         4.5060    1.3560   -5.1310 ca        1 1US      0.083000
      9 C05         3.6760    1.2950   -4.0020 ca        1 1US     -0.214000
     10 C06         3.3970    0.0630   -3.4150 ca        1 1US     -0.094000
     11 C07         3.3540   -1.1850    1.0840 c3        1 1US     -0.114000
     12 C08         2.2270   -0.8340    0.2840 c1        1 1US     -0.174000
     13 C09         1.2790   -0.5380   -0.3860 c1        1 1US     -0.174000
     14 O14         5.7410    0.2140   -6.8690 os        1 1US     -0.154000
     15 C16         7.6960    0.0660   -8.1690 c3        1 1US     -0.042000
     16 C18        10.1010    0.4360   -8.8600 c2        1 1US     -0.529000
     17 C19        11.1570    1.2300   -8.9990 c1        1 1US      0.389000
     18 Cl1         7.8110   -1.6560   -8.6720 cl        1 1US     -0.178000
     19 H1          0.4240   -0.1700   -2.2700 hc        1 1US      0.096167
     20 H2         -0.2320    0.8300   -0.8990 hc        1 1US      0.096167
     21 H4          6.9480    0.5150   -8.8960 h1        1 1US      0.185000
     22 H5          7.3740    0.1180   -4.6600 ha        1 1US      0.133500
     23 H6          3.7070   -2.0790   -3.4730 ha        1 1US      0.140000
     24 H7          5.1820   -1.9850   -5.4960 ha        1 1US      0.153000
     25 H8          3.2470    2.2180   -3.5840 ha        1 1US      0.139000
     26 H9          3.2610   -2.2400    1.4510 hc        1 1US      0.096167
     27 H10         2.7460    0.0200   -2.5250 ha        1 1US      0.145000
     28 H11         1.3530    2.0610   -2.1590 ha        1 1US      0.000750
     29 H12         3.4320   -0.5070    1.9730 hc        1 1US      0.096167
     30 H13         4.3690    3.2510   -5.2900 ho        1 1US      0.218000
     31 H14        10.2080   -0.6170   -9.2200 ha        1 1US      0.197000
     32 H15         8.9360    0.0170   -5.6680 ha        1 1US      0.133500
     33 C11        -1.2810   -0.4330    2.2000 c1        1 1US     -0.222000
     34 C12        -2.1080   -0.4040    3.0630 c1        1 1US     -0.222000
     35 H3          4.3010   -1.0990    0.4890 hc        1 1US      0.096167
     36 H16         1.3410    2.7370   -2.2040 ha        1 1US      0.000750
     37 H17        -0.5440   -0.4590    1.4340 ha        1 1US      0.221000
     38 H18        -0.6790   -0.9300   -1.0390 hc        1 1US      0.096167
     39 H19        -2.8420   -0.3790    3.8290 ha        1 1US      0.221000
     40 H20        -0.5540    3.0770   -0.9490 ha        1 1US      0.000750
     41 H21        -1.1080    3.0810   -0.5590 ha        1 1US      0.000750
     42 O13         4.8240    2.5340   -5.7590 oh        1 1US     -0.229000
@<TRIPOS>BOND
     1    1   13 1   
     2    1   19 1   
     3    1   20 1   
     4    1   38 1   
     5    2    4 1   
     6    2   14 1   
     7    2   15 1   
     8    3   15 1   
     9    3   16 1   
    10    4   22 1   
    11    4   32 1   
    12    5    6 1   
    13    5   10 1   
    14    5   23 1   
    15    6    7 1   
    16    6   24 1   
    17    7    8 1   
    18    7   14 1   
    19    8    9 1   
    20    8   42 1   
    21    9   10 1   
    22    9   25 1   
    23   10   27 1   
    24   11   12 1   
    25   11   26 1   
    26   11   29 1   
    27   11   35 1   
    28   12   13 1   
    29   15   18 1   
    30   15   21 1   
    31   16   17 1   
    32   16   31 1   
    33   28   36 1   
    34   30   42 1   
    35   33   34 1   
    36   33   37 1   
    37   34   39 1   
    38   40   41 1   
@<TRIPOS>SUBSTRUCTURE
     1 1US         1 TEMP              0 ****  ****    0 ROOT
