@<TRIPOS>MOLECULE
1UT
   35    37     1     0     0
SMALL
bcc


@<TRIPOS>ATOM
      1 CAA        -0.0020    0.1440   -0.0470 c3        1 1UT      0.190600
      2 NAB         1.4350    0.1630    0.0260 nh        1 1UT     -0.664000
      3 CAC         2.0370   -0.3770    1.2160 c3        1 1UT      0.190600
      4 CAD         2.1580    0.0940   -1.1710 ca        1 1UT      0.196600
      5 CAI         3.5500   -0.1800   -1.1740 ca        1 1UT     -0.205000
      6 CAH         4.2770   -0.1630   -2.3550 ca        1 1UT     -0.051000
      7 CAE         1.5380    0.3580   -2.4200 ca        1 1UT     -0.205000
      8 CAF         2.2770    0.3700   -3.5920 ca        1 1UT     -0.051000
      9 CAG         3.6560    0.1180   -3.5800 ca        1 1UT     -0.134800
     10 CAJ         4.4380    0.1490   -4.8120 cc        1 1UT      0.214900
     11 OAT         3.6450   -0.1210   -5.9210 os        1 1UT     -0.228200
     12 CAS         4.2670   -0.1170   -7.1590 ca        1 1UT      0.143100
     13 CAR         3.4250   -0.3880   -8.2530 ca        1 1UT     -0.161000
     14 CAQ         3.9750   -0.4050   -9.5280 ca        1 1UT     -0.080000
     15 CAP         5.3390   -0.1550   -9.7210 ca        1 1UT     -0.167000
     16 CAO         6.1630    0.1120   -8.6350 ca        1 1UT     -0.047000
     17 CAN         5.6360    0.1350   -7.3350 ca        1 1UT     -0.214600
     18 CAL         6.4830    0.4160   -6.1650 c         1 1UT      0.591900
     19 OAM         7.6990    0.6410   -6.2510 o         1 1UT     -0.551100
     20 CAK         5.7640    0.4100   -4.8950 cd        1 1UT     -0.333200
     21 H1         -0.4390    0.1190    0.9860 h1        1 1UT      0.040700
     22 H2         -0.3870   -0.7440   -0.6210 h1        1 1UT      0.040700
     23 H3         -0.3570    1.0810   -0.5550 h1        1 1UT      0.040700
     24 H4          1.3160   -0.3110    2.0730 h1        1 1UT      0.040700
     25 H5          2.3440   -1.4510    1.0870 h1        1 1UT      0.040700
     26 H6          2.9460    0.2300    1.4750 h1        1 1UT      0.040700
     27 H7          4.0800   -0.4090   -0.2380 ha        1 1UT      0.138500
     28 H8          5.3560   -0.3830   -2.3250 ha        1 1UT      0.143000
     29 H9          0.4580    0.5620   -2.4800 ha        1 1UT      0.138500
     30 H10         1.7750    0.5790   -4.5510 ha        1 1UT      0.143000
     31 H11         2.3570   -0.5830   -8.0840 ha        1 1UT      0.152000
     32 H12         3.3300   -0.6160  -10.3950 ha        1 1UT      0.138000
     33 H13         5.7580   -0.1720  -10.7380 ha        1 1UT      0.140000
     34 H14         7.2390    0.3100   -8.7690 ha        1 1UT      0.160000
     35 H15         6.3530    0.6400   -3.9950 ha        1 1UT      0.167000
@<TRIPOS>BOND
     1    1    2 1   
     2    1   21 1   
     3    1   22 1   
     4    1   23 1   
     5    2    3 1   
     6    2    4 1   
     7    3   24 1   
     8    3   25 1   
     9    3   26 1   
    10    4    5 ar  
    11    4    7 ar  
    12    5    6 ar  
    13    5   27 1   
    14    6    9 ar  
    15    6   28 1   
    16    7    8 ar  
    17    7   29 1   
    18    8    9 ar  
    19    8   30 1   
    20    9   10 1   
    21   10   11 1   
    22   10   20 2   
    23   11   12 1   
    24   12   13 ar  
    25   12   17 ar  
    26   13   14 ar  
    27   13   31 1   
    28   14   15 ar  
    29   14   32 1   
    30   15   16 ar  
    31   15   33 1   
    32   16   17 ar  
    33   16   34 1   
    34   17   18 1   
    35   18   19 2   
    36   18   20 1   
    37   20   35 1   
@<TRIPOS>SUBSTRUCTURE
     1 1UT         1 TEMP              0 ****  ****    0 ROOT
