@<TRIPOS>MOLECULE
1UT
   35    37     1     0     0
SMALL
bcc


@<TRIPOS>ATOM
      1 CAA         5.6920    1.5420   -0.3060 c3        1 1UT      0.190600
      2 NAB         5.1220    0.3360    0.2340 nh        1 1UT     -0.664000
      3 CAC         5.9680   -0.8270    0.2750 c3        1 1UT      0.190600
      4 CAD         3.7410    0.1440    0.1080 ca        1 1UT      0.196600
      5 CAI         3.1490   -1.1190    0.3700 ca        1 1UT     -0.205000
      6 CAH         1.7730   -1.2850    0.3200 ca        1 1UT     -0.051000
      7 CAE         2.8760    1.2200   -0.2200 ca        1 1UT     -0.205000
      8 CAF         1.5020    1.0390   -0.2650 ca        1 1UT     -0.051000
      9 CAG         0.9290   -0.2130   -0.0020 ca        1 1UT     -0.134800
     10 CAJ        -0.5160   -0.4080   -0.0690 cc        1 1UT      0.215900
     11 OAT        -1.1970    0.7810    0.1610 os        1 1UT     -0.227200
     12 CAS        -2.5820    0.7340    0.1220 ca        1 1UT      0.143100
     13 CAR        -3.2300    1.9610    0.3580 ca        1 1UT     -0.161000
     14 CAQ        -4.6180    1.9950    0.3380 ca        1 1UT     -0.080000
     15 CAP        -5.3580    0.8330    0.0870 ca        1 1UT     -0.167000
     16 CAO        -4.7100   -0.3740   -0.1440 ca        1 1UT     -0.047000
     17 CAN        -3.3080   -0.4400   -0.1300 ca        1 1UT     -0.214600
     18 CAL        -2.5940   -1.7030   -0.3730 c         1 1UT      0.591900
     19 OAM        -3.1740   -2.7750   -0.5980 o         1 1UT     -0.552100
     20 CAK        -1.1400   -1.5820   -0.3280 cd        1 1UT     -0.334200
     21 H1          5.4410    1.6810   -1.3930 h1        1 1UT      0.040700
     22 H2          5.3000    2.4230    0.2690 h1        1 1UT      0.040700
     23 H3          6.8080    1.5210   -0.1970 h1        1 1UT      0.040700
     24 H4          5.7560   -1.4020    1.2160 h1        1 1UT      0.040700
     25 H5          5.8020   -1.5050   -0.6070 h1        1 1UT      0.040700
     26 H6          7.0460   -0.5170    0.2890 h1        1 1UT      0.040700
     27 H7          3.7710   -1.9890    0.6250 ha        1 1UT      0.138500
     28 H8          1.3430   -2.2750    0.5420 ha        1 1UT      0.143000
     29 H9          3.2800    2.2190   -0.4410 ha        1 1UT      0.138500
     30 H10         0.8480    1.8910   -0.5130 ha        1 1UT      0.143000
     31 H11        -2.6340    2.8630    0.5550 ha        1 1UT      0.152000
     32 H12        -5.1400    2.9460    0.5210 ha        1 1UT      0.138000
     33 H13        -6.4570    0.8780    0.0750 ha        1 1UT      0.140000
     34 H14        -5.2770   -1.2980   -0.3430 ha        1 1UT      0.160000
     35 H15        -0.5630   -2.4970   -0.5240 ha        1 1UT      0.166000
@<TRIPOS>BOND
     1    1    2 1   
     2    1   21 1   
     3    1   22 1   
     4    1   23 1   
     5    2    3 1   
     6    2    4 1   
     7    3   24 1   
     8    3   25 1   
     9    3   26 1   
    10    4    5 ar  
    11    4    7 ar  
    12    5    6 ar  
    13    5   27 1   
    14    6    9 ar  
    15    6   28 1   
    16    7    8 ar  
    17    7   29 1   
    18    8    9 ar  
    19    8   30 1   
    20    9   10 1   
    21   10   11 1   
    22   10   20 2   
    23   11   12 1   
    24   12   13 ar  
    25   12   17 ar  
    26   13   14 ar  
    27   13   31 1   
    28   14   15 ar  
    29   14   32 1   
    30   15   16 ar  
    31   15   33 1   
    32   16   17 ar  
    33   16   34 1   
    34   17   18 1   
    35   18   19 2   
    36   18   20 1   
    37   20   35 1   
@<TRIPOS>SUBSTRUCTURE
     1 1UT         1 TEMP              0 ****  ****    0 ROOT
