@<TRIPOS>MOLECULE
1UT
   35    29     1     0     0
SMALL
bcc


@<TRIPOS>ATOM
      1 CAA        -3.4780    0.0310    4.0590 c3        1 1UT     -0.099000
      2 NAB        -2.0540    0.0310    4.0590 n3        1 1UT     -0.250000
      3 CAC        -1.3420    0.0310    5.2920 c3        1 1UT     -0.099000
      4 CAD        -1.3450    0.0310    2.8300 c1        1 1UT      0.089000
      5 CAI        -0.9330   -1.1670    2.2680 c1        1 1UT     -0.118833
      6 CAH        -0.2400   -1.1680    1.0670 c1        1 1UT     -0.118833
      7 CAE        -1.0630    1.2290    2.1910 c1        1 1UT     -0.176000
      8 CAF        -0.3700    1.2280    0.9910 c1        1 1UT     -0.060000
      9 CAG         0.0420    0.0290    0.4290 c1        1 1UT     -0.106000
     10 CAJ         0.7980    0.0270   -0.8820 c1        1 1UT      0.154000
     11 OAT         0.0860   -0.1120   -2.1210 o         1 1UT     -0.138000
     12 CAS         0.8310   -0.1140   -3.4160 c1        1 1UT      0.098000
     13 CAR         0.1340   -0.2500   -4.6210 c1        1 1UT     -0.118833
     14 CAQ         0.8270   -0.2520   -5.8320 c1        1 1UT     -0.118833
     15 CAP         2.2240   -0.1190   -5.8420 c1        1 1UT     -0.118833
     16 CAO         2.9220    0.0160   -4.6420 c1        1 1UT     -0.118833
     17 CAN         2.2300    0.0200   -3.4240 c1        1 1UT     -0.194000
     18 CAL         2.9760    0.1650   -2.1260 c2        1 1UT      0.313000
     19 OAM         4.1790    0.3360   -2.1310 o         1 1UT     -0.311000
     20 CAK         2.2680    0.1680   -0.8900 c2        1 1UT     -0.310000
     21 H1         -3.8030    0.9040    4.3520 h1        1 1UT      0.079333
     22 H2         -3.8030   -0.6590    4.6680 h1        1 1UT      0.079333
     23 H3         -3.8040   -0.1520    3.1570 h1        1 1UT      0.079333
     24 H4         -1.2270   -0.8870    5.6010 h1        1 1UT      0.079333
     25 H5         -0.4660    0.4430    5.1620 h1        1 1UT      0.079333
     26 H6         -1.8450    0.5380    5.9580 h1        1 1UT      0.079333
     27 H7         -1.1320   -2.0110    2.7170 ha        1 1UT      0.145500
     28 H8          0.0490   -2.0120    0.6720 ha        1 1UT      0.145500
     29 H9         -1.3520    2.0730    2.5870 ha        1 1UT      0.141000
     30 H10        -0.1710    2.0710    0.5410 ha        1 1UT      0.147000
     31 H11        -0.8380   -0.3420   -4.6140 ha        1 1UT      0.145500
     32 H12         0.3390   -0.3470   -6.6720 ha        1 1UT      0.145500
     33 H13         2.7080   -0.1210   -6.6900 ha        1 1UT      0.145500
     34 H14         3.8940    0.1090   -4.6500 ha        1 1UT      0.145500
     35 H15         2.7570    0.2320   -0.0470 ha        1 1UT      0.167000
@<TRIPOS>BOND
     1    1    2 1   
     2    1   21 1   
     3    1   22 1   
     4    1   23 1   
     5    2    3 1   
     6    2    4 1   
     7    3   24 1   
     8    3   25 1   
     9    3   26 1   
    10    4    7 1   
    11    5    6 1   
    12    5   27 1   
    13    6   28 1   
    14    7   29 1   
    15    8    9 1   
    16    8   30 1   
    17   10   20 1   
    18   11   12 1   
    19   12   17 1   
    20   13   14 1   
    21   13   31 1   
    22   14   32 1   
    23   15   16 1   
    24   15   33 1   
    25   16   34 1   
    26   17   18 1   
    27   18   19 1   
    28   18   20 1   
    29   20   35 1   
@<TRIPOS>SUBSTRUCTURE
     1 1UT         1 TEMP              0 ****  ****    0 ROOT
