@<TRIPOS>MOLECULE
1UT
   36    38     1     0     0
SMALL
bcc


@<TRIPOS>ATOM
      1 CAA         0.6770    1.0440    0.3550 c3        1 1UT      0.088100
      2 NAB         1.1600   -0.2970   -0.0760 n4        1 1UT     -0.547800
      3 CAC         1.8990   -0.9790    1.0220 c3        1 1UT      0.088100
      4 CAD         1.9840   -0.2010   -1.2940 ca        1 1UT     -0.053400
      5 CAI         3.1860    0.5270   -1.2840 ca        1 1UT     -0.105000
      6 CAH         3.9490    0.6050   -2.4460 ca        1 1UT     -0.082000
      7 CAE         1.5510   -0.8450   -2.4680 ca        1 1UT     -0.105000
      8 CAF         2.3260   -0.7590   -3.6200 ca        1 1UT     -0.082000
      9 CAG         3.5310   -0.0410   -3.6190 ca        1 1UT      0.007200
     10 CAJ         4.3520    0.0310   -4.8320 cc        1 1UT      0.141900
     11 OAT         3.5770   -0.1310   -5.9700 os        1 1UT     -0.233200
     12 CAS         4.2440   -0.0890   -7.1920 ca        1 1UT      0.134100
     13 CAR         3.4250   -0.2480   -8.3210 ca        1 1UT     -0.156000
     14 CAQ         4.0180   -0.2190   -9.5790 ca        1 1UT     -0.067000
     15 CAP         5.3980   -0.0360   -9.7140 ca        1 1UT     -0.151000
     16 CAO         6.1990    0.1220   -8.5900 ca        1 1UT     -0.040000
     17 CAN         5.6300    0.0980   -7.3070 ca        1 1UT     -0.213600
     18 CAL         6.4520    0.2650   -6.1040 c         1 1UT      0.583900
     19 OAM         7.6770    0.4360   -6.1180 o         1 1UT     -0.509100
     20 CAK         5.6900    0.2140   -4.8470 cd        1 1UT     -0.263200
     21 H1          1.5530    1.6900    0.6270 hx        1 1UT      0.105867
     22 H2          0.1120    1.5220   -0.4900 hx        1 1UT      0.105867
     23 H3          0.0050    0.9210    1.2460 hx        1 1UT      0.105867
     24 H4          1.2180   -1.0870    1.9090 hx        1 1UT      0.105867
     25 H5          2.2320   -1.9920    0.6690 hx        1 1UT      0.105867
     26 H6          2.7980   -0.3700    1.3060 hx        1 1UT      0.105867
     27 H7          3.5380    1.0430   -0.3760 ha        1 1UT      0.156000
     28 H8          4.8870    1.1880   -2.4370 ha        1 1UT      0.182000
     29 H9          0.6090   -1.4190   -2.4990 ha        1 1UT      0.156000
     30 H10         1.9900   -1.2570   -4.5470 ha        1 1UT      0.182000
     31 H11         2.3420   -0.3890   -8.2000 ha        1 1UT      0.155000
     32 H12         3.3910   -0.3430  -10.4770 ha        1 1UT      0.152000
     33 H13         5.8510   -0.0160  -10.7180 ha        1 1UT      0.155000
     34 H14         7.2890    0.2690   -8.6810 ha        1 1UT      0.169000
     35 H15         6.2730    0.3210   -3.9190 ha        1 1UT      0.167000
     36 HAB1        0.3340   -0.8710   -0.3060 hn        1 1UT      0.453800
@<TRIPOS>BOND
     1    1    2 1   
     2    1   21 1   
     3    1   22 1   
     4    1   23 1   
     5    2    3 1   
     6    2    4 1   
     7    2   36 1   
     8    3   24 1   
     9    3   25 1   
    10    3   26 1   
    11    4    5 ar  
    12    4    7 ar  
    13    5    6 ar  
    14    5   27 1   
    15    6    9 ar  
    16    6   28 1   
    17    7    8 ar  
    18    7   29 1   
    19    8    9 ar  
    20    8   30 1   
    21    9   10 1   
    22   10   11 1   
    23   10   20 2   
    24   11   12 1   
    25   12   13 ar  
    26   12   17 ar  
    27   13   14 ar  
    28   13   31 1   
    29   14   15 ar  
    30   14   32 1   
    31   15   16 ar  
    32   15   33 1   
    33   16   17 ar  
    34   16   34 1   
    35   17   18 1   
    36   18   19 2   
    37   18   20 1   
    38   20   35 1   
@<TRIPOS>SUBSTRUCTURE
     1 1UT         1 TEMP              0 ****  ****    0 ROOT
