@<TRIPOS>MOLECULE
1UT
   35    37     1     0     0
SMALL
bcc


@<TRIPOS>ATOM
      1 CAA         0.0230    0.2930   -0.0220 c3        1 1UT      0.190600
      2 NAB         1.3660   -0.2240   -0.0220 nh        1 1UT     -0.664000
      3 CAC         2.0610   -0.2390    1.2370 c3        1 1UT      0.190600
      4 CAD         2.1220   -0.0990   -1.1940 ca        1 1UT      0.196600
      5 CAI         3.5210   -0.3370   -1.1930 ca        1 1UT     -0.205000
      6 CAH         4.2540   -0.2870   -2.3690 ca        1 1UT     -0.051000
      7 CAE         1.5090    0.2060   -2.4370 ca        1 1UT     -0.205000
      8 CAF         2.2540    0.2510   -3.6050 ca        1 1UT     -0.051000
      9 CAG         3.6350    0.0120   -3.5910 ca        1 1UT     -0.134800
     10 CAJ         4.4230    0.0780   -4.8190 cc        1 1UT      0.215900
     11 OAT         3.6380   -0.1770   -5.9360 os        1 1UT     -0.227200
     12 CAS         4.2660   -0.1400   -7.1710 ca        1 1UT      0.143100
     13 CAR         3.4340   -0.4020   -8.2750 ca        1 1UT     -0.161000
     14 CAQ         3.9910   -0.3860   -9.5470 ca        1 1UT     -0.080000
     15 CAP         5.3530   -0.1150   -9.7280 ca        1 1UT     -0.167000
     16 CAO         6.1670    0.1420   -8.6320 ca        1 1UT     -0.047000
     17 CAN         5.6330    0.1330   -7.3350 ca        1 1UT     -0.214600
     18 CAL         6.4700    0.4020   -6.1550 c         1 1UT      0.591900
     19 OAM         7.6830    0.6480   -6.2300 o         1 1UT     -0.552100
     20 CAK         5.7460    0.3590   -4.8890 cd        1 1UT     -0.334200
     21 H1         -0.6000   -0.3010   -0.7450 h1        1 1UT      0.040700
     22 H2         -0.0150    1.3770   -0.3210 h1        1 1UT      0.040700
     23 H3         -0.4290    0.1870    0.9990 h1        1 1UT      0.040700
     24 H4          2.6880   -1.1690    1.2990 h1        1 1UT      0.040700
     25 H5          2.7310    0.6550    1.3630 h1        1 1UT      0.040700
     26 H6          1.3250   -0.2570    2.0820 h1        1 1UT      0.040700
     27 H7          4.0510   -0.5730   -0.2570 ha        1 1UT      0.138500
     28 H8          5.3360   -0.4910   -2.3370 ha        1 1UT      0.143000
     29 H9          0.4290    0.4080   -2.4960 ha        1 1UT      0.138500
     30 H10         1.7550    0.4800   -4.5610 ha        1 1UT      0.143000
     31 H11         2.3680   -0.6150   -8.1150 ha        1 1UT      0.152000
     32 H12         3.3530   -0.5900  -10.4210 ha        1 1UT      0.138000
     33 H13         5.7760   -0.1060  -10.7430 ha        1 1UT      0.140000
     34 H14         7.2410    0.3570   -8.7570 ha        1 1UT      0.160000
     35 H15         6.3270    0.5750   -3.9810 ha        1 1UT      0.166000
@<TRIPOS>BOND
     1    1    2 1   
     2    1   21 1   
     3    1   22 1   
     4    1   23 1   
     5    2    3 1   
     6    2    4 1   
     7    3   24 1   
     8    3   25 1   
     9    3   26 1   
    10    4    5 ar  
    11    4    7 ar  
    12    5    6 ar  
    13    5   27 1   
    14    6    9 ar  
    15    6   28 1   
    16    7    8 ar  
    17    7   29 1   
    18    8    9 ar  
    19    8   30 1   
    20    9   10 1   
    21   10   11 1   
    22   10   20 2   
    23   11   12 1   
    24   12   13 ar  
    25   12   17 ar  
    26   13   14 ar  
    27   13   31 1   
    28   14   15 ar  
    29   14   32 1   
    30   15   16 ar  
    31   15   33 1   
    32   16   17 ar  
    33   16   34 1   
    34   17   18 1   
    35   18   19 2   
    36   18   20 1   
    37   20   35 1   
@<TRIPOS>SUBSTRUCTURE
     1 1UT         1 TEMP              0 ****  ****    0 ROOT
