@<TRIPOS>MOLECULE
1UV
   47    51     1     0     0
SMALL
bcc


@<TRIPOS>ATOM
      1 N01         0.0850    0.0830   -0.0060 na        1 1UV     -0.510800
      2 C02        -0.3800    0.8180   -1.1450 cx        1 1UV      0.153500
      3 C03         0.5060    1.7530   -1.9440 cx        1 1UV     -0.140900
      4 C04         0.0530    0.4610   -2.5560 cx        1 1UV     -0.140900
      5 C05         1.4660    0.0790    0.2750 cc        1 1UV      0.041000
      6 C06         1.9920    0.0980    1.5210 cd        1 1UV     -0.247400
      7 C07         3.5110   -0.0870    1.6740 c         1 1UV      0.934800
      8 O08         3.9090   -0.8340    2.5990 o         1 1UV     -0.798800
      9 O09         4.2230    0.4910    0.8110 o         1 1UV     -0.798800
     10 C10         1.1120    0.2630    2.6730 c         1 1UV      0.597900
     11 O11         1.4250    0.6750    3.7940 o         1 1UV     -0.515100
     12 C12        -0.3180   -0.0840    2.3880 ca        1 1UV     -0.181600
     13 C13        -0.7950   -0.1870    1.0460 ca        1 1UV      0.222600
     14 C14        -2.1280   -0.6390    0.8300 ca        1 1UV     -0.155300
     15 C15        -2.5810   -1.0800   -0.5280 c3        1 1UV      0.183700
     16 O16        -3.0290   -2.4440   -0.5430 os        1 1UV     -0.384600
     17 C17        -4.3830   -2.6550   -0.2230 c3        1 1UV      0.135400
     18 C18        -4.6280   -2.4210    1.2790 c3        1 1UV      0.114500
     19 N19        -4.3940   -1.0050    1.6150 nh        1 1UV     -0.622000
     20 C20        -5.4350   -0.5550    2.5330 c3        1 1UV      0.159800
     21 C21        -6.2870   -1.7730    2.9330 c3        1 1UV     -0.131400
     22 C22        -6.0590   -2.7770    1.7870 c3        1 1UV      0.106500
     23 N23        -7.0930   -2.6010    0.7120 n4        1 1UV     -0.838600
     24 C24        -3.0190   -0.7520    1.9240 ca        1 1UV      0.078600
     25 C25        -2.5130   -0.6520    3.2450 ca        1 1UV      0.025900
     26 F26        -3.3070   -0.8810    4.3260 f         1 1UV     -0.162900
     27 C27        -1.1650   -0.3300    3.4570 ca        1 1UV     -0.060000
     28 H021       -1.4380    1.1460   -1.0080 h1        1 1UV      0.077700
     29 H032        1.5710    1.8760   -1.6690 hc        1 1UV      0.083700
     30 H031        0.0610    2.7030   -2.2910 hc        1 1UV      0.083700
     31 H042       -0.7110    0.4730   -3.3520 hc        1 1UV      0.083700
     32 H041        0.7990   -0.3400   -2.7090 hc        1 1UV      0.083700
     33 H051        2.1210    0.0350   -0.6170 h4        1 1UV      0.183000
     34 H152       -3.3830   -0.4020   -0.9240 h1        1 1UV      0.073200
     35 H151       -1.7300   -1.1350   -1.2680 h1        1 1UV      0.073200
     36 H171       -5.0340   -1.9940   -0.8580 h1        1 1UV      0.033200
     37 H172       -4.5620   -3.7360   -0.4710 h1        1 1UV      0.033200
     38 H181       -3.9140   -3.1020    1.8390 h1        1 1UV      0.111700
     39 H202       -5.0410   -0.0220    3.4400 h1        1 1UV      0.079200
     40 H201       -6.0690    0.1810    1.9600 h1        1 1UV      0.079200
     41 H211       -7.3560   -1.4990    3.0950 hc        1 1UV      0.090200
     42 H212       -5.8950   -2.2240    3.8820 hc        1 1UV      0.090200
     43 H221       -6.1150   -3.8470    2.1300 hx        1 1UV      0.115700
     44 H231       -6.9010   -3.2440   -0.0620 hn        1 1UV      0.457467
     45 H232       -7.0450   -1.6370    0.3620 hn        1 1UV      0.457467
     46 H271       -0.7690   -0.2590    4.4860 ha        1 1UV      0.184000
     47 H233       -8.0260   -2.7800    1.0870 hn        1 1UV      0.457467
@<TRIPOS>BOND
     1    1    2 1   
     2    1    5 1   
     3    1   13 1   
     4    2    3 1   
     5    2    4 1   
     6    2   28 1   
     7    3    4 1   
     8    3   29 1   
     9    3   30 1   
    10    4   31 1   
    11    4   32 1   
    12    5    6 2   
    13    5   33 1   
    14    6    7 1   
    15    6   10 1   
    16    7    8 1   
    17    7    9 1   
    18   10   11 2   
    19   10   12 1   
    20   12   13 ar  
    21   12   27 ar  
    22   13   14 ar  
    23   14   15 1   
    24   14   24 ar  
    25   15   16 1   
    26   15   34 1   
    27   15   35 1   
    28   16   17 1   
    29   17   18 1   
    30   17   36 1   
    31   17   37 1   
    32   18   19 1   
    33   18   22 1   
    34   18   38 1   
    35   19   20 1   
    36   19   24 1   
    37   20   21 1   
    38   20   39 1   
    39   20   40 1   
    40   21   22 1   
    41   21   41 1   
    42   21   42 1   
    43   22   23 1   
    44   22   43 1   
    45   23   44 1   
    46   23   45 1   
    47   23   47 1   
    48   24   25 ar  
    49   25   26 1   
    50   25   27 ar  
    51   27   46 1   
@<TRIPOS>SUBSTRUCTURE
     1 1UV         1 TEMP              0 ****  ****    0 ROOT
