@<TRIPOS>MOLECULE
1UV
   47    51     1     0     0
SMALL
bcc


@<TRIPOS>ATOM
      1 N01         0.0870    0.0670   -0.0170 na        1 1UV     -0.510800
      2 C02        -0.3740    0.7620   -1.1810 cx        1 1UV      0.153500
      3 C03         0.5140    1.6760   -2.0040 cx        1 1UV     -0.140900
      4 C04         0.0720    0.3620   -2.5770 cx        1 1UV     -0.140900
      5 C05         1.4660    0.0800    0.2750 cc        1 1UV      0.041000
      6 C06         1.9830    0.1410    1.5230 cd        1 1UV     -0.247400
      7 C07         3.5020   -0.0310    1.6920 c         1 1UV      0.934800
      8 O08         3.8970   -0.7460    2.6430 o         1 1UV     -0.798800
      9 O09         4.2170    0.5240    0.8160 o         1 1UV     -0.798800
     10 C10         1.0940    0.3380    2.6630 c         1 1UV      0.597900
     11 O11         1.3960    0.7870    3.7730 o         1 1UV     -0.515100
     12 C12        -0.3330   -0.0260    2.3790 ca        1 1UV     -0.181600
     13 C13        -0.8000   -0.1740    1.0380 ca        1 1UV      0.222600
     14 C14        -2.1280   -0.6400    0.8270 ca        1 1UV     -0.155300
     15 C15        -2.5690   -1.1270   -0.5200 c3        1 1UV      0.183700
     16 O16        -3.0100   -2.4930   -0.4940 os        1 1UV     -0.384600
     17 C17        -4.3650   -2.7000   -0.1770 c3        1 1UV      0.135400
     18 C18        -4.6220   -2.4200    1.3150 c3        1 1UV      0.114500
     19 N19        -4.3980   -0.9920    1.6070 nh        1 1UV     -0.622000
     20 C20        -5.4480   -0.5190    2.5020 c3        1 1UV      0.159800
     21 C21        -6.2970   -1.7270    2.9360 c3        1 1UV     -0.131400
     22 C22        -6.0560   -2.7670    1.8240 c3        1 1UV      0.106500
     23 N23        -7.0820   -2.6310    0.7360 nz        1 1UV     -0.838600
     24 C24        -3.0270   -0.7230    1.9170 ca        1 1UV      0.078600
     25 C25        -2.5310   -0.5780    3.2380 ca        1 1UV      0.025900
     26 F26        -3.3320   -0.7760    4.3200 f         1 1UV     -0.162900
     27 C27        -1.1860   -0.2410    3.4490 ca        1 1UV     -0.060000
     28 H021       -1.4340    1.0890   -1.0620 h1        1 1UV      0.077700
     29 H032        0.0660    2.6120   -2.3840 hc        1 1UV      0.083700
     30 H031        1.5760    1.8130   -1.7260 hc        1 1UV      0.083700
     31 H042        0.8230   -0.4390   -2.6990 hc        1 1UV      0.083700
     32 H041       -0.6870    0.3450   -3.3780 hc        1 1UV      0.083700
     33 H051        2.1280    0.0110   -0.6110 h4        1 1UV      0.183000
     34 H152       -1.7120   -1.2010   -1.2510 h1        1 1UV      0.073200
     35 H151       -3.3710   -0.4660   -0.9430 h1        1 1UV      0.073200
     36 H171       -4.5370   -3.7900   -0.3920 h1        1 1UV      0.033200
     37 H172       -5.0140   -2.0630   -0.8380 h1        1 1UV      0.033200
     38 H181       -3.9090   -3.0780    1.9020 h1        1 1UV      0.111700
     39 H202       -6.0810    0.1950    1.9020 h1        1 1UV      0.079200
     40 H201       -5.0630    0.0450    3.3950 h1        1 1UV      0.079200
     41 H211       -7.3680   -1.4540    3.0800 hc        1 1UV      0.090200
     42 H212       -5.9090   -2.1460    3.9010 hc        1 1UV      0.090200
     43 H221       -6.1090   -3.8250    2.2000 hx        1 1UV      0.115700
     44 H231       -6.8810   -3.2970   -0.0150 hn        1 1UV      0.457467
     45 H232       -8.0170   -2.8020    1.1110 hn        1 1UV      0.457467
     46 H271       -0.7980   -0.1360    4.4790 ha        1 1UV      0.184000
     47 H233       -7.0370   -1.6780    0.3560 hn        1 1UV      0.457467
@<TRIPOS>BOND
     1    1    2 1   
     2    1    5 1   
     3    1   13 1   
     4    2    3 1   
     5    2    4 1   
     6    2   28 1   
     7    3    4 1   
     8    3   29 1   
     9    3   30 1   
    10    4   31 1   
    11    4   32 1   
    12    5    6 2   
    13    5   33 1   
    14    6    7 1   
    15    6   10 1   
    16    7    8 1   
    17    7    9 1   
    18   10   11 2   
    19   10   12 1   
    20   12   13 ar  
    21   12   27 ar  
    22   13   14 ar  
    23   14   15 1   
    24   14   24 ar  
    25   15   16 1   
    26   15   34 1   
    27   15   35 1   
    28   16   17 1   
    29   17   18 1   
    30   17   36 1   
    31   17   37 1   
    32   18   19 1   
    33   18   22 1   
    34   18   38 1   
    35   19   20 1   
    36   19   24 1   
    37   20   21 1   
    38   20   39 1   
    39   20   40 1   
    40   21   22 1   
    41   21   41 1   
    42   21   42 1   
    43   22   23 1   
    44   22   43 1   
    45   23   44 1   
    46   23   45 1   
    47   23   47 1   
    48   24   25 ar  
    49   25   26 1   
    50   25   27 ar  
    51   27   46 1   
@<TRIPOS>SUBSTRUCTURE
     1 1UV         1 TEMP              0 ****  ****    0 ROOT
