@<TRIPOS>MOLECULE
1UW
   36    38     1     0     0
SMALL
bcc


@<TRIPOS>ATOM
      1 CAV         0.0160   -0.3090    0.2790 c3        1 1UW     -0.101100
      2 CAS         1.4770    0.0250    0.1050 c3        1 1UW      0.140400
      3 OAP         2.0630   -0.0420    1.4190 os        1 1UW     -0.440900
      4 CAG         3.4010    0.2290    1.4990 c         1 1UW      0.644700
      5 OAK         4.0020    0.5070    0.4560 o         1 1UW     -0.540000
      6 CAI         3.9550    0.1470    2.8600 ca        1 1UW     -0.115600
      7 CAO         5.3210    0.4050    3.0410 ca        1 1UW     -0.078500
      8 CAM         5.8790    0.3360    4.3150 ca        1 1UW     -0.113000
      9 CAN         3.1510   -0.1760    3.9580 ca        1 1UW     -0.078500
     10 CAL         3.7090   -0.2440    5.2320 ca        1 1UW     -0.113000
     11 CAH         5.0770    0.0060    5.4160 ca        1 1UW     -0.042800
     12 CAA         5.6750   -0.0850    6.7510 cc        1 1UW      0.184900
     13 OAC         4.7480    0.2170    7.7400 os        1 1UW     -0.224200
     14 CAF         5.1890    0.1610    9.0530 ca        1 1UW      0.142100
     15 CAR         4.2210    0.4760   10.0240 ca        1 1UW     -0.159000
     16 CAU         4.5860    0.4430   11.3630 ca        1 1UW     -0.077000
     17 CAT         5.8920    0.1030   11.7400 ca        1 1UW     -0.164000
     18 CAQ         6.8410   -0.2050   10.7750 ca        1 1UW     -0.046000
     19 CAE         6.5020   -0.1800    9.4130 ca        1 1UW     -0.214600
     20 CAD         7.4870   -0.5010    8.3700 c         1 1UW      0.588900
     21 OAJ         8.6620   -0.8080    8.6150 o         1 1UW     -0.540100
     22 CAB         6.9570   -0.4280    7.0080 cd        1 1UW     -0.307200
     23 H1         -0.4860   -0.2700   -0.7170 hc        1 1UW      0.049033
     24 H2         -0.4760    0.4220    0.9650 hc        1 1UW      0.049033
     25 H3         -0.1050   -1.3320    0.7100 hc        1 1UW      0.049033
     26 H4          2.0010   -0.7110   -0.5590 h1        1 1UW      0.053700
     27 H5          1.6270    1.0590   -0.3020 h1        1 1UW      0.053700
     28 H6          5.9440    0.6630    2.1690 ha        1 1UW      0.162500
     29 H7          6.9500    0.5480    4.4540 ha        1 1UW      0.152500
     30 H8          2.0770   -0.3750    3.8090 ha        1 1UW      0.162500
     31 H9          3.0790   -0.4940    6.1000 ha        1 1UW      0.152500
     32 H10         3.2010    0.7420    9.7110 ha        1 1UW      0.154000
     33 H11         3.8410    0.6870   12.1360 ha        1 1UW      0.141000
     34 H12         6.1630    0.0820   12.8060 ha        1 1UW      0.143000
     35 H13         7.8740   -0.4740   11.0540 ha        1 1UW      0.162000
     36 H14         7.6540   -0.6750    6.1930 ha        1 1UW      0.170000
@<TRIPOS>BOND
     1    1    2 1   
     2    1   23 1   
     3    1   24 1   
     4    1   25 1   
     5    2    3 1   
     6    2   26 1   
     7    2   27 1   
     8    3    4 1   
     9    4    5 2   
    10    4    6 1   
    11    6    7 ar  
    12    6    9 ar  
    13    7    8 ar  
    14    7   28 1   
    15    8   11 ar  
    16    8   29 1   
    17    9   10 ar  
    18    9   30 1   
    19   10   11 ar  
    20   10   31 1   
    21   11   12 1   
    22   12   13 1   
    23   12   22 2   
    24   13   14 1   
    25   14   15 ar  
    26   14   19 ar  
    27   15   16 ar  
    28   15   32 1   
    29   16   17 ar  
    30   16   33 1   
    31   17   18 ar  
    32   17   34 1   
    33   18   19 ar  
    34   18   35 1   
    35   19   20 1   
    36   20   21 2   
    37   20   22 1   
    38   22   36 1   
@<TRIPOS>SUBSTRUCTURE
     1 1UW         1 TEMP              0 ****  ****    0 ROOT
