@<TRIPOS>MOLECULE
1UW
   36    29     1     0     0
SMALL
bcc


@<TRIPOS>ATOM
      1 CAV        -4.8120   -1.4060   -5.2400 c3        1 1UW     -0.219000
      2 CAS        -3.3760   -0.9330   -5.2050 c3        1 1UW     -0.010000
      3 OAP        -3.0180   -0.6210   -3.8800 os        1 1UW     -0.279000
      4 CAG        -1.7350   -0.0650   -3.7550 c1        1 1UW      0.345000
      5 OAK        -1.1400    0.3180   -4.7420 o         1 1UW     -0.351000
      6 CAI        -1.0780    0.0190   -2.3960 c1        1 1UW     -0.063000
      7 CAO        -1.1350    1.1990   -1.6700 c1        1 1UW     -0.094000
      8 CAM        -0.5050    1.2860   -0.4390 c1        1 1UW     -0.094000
      9 CAN        -0.3900   -1.0730   -1.8900 c1        1 1UW     -0.106667
     10 CAL         0.2400   -0.9850   -0.6590 c1        1 1UW     -0.106667
     11 CAH         0.1820    0.1940    0.0670 c1        1 1UW     -0.063000
     12 CAA         0.8070    0.2660    1.4420 c1        1 1UW      0.130000
     13 OAC         2.2110    0.5320    1.5800 o         1 1UW     -0.135000
     14 CAF         2.8200    0.6520    2.9390 c1        1 1UW      0.097000
     15 CAR         4.1540    1.0500    3.0730 c1        1 1UW     -0.106667
     16 CAU         4.7420    1.1040    4.3370 c1        1 1UW     -0.106667
     17 CAT         3.9950    0.7590    5.4750 c1        1 1UW     -0.106667
     18 CAQ         2.6640    0.3620    5.3430 c1        1 1UW     -0.106667
     19 CAE         2.0730    0.3070    4.0780 c1        1 1UW     -0.194000
     20 CAD         0.6150   -0.0340    3.9430 c2        1 1UW      0.310000
     21 OAJ        -0.0470   -0.2820    4.9310 o         1 1UW     -0.302000
     22 CAB        -0.0050   -0.0370    2.6370 c2        1 1UW     -0.289000
     23 H1         -5.4120   -0.6420   -5.1090 hc        1 1UW      0.088333
     24 H2         -4.9980   -1.8220   -6.1080 hc        1 1UW      0.088333
     25 H3         -4.9580   -2.0620   -4.5260 hc        1 1UW      0.088333
     26 H4         -3.2820   -0.1350   -5.7650 h1        1 1UW      0.093000
     27 H5         -2.7910   -1.6410   -5.5440 h1        1 1UW      0.093000
     28 H6         -1.6190    1.9680   -2.0270 ha        1 1UW      0.160000
     29 H7         -0.5450    2.1170    0.0720 ha        1 1UW      0.160000
     30 H8         -0.3500   -1.9030   -2.4010 ha        1 1UW      0.152000
     31 H9          0.7240   -1.7550   -0.3030 ha        1 1UW      0.152000
     32 H10         4.6740    1.2900    2.2830 ha        1 1UW      0.152000
     33 H11         5.6730    1.3810    4.4300 ha        1 1UW      0.152000
     34 H12         4.4080    0.7970    6.3590 ha        1 1UW      0.152000
     35 H13         2.1460    0.1220    6.1350 ha        1 1UW      0.152000
     36 H14        -0.9320   -0.3260    2.5370 ha        1 1UW      0.169000
@<TRIPOS>BOND
     1    1    2 1   
     2    1   23 1   
     3    1   24 1   
     4    1   25 1   
     5    2    3 1   
     6    2   26 1   
     7    2   27 1   
     8    3    4 1   
     9    4    5 1   
    10    6    7 1   
    11    7   28 1   
    12    8   11 1   
    13    8   29 1   
    14    9   10 1   
    15    9   30 1   
    16   10   31 1   
    17   12   22 1   
    18   13   14 1   
    19   14   19 1   
    20   15   16 1   
    21   15   32 1   
    22   16   33 1   
    23   17   18 1   
    24   17   34 1   
    25   18   35 1   
    26   19   20 1   
    27   20   21 1   
    28   20   22 1   
    29   22   36 1   
@<TRIPOS>SUBSTRUCTURE
     1 1UW         1 TEMP              0 ****  ****    0 ROOT
