@<TRIPOS>MOLECULE
1UW
   36    38     1     0     0
SMALL
bcc


@<TRIPOS>ATOM
      1 CAV         0.0170   -0.3050    0.2780 c3        1 1UW     -0.101100
      2 CAS         1.4760    0.0380    0.1050 c3        1 1UW      0.140400
      3 OAP         2.0620   -0.0330    1.4200 os        1 1UW     -0.440900
      4 CAG         3.4000    0.2440    1.5000 c         1 1UW      0.644700
      5 OAK         3.9980    0.5310    0.4590 o         1 1UW     -0.540000
      6 CAI         3.9540    0.1590    2.8610 ca        1 1UW     -0.115600
      7 CAO         5.3180    0.4220    3.0430 ca        1 1UW     -0.078500
      8 CAM         5.8770    0.3500    4.3160 ca        1 1UW     -0.113000
      9 CAN         3.1510   -0.1730    3.9570 ca        1 1UW     -0.078500
     10 CAL         3.7110   -0.2460    5.2310 ca        1 1UW     -0.113000
     11 CAH         5.0760    0.0100    5.4160 ca        1 1UW     -0.042800
     12 CAA         5.6750   -0.0840    6.7510 cc        1 1UW      0.184900
     13 OAC         4.7470    0.2090    7.7410 os        1 1UW     -0.224200
     14 CAF         5.1890    0.1490    9.0540 ca        1 1UW      0.142100
     15 CAR         4.2190    0.4540   10.0260 ca        1 1UW     -0.159000
     16 CAU         4.5850    0.4160   11.3650 ca        1 1UW     -0.077000
     17 CAT         5.8920    0.0810   11.7400 ca        1 1UW     -0.164000
     18 CAQ         6.8430   -0.2180   10.7730 ca        1 1UW     -0.046000
     19 CAE         6.5040   -0.1880    9.4120 ca        1 1UW     -0.214600
     20 CAD         7.4900   -0.5000    8.3670 c         1 1UW      0.588900
     21 OAJ         8.6660   -0.8020    8.6100 o         1 1UW     -0.540100
     22 CAB         6.9590   -0.4220    7.0050 cd        1 1UW     -0.307200
     23 H1         -0.4850   -0.2650   -0.7180 hc        1 1UW      0.049033
     24 H2         -0.4790    0.4190    0.9680 hc        1 1UW      0.049033
     25 H3         -0.0990   -1.3310    0.7040 hc        1 1UW      0.049033
     26 H4          2.0040   -0.6920   -0.5620 h1        1 1UW      0.053700
     27 H5          1.6200    1.0750   -0.2960 h1        1 1UW      0.053700
     28 H6          5.9400    0.6880    2.1720 ha        1 1UW      0.162500
     29 H7          6.9470    0.5670    4.4560 ha        1 1UW      0.152500
     30 H8          2.0780   -0.3770    3.8080 ha        1 1UW      0.162500
     31 H9          3.0810   -0.5020    6.0980 ha        1 1UW      0.152500
     32 H10         3.1990    0.7170    9.7140 ha        1 1UW      0.154000
     33 H11         3.8390    0.6530   12.1390 ha        1 1UW      0.141000
     34 H12         6.1640    0.0560   12.8060 ha        1 1UW      0.143000
     35 H13         7.8770   -0.4840   11.0510 ha        1 1UW      0.162000
     36 H14         7.6570   -0.6620    6.1890 ha        1 1UW      0.170000
@<TRIPOS>BOND
     1    1    2 1   
     2    1   23 1   
     3    1   24 1   
     4    1   25 1   
     5    2    3 1   
     6    2   26 1   
     7    2   27 1   
     8    3    4 1   
     9    4    5 2   
    10    4    6 1   
    11    6    7 ar  
    12    6    9 ar  
    13    7    8 ar  
    14    7   28 1   
    15    8   11 ar  
    16    8   29 1   
    17    9   10 ar  
    18    9   30 1   
    19   10   11 ar  
    20   10   31 1   
    21   11   12 1   
    22   12   13 1   
    23   12   22 2   
    24   13   14 1   
    25   14   15 ar  
    26   14   19 ar  
    27   15   16 ar  
    28   15   32 1   
    29   16   17 ar  
    30   16   33 1   
    31   17   18 ar  
    32   17   34 1   
    33   18   19 ar  
    34   18   35 1   
    35   19   20 1   
    36   20   21 2   
    37   20   22 1   
    38   22   36 1   
@<TRIPOS>SUBSTRUCTURE
     1 1UW         1 TEMP              0 ****  ****    0 ROOT
