@<TRIPOS>MOLECULE
1UW
   36    38     1     0     0
SMALL
bcc


@<TRIPOS>ATOM
      1 CAV        -6.9190    2.0900    0.3170 c3        1 1UW     -0.101100
      2 CAS        -6.4950    0.6850   -0.0350 c3        1 1UW      0.140400
      3 OAP        -5.0560    0.6730    0.0350 os        1 1UW     -0.440900
      4 CAG        -4.4470   -0.5190   -0.2500 c         1 1UW      0.644700
      5 OAK        -5.1630   -1.4820   -0.5420 o         1 1UW     -0.540000
      6 CAI        -2.9790   -0.4840   -0.1650 ca        1 1UW     -0.115600
      7 CAO        -2.2660   -1.6600   -0.4360 ca        1 1UW     -0.078500
      8 CAM        -0.8760   -1.6640   -0.3640 ca        1 1UW     -0.113000
      9 CAN        -2.2940    0.6880    0.1750 ca        1 1UW     -0.078500
     10 CAL        -0.9030    0.6830    0.2470 ca        1 1UW     -0.113000
     11 CAH        -0.1880   -0.4930   -0.0160 ca        1 1UW     -0.042800
     12 CAA         1.2750   -0.5090    0.0770 cc        1 1UW      0.184900
     13 OAC         1.8120    0.7390   -0.2070 os        1 1UW     -0.224200
     14 CAF         3.1920    0.8590   -0.1460 ca        1 1UW      0.142100
     15 CAR         3.6960    2.1380   -0.4440 ca        1 1UW     -0.159000
     16 CAU         5.0690    2.3380   -0.4040 ca        1 1UW     -0.077000
     17 CAT         5.9360    1.2870   -0.0760 ca        1 1UW     -0.164000
     18 CAQ         5.4290    0.0270    0.2150 ca        1 1UW     -0.046000
     19 CAE         4.0450   -0.2060    0.1830 ca        1 1UW     -0.214600
     20 CAD         3.4820   -1.5290    0.4860 c         1 1UW      0.588900
     21 OAJ         4.1760   -2.5120    0.7820 o         1 1UW     -0.540100
     22 CAB         2.0220   -1.5870    0.4080 cd        1 1UW     -0.307200
     23 H1         -8.0330    2.1520    0.2760 hc        1 1UW      0.049033
     24 H2         -6.5750    2.3600    1.3430 hc        1 1UW      0.049033
     25 H3         -6.4850    2.8240   -0.4040 hc        1 1UW      0.049033
     26 H4         -6.8950   -0.0700    0.6900 h1        1 1UW      0.053700
     27 H5         -6.8050    0.3990   -1.0740 h1        1 1UW      0.053700
     28 H6         -2.8170   -2.5770   -0.7070 ha        1 1UW      0.162500
     29 H7         -0.3200   -2.5880   -0.5860 ha        1 1UW      0.152500
     30 H8         -2.8600    1.6100    0.3850 ha        1 1UW      0.162500
     31 H9         -0.3600    1.6050    0.5090 ha        1 1UW      0.152500
     32 H10         3.0020    2.9510   -0.7010 ha        1 1UW      0.154000
     33 H11         5.4800    3.3330   -0.6340 ha        1 1UW      0.141000
     34 H12         7.0210    1.4640   -0.0500 ha        1 1UW      0.143000
     35 H13         6.0970   -0.8110    0.4740 ha        1 1UW      0.162000
     36 H14         1.5530   -2.5540    0.6420 ha        1 1UW      0.170000
@<TRIPOS>BOND
     1    1    2 1   
     2    1   23 1   
     3    1   24 1   
     4    1   25 1   
     5    2    3 1   
     6    2   26 1   
     7    2   27 1   
     8    3    4 1   
     9    4    5 2   
    10    4    6 1   
    11    6    7 ar  
    12    6    9 ar  
    13    7    8 ar  
    14    7   28 1   
    15    8   11 ar  
    16    8   29 1   
    17    9   10 ar  
    18    9   30 1   
    19   10   11 ar  
    20   10   31 1   
    21   11   12 1   
    22   12   13 1   
    23   12   22 2   
    24   13   14 1   
    25   14   15 ar  
    26   14   19 ar  
    27   15   16 ar  
    28   15   32 1   
    29   16   17 ar  
    30   16   33 1   
    31   17   18 ar  
    32   17   34 1   
    33   18   19 ar  
    34   18   35 1   
    35   19   20 1   
    36   20   21 2   
    37   20   22 1   
    38   22   36 1   
@<TRIPOS>SUBSTRUCTURE
     1 1UW         1 TEMP              0 ****  ****    0 ROOT
