@<TRIPOS>MOLECULE
1UX
   61    63     1     0     0
SMALL
bcc


@<TRIPOS>ATOM
      1 CAC        -0.3940   -0.3040   -0.5610 c3        1 1UX     -0.122100
      2 CBF         1.0620   -0.1680   -0.1420 c3        1 1UX      0.150800
      3 CAD         1.1890   -0.2310    1.3770 c3        1 1UX     -0.122100
      4 OAG         1.8620   -1.1970   -0.7240 oh        1 1UX     -0.593800
      5 CAN         1.6760    1.1540   -0.6360 c3        1 1UX      0.131400
      6 OAT         1.1350    1.4130   -1.9380 os        1 1UX     -0.303900
      7 CBB         1.7660    2.4120   -2.6510 ca        1 1UX      0.103100
      8 CAK         2.6450    3.3440   -2.1010 ca        1 1UX     -0.136000
      9 CBA         1.4330    2.4780   -4.0310 ca        1 1UX      0.115100
     10 OAS         0.5440    1.5200   -4.4730 os        1 1UX     -0.300900
     11 CAB         0.2370    1.5500   -5.8620 c3        1 1UX      0.109700
     12 CAI         1.9940    3.4760   -4.8290 ca        1 1UX     -0.183000
     13 CAH         2.8780    4.3990   -4.2720 ca        1 1UX     -0.119000
     14 CAY         3.2060    4.3430   -2.9140 ca        1 1UX     -0.133500
     15 CBE         4.1200    5.3250   -2.3520 cc        1 1UX      0.459900
     16 NAR         4.7850    5.1940   -1.2000 nd        1 1UX     -0.617000
     17 SAV         4.4190    6.8150   -3.1730 ss        1 1UX     -0.091300
     18 CBD         5.4750    7.3080   -1.9660 cc        1 1UX     -0.165700
     19 CAM         6.1770    8.6010   -1.9760 c3        1 1UX     -0.014100
     20 CAL         7.5670    8.4980   -2.5810 c3        1 1UX     -0.077400
     21 CAA         8.2660    9.8330   -2.5620 c3        1 1UX     -0.095100
     22 CBC         5.5610    6.3270   -0.9710 cd        1 1UX      0.335600
     23 CAO         6.4130    6.4350    0.2330 c3        1 1UX     -0.053600
     24 SAU         5.3970    7.2030    1.4730 ss        1 1UX     -0.201400
     25 C2          6.4390    7.4030    2.8400 ca        1 1UX      0.792300
     26 N3          5.8450    7.9990    3.9120 nb        1 1UX     -0.798000
     27 N1          7.7220    6.9540    2.7510 nb        1 1UX     -0.798000
     28 C6          8.5120    7.1380    3.8640 ca        1 1UX      0.708200
     29 NAE         9.8560    6.7800    3.8070 nv        1 1UX     -0.941000
     30 C5          7.9930    7.7370    5.0450 ca        1 1UX     -0.505600
     31 C4          6.6390    8.1810    5.0210 ca        1 1UX      0.708200
     32 NAF         6.1210    8.8630    6.1170 nv        1 1UX     -0.941000
     33 H1         -0.4620   -0.3580   -1.6750 hc        1 1UX      0.047867
     34 H2         -0.9730    0.5820   -0.2110 hc        1 1UX      0.047867
     35 H3         -0.8380   -1.2290   -0.1220 hc        1 1UX      0.047867
     36 H4          2.2550   -0.0980    1.6780 hc        1 1UX      0.047867
     37 H5          0.5720    0.5690    1.8490 hc        1 1UX      0.047867
     38 H6          0.8370   -1.2240    1.7450 hc        1 1UX      0.047867
     39 H7          1.3900   -2.0270   -0.5920 ho        1 1UX      0.401000
     40 H8          1.3820    1.9910    0.0500 h1        1 1UX      0.056200
     41 H9          2.7910    1.0560   -0.6890 h1        1 1UX      0.056200
     42 H10         2.9050    3.3020   -1.0320 ha        1 1UX      0.164000
     43 H11         1.1580    1.4000   -6.4760 h1        1 1UX      0.044700
     44 H12        -0.4660    0.6880   -5.9880 h1        1 1UX      0.044700
     45 H13        -0.2650    2.5100   -6.1350 h1        1 1UX      0.044700
     46 H14         1.7510    3.5400   -5.8990 ha        1 1UX      0.142000
     47 H15         3.3210    5.1760   -4.9160 ha        1 1UX      0.135000
     48 H16         6.2590    8.9880   -0.9220 hc        1 1UX      0.061200
     49 H17         5.5790    9.3560   -2.5560 hc        1 1UX      0.061200
     50 H18         8.1700    7.7470   -2.0060 hc        1 1UX      0.044700
     51 H19         7.4920    8.1250   -3.6360 hc        1 1UX      0.044700
     52 H20         7.6890   10.5900   -3.1470 hc        1 1UX      0.036033
     53 H21         9.2850    9.7420   -3.0090 hc        1 1UX      0.036033
     54 H22         8.3730   10.2080   -1.5150 hc        1 1UX      0.036033
     55 H23         6.7710    5.4330    0.5790 h1        1 1UX      0.093700
     56 H24         7.3140    7.0610    0.0100 h1        1 1UX      0.093700
     57 H25        10.2890    6.6110    4.6830 hn        1 1UX      0.417550
     58 H26        10.1450    6.1920    3.0600 hn        1 1UX      0.417550
     59 H27         8.6210    7.8820    5.9300 ha        1 1UX      0.146000
     60 H28         5.1380    9.0010    6.1530 hn        1 1UX      0.417550
     61 H29         6.5700    8.6850    6.9840 hn        1 1UX      0.417550
@<TRIPOS>BOND
     1    1    2 1   
     2    1   33 1   
     3    1   34 1   
     4    1   35 1   
     5    2    3 1   
     6    2    4 1   
     7    2    5 1   
     8    3   36 1   
     9    3   37 1   
    10    3   38 1   
    11    4   39 1   
    12    5    6 1   
    13    5   40 1   
    14    5   41 1   
    15    6    7 1   
    16    7    8 ar  
    17    7    9 ar  
    18    8   14 ar  
    19    8   42 1   
    20    9   10 1   
    21    9   12 ar  
    22   10   11 1   
    23   11   43 1   
    24   11   44 1   
    25   11   45 1   
    26   12   13 ar  
    27   12   46 1   
    28   13   14 ar  
    29   13   47 1   
    30   14   15 1   
    31   15   16 2   
    32   15   17 1   
    33   16   22 1   
    34   17   18 1   
    35   18   19 1   
    36   18   22 2   
    37   19   20 1   
    38   19   48 1   
    39   19   49 1   
    40   20   21 1   
    41   20   50 1   
    42   20   51 1   
    43   21   52 1   
    44   21   53 1   
    45   21   54 1   
    46   22   23 1   
    47   23   24 1   
    48   23   55 1   
    49   23   56 1   
    50   24   25 1   
    51   25   26 ar  
    52   25   27 ar  
    53   26   31 ar  
    54   27   28 ar  
    55   28   29 1   
    56   28   30 ar  
    57   29   57 1   
    58   29   58 1   
    59   30   31 ar  
    60   30   59 1   
    61   31   32 1   
    62   32   60 1   
    63   32   61 1   
@<TRIPOS>SUBSTRUCTURE
     1 1UX         1 TEMP              0 ****  ****    0 ROOT
