@<TRIPOS>MOLECULE
1UX
   63    65     1     0     0
SMALL
bcc


@<TRIPOS>ATOM
      1 CAC         0.6020   -0.7620   -1.9160 c3        1 1UX     -0.125100
      2 CBF         1.9980   -0.3490   -1.4780 c3        1 1UX      0.122800
      3 CAD         2.7640   -1.5540   -0.9410 c3        1 1UX     -0.125100
      4 OAG         2.7250    0.2310   -2.5620 oh        1 1UX     -0.608800
      5 CAN         1.9470    0.7330   -0.3870 c3        1 1UX      0.141400
      6 OAT         0.9930    1.7630   -0.6540 os        1 1UX     -0.315900
      7 CBB         1.4000    2.7730   -1.5060 ca        1 1UX      0.096100
      8 CAK         2.5390    3.5390   -1.2600 ca        1 1UX     -0.086000
      9 CBA         0.5430    3.1030   -2.5900 ca        1 1UX      0.162100
     10 OAS        -0.5590    2.3020   -2.7450 os        1 1UX     -0.296900
     11 CAB        -1.4510    2.6410   -3.8050 c3        1 1UX      0.103700
     12 CAI         0.8520    4.1990   -3.4070 ca        1 1UX     -0.194000
     13 CAH         1.9970    4.9490   -3.1610 ca        1 1UX     -0.086000
     14 CAY         2.8450    4.6280   -2.0920 ca        1 1UX     -0.197500
     15 CBE         4.0370    5.4230   -1.8620 cc        1 1UX      0.492900
     16 NAR         4.6330    5.6150   -0.6810 nd        1 1UX     -0.644000
     17 SAV         4.8210    6.2170   -3.1820 ss        1 1UX      0.038700
     18 CBD         5.9780    6.8600   -2.1730 cc        1 1UX     -0.149700
     19 CAM         7.0720    7.7300   -2.6370 c3        1 1UX     -0.024100
     20 CAL         8.3790    6.9730   -2.8080 c3        1 1UX     -0.075400
     21 CAA         9.4800    7.8940   -3.2660 c3        1 1UX     -0.100100
     22 CBC         5.7490    6.4360   -0.8540 cd        1 1UX      0.235600
     23 CAO         6.6030    6.7630    0.3030 c3        1 1UX     -0.080600
     24 SAU         5.5040    7.8090    1.2180 ss        1 1UX      0.191600
     25 C2          6.1210    8.0450    2.7280 ca        1 1UX      0.702300
     26 N3          5.3510    8.8360    3.5880 nb        1 1UX     -0.695000
     27 N1          7.3250    7.4650    3.1190 nb        1 1UX     -0.695000
     28 C6          7.7250    7.6730    4.3840 ca        1 1UX      0.591700
     29 NAE         8.9990    7.0410    4.8030 n4        1 1UX     -0.834800
     30 C5          7.0150    8.4470    5.3380 ca        1 1UX     -0.452600
     31 C4          5.8050    9.0070    4.8330 ca        1 1UX      0.591700
     32 NAF         4.9800    9.8370    5.7440 n4        1 1UX     -0.834800
     33 H1          0.0460   -1.1970   -1.0520 hc        1 1UX      0.051200
     34 H2          0.0430    0.1320   -2.2890 hc        1 1UX      0.051200
     35 H3          0.6610   -1.5230   -2.7300 hc        1 1UX      0.051200
     36 H4          2.8470   -2.3350   -1.7340 hc        1 1UX      0.051200
     37 H5          2.2320   -1.9900   -0.0630 hc        1 1UX      0.051200
     38 H6          3.7930   -1.2500   -0.6340 hc        1 1UX      0.051200
     39 H7          2.6780   -0.3930   -3.2960 ho        1 1UX      0.410000
     40 H8          1.5570    0.2790    0.5650 h1        1 1UX      0.060200
     41 H9          2.9700    1.1600   -0.2340 h1        1 1UX      0.060200
     42 H10         3.1980    3.2810   -0.4180 ha        1 1UX      0.150000
     43 H11        -0.9350    2.5640   -4.7930 h1        1 1UX      0.055700
     44 H12        -2.2560    1.8660   -3.7160 h1        1 1UX      0.055700
     45 H13        -1.8700    3.6650   -3.6550 h1        1 1UX      0.055700
     46 H14         0.1990    4.4680   -4.2510 ha        1 1UX      0.155000
     47 H15         2.2300    5.8040   -3.8150 ha        1 1UX      0.134000
     48 H16         6.7940    8.2020   -3.6200 hc        1 1UX      0.061700
     49 H17         7.2230    8.5720   -1.9070 hc        1 1UX      0.061700
     50 H18         8.2400    6.1500   -3.5580 hc        1 1UX      0.046200
     51 H19         8.6630    6.4900   -1.8370 hc        1 1UX      0.046200
     52 H20         9.2230    8.3620   -4.2470 hc        1 1UX      0.045033
     53 H21         9.6520    8.7110   -2.5240 hc        1 1UX      0.045033
     54 H22        10.4320    7.3230   -3.3900 hc        1 1UX      0.045033
     55 H23         6.9000    5.8460    0.8710 h1        1 1UX      0.113200
     56 H24         7.5310    7.3020   -0.0130 h1        1 1UX      0.113200
     57 H25         9.6210    7.7610    5.1930 hn        1 1UX      0.490467
     58 H26         9.4700    6.5850    4.0030 hn        1 1UX      0.490467
     59 H27         7.3610    8.6020    6.3660 ha        1 1UX      0.188000
     60 H28         4.6830    9.2620    6.5440 hn        1 1UX      0.490467
     61 H29         5.5430   10.6310    6.0770 hn        1 1UX      0.490467
     62 HAE3        8.8000    6.3300    5.5210 hn        1 1UX      0.490467
     63 HAF3        4.1400   10.1990    5.2600 hn        1 1UX      0.490467
@<TRIPOS>BOND
     1    1    2 1   
     2    1   33 1   
     3    1   34 1   
     4    1   35 1   
     5    2    3 1   
     6    2    4 1   
     7    2    5 1   
     8    3   36 1   
     9    3   37 1   
    10    3   38 1   
    11    4   39 1   
    12    5    6 1   
    13    5   40 1   
    14    5   41 1   
    15    6    7 1   
    16    7    8 ar  
    17    7    9 ar  
    18    8   14 ar  
    19    8   42 1   
    20    9   10 1   
    21    9   12 ar  
    22   10   11 1   
    23   11   43 1   
    24   11   44 1   
    25   11   45 1   
    26   12   13 ar  
    27   12   46 1   
    28   13   14 ar  
    29   13   47 1   
    30   14   15 1   
    31   15   16 2   
    32   15   17 1   
    33   16   22 1   
    34   17   18 1   
    35   18   19 1   
    36   18   22 2   
    37   19   20 1   
    38   19   48 1   
    39   19   49 1   
    40   20   21 1   
    41   20   50 1   
    42   20   51 1   
    43   21   52 1   
    44   21   53 1   
    45   21   54 1   
    46   22   23 1   
    47   23   24 1   
    48   23   55 1   
    49   23   56 1   
    50   24   25 1   
    51   25   26 ar  
    52   25   27 ar  
    53   26   31 ar  
    54   27   28 ar  
    55   28   29 1   
    56   28   30 ar  
    57   29   57 1   
    58   29   58 1   
    59   29   62 1   
    60   30   31 ar  
    61   30   59 1   
    62   31   32 1   
    63   32   60 1   
    64   32   61 1   
    65   32   63 1   
@<TRIPOS>SUBSTRUCTURE
     1 1UX         1 TEMP              0 ****  ****    0 ROOT
