@<TRIPOS>MOLECULE
1UX
   61    52     1     0     0
SMALL
bcc


@<TRIPOS>ATOM
      1 CAC         2.0610    2.6660    7.4260 c3        1 1UX     -0.239000
      2 CBF         2.5810    2.3530    5.9860 c3        1 1UX      0.069000
      3 CAD         3.7540    3.2880    5.6470 c3        1 1UX     -0.239000
      4 OAG         3.0140    1.0120    5.9300 oh        1 1UX     -0.322000
      5 CAN         1.4040    2.5790    4.9340 c3        1 1UX     -0.005000
      6 OAT         1.9100    2.4270    3.6080 os        1 1UX     -0.210000
      7 CBB         0.9080    2.5400    2.5890 c1        1 1UX      0.048000
      8 CAK         0.4690    1.4020    1.9250 c1        1 1UX     -0.109000
      9 CBA         0.4910    3.7990    2.1610 c1        1 1UX      0.067333
     10 OAS         0.9730    4.9540    2.8010 o         1 1UX     -0.213000
     11 CAB        -0.0670    5.8120    3.3110 c3        1 1UX     -0.077000
     12 CAI        -0.3590    3.9130    1.0780 c1        1 1UX     -0.212333
     13 CAH        -0.7990    2.7680    0.4130 c1        1 1UX     -0.212333
     14 CAY        -0.3850    1.5180    0.8370 c1        1 1UX      0.067333
     15 CBE        -0.8110    0.2550    0.0500 c1        1 1UX     -0.233000
     16 NAR        -0.4140   -0.0780   -1.2730 n2        1 1UX     -0.087000
     17 SAV        -1.8210   -0.8240    0.5310 ss        1 1UX      0.512000
     18 CBD        -1.9970   -1.8250   -0.6020 c1        1 1UX     -0.369000
     19 CAM        -2.8620   -3.0850   -0.5640 c2        1 1UX     -0.099000
     20 CAL        -2.3720   -4.0130    0.5600 c3        1 1UX     -0.165000
     21 CAA        -2.5360   -5.4770    0.1240 c3        1 1UX     -0.210000
     22 CBC        -1.1620   -1.4010   -1.7000 c1        1 1UX     -0.094000
     23 CAO        -1.0350   -2.1170   -3.0650 c2        1 1UX     -0.218000
     24 SAU         0.0200   -1.1710   -4.1360 ss        1 1UX      0.309000
     25 C2          0.0170   -1.9010   -5.7900 c1        1 1UX     -0.060000
     26 N3          1.0590   -1.6720   -6.6360 n1        1 1UX     -0.254000
     27 N1         -1.0610   -2.6270   -6.2140 n1        1 1UX     -0.294000
     28 C6         -1.0950   -3.1130   -7.4620 c1        1 1UX      0.067333
     29 NAE        -2.2200   -3.8780   -7.9020 n2        1 1UX     -0.342000
     30 C5         -0.0550   -2.8850   -8.3080 c1        1 1UX     -0.212333
     31 C4          1.0290   -2.1560   -7.8820 c1        1 1UX      0.188000
     32 NAF         2.1340   -1.9770   -8.7320 n3        1 1UX     -0.341000
     33 H1          1.8340    3.6070    7.4920 hc        1 1UX      0.085167
     34 H2          1.2620    2.1220    7.6110 hc        1 1UX      0.085167
     35 H3          2.7650    2.4500    8.0840 hc        1 1UX      0.085167
     36 H4          4.3110    2.8750    4.9190 hc        1 1UX      0.085167
     37 H5          3.4030    4.1540    5.3400 hc        1 1UX      0.085167
     38 H6          4.3120    3.4240    6.4520 hc        1 1UX      0.085167
     39 H7          3.2270    0.7310    6.7600 ho        1 1UX      0.198000
     40 H8          1.0400    3.4780    5.0420 h1        1 1UX      0.100000
     41 H9          0.6930    1.9170    5.0910 h1        1 1UX      0.100000
     42 H10         0.7550    0.5360    2.2180 ha        1 1UX      0.154000
     43 H11         0.3060    6.4130    3.9840 h1        1 1UX      0.085667
     44 H12        -0.4490    6.3420    2.5720 h1        1 1UX      0.085667
     45 H13        -0.7690    5.2650    3.7160 h1        1 1UX      0.085667
     46 H14        -0.6470    4.7800    0.7830 ha        1 1UX      0.149000
     47 H15        -1.3850    2.8470   -0.3350 ha        1 1UX      0.149000
     48 H16        -2.7960   -3.5580   -1.4360 ha        1 1UX      0.103500
     49 H17        -3.7970   -2.8350   -0.3980 ha        1 1UX      0.103500
     50 H18        -1.4110   -3.8290    0.7480 hc        1 1UX      0.085000
     51 H19        -2.9040   -3.8500    1.3760 hc        1 1UX      0.085000
     52 H20        -1.9480   -5.6570   -0.6500 hc        1 1UX      0.075333
     53 H21        -3.4840   -5.6440   -0.1330 hc        1 1UX      0.075333
     54 H22        -2.2890   -6.0710    0.8690 hc        1 1UX      0.075333
     55 H23        -1.9170   -2.2000   -3.4700 h4        1 1UX      0.132000
     56 H24        -0.6510   -3.0080   -2.9330 h4        1 1UX      0.132000
     57 H25        -2.2670   -4.1700   -8.7840 hn        1 1UX      0.213000
     58 H26        -2.8540   -4.1430   -7.3000 hn        1 1UX      0.213000
     59 H27        -0.0790   -3.2430   -9.2290 ha        1 1UX      0.149000
     60 H28         2.8490   -1.5070   -8.4480 hn        1 1UX      0.214500
     61 H29         2.1170   -2.3170   -9.5870 hn        1 1UX      0.214500
@<TRIPOS>BOND
     1    1    2 1   
     2    1   33 1   
     3    1   34 1   
     4    1   35 1   
     5    2    3 1   
     6    2    4 1   
     7    2    5 1   
     8    3   36 1   
     9    3   37 1   
    10    3   38 1   
    11    4   39 1   
    12    5    6 1   
    13    5   40 1   
    14    5   41 1   
    15    6    7 1   
    16    7    8 1   
    17    8   42 1   
    18    9   12 1   
    19   10   11 1   
    20   11   43 1   
    21   11   44 1   
    22   11   45 1   
    23   12   46 1   
    24   13   14 1   
    25   13   47 1   
    26   15   16 1   
    27   15   17 1   
    28   16   22 1   
    29   17   18 1   
    30   18   22 1   
    31   19   20 1   
    32   19   48 1   
    33   19   49 1   
    34   20   21 1   
    35   20   50 1   
    36   20   51 1   
    37   21   52 1   
    38   21   53 1   
    39   21   54 1   
    40   23   24 1   
    41   23   55 1   
    42   23   56 1   
    43   24   25 1   
    44   25   27 1   
    45   26   31 1   
    46   28   30 1   
    47   29   57 1   
    48   29   58 1   
    49   30   59 1   
    50   31   32 1   
    51   32   60 1   
    52   32   61 1   
@<TRIPOS>SUBSTRUCTURE
     1 1UX         1 TEMP              0 ****  ****    0 ROOT
