@<TRIPOS>MOLECULE
1UX
   61    63     1     0     0
SMALL
bcc


@<TRIPOS>ATOM
      1 CAC        -0.3920   -0.3100   -0.5660 c3        1 1UX     -0.122100
      2 CBF         1.0670   -0.1790   -0.1570 c3        1 1UX      0.150800
      3 CAD         1.2060   -0.2540    1.3600 c3        1 1UX     -0.122100
      4 OAG         1.8610   -1.2030   -0.7550 oh        1 1UX     -0.593800
      5 CAN         1.6780    1.1470   -0.6450 c3        1 1UX      0.131400
      6 OAT         1.1270    1.4180   -1.9400 os        1 1UX     -0.303900
      7 CBB         1.7560    2.4190   -2.6510 ca        1 1UX      0.103100
      8 CAK         2.6400    3.3460   -2.1010 ca        1 1UX     -0.136000
      9 CBA         1.4170    2.4920   -4.0300 ca        1 1UX      0.115100
     10 OAS         0.5250    1.5380   -4.4720 os        1 1UX     -0.300900
     11 CAB         0.2080    1.5770   -5.8590 c3        1 1UX      0.109700
     12 CAI         1.9770    3.4930   -4.8250 ca        1 1UX     -0.183000
     13 CAH         2.8660    4.4110   -4.2680 ca        1 1UX     -0.119000
     14 CAY         3.1990    4.3480   -2.9110 ca        1 1UX     -0.133500
     15 CBE         4.1180    5.3250   -2.3490 cc        1 1UX      0.459900
     16 NAR         4.7760    5.1940   -1.1930 nd        1 1UX     -0.617000
     17 SAV         4.4350    6.8080   -3.1770 ss        1 1UX     -0.091300
     18 CBD         5.4890    7.2990   -1.9670 cc        1 1UX     -0.165700
     19 CAM         6.2030    8.5850   -1.9800 c3        1 1UX     -0.014100
     20 CAL         7.5950    8.4670   -2.5770 c3        1 1UX     -0.077400
     21 CAA         8.3050    9.7960   -2.5600 c3        1 1UX     -0.095100
     22 CBC         5.5610    6.3220   -0.9660 cd        1 1UX      0.335600
     23 CAO         6.4070    6.4300    0.2430 c3        1 1UX     -0.053600
     24 SAU         5.3930    7.2220    1.4700 ss        1 1UX     -0.201400
     25 C2          6.4300    7.4220    2.8410 ca        1 1UX      0.792300
     26 N3          5.8370    8.0370    3.9030 nb        1 1UX     -0.798000
     27 N1          7.7070    6.9560    2.7640 nb        1 1UX     -0.798000
     28 C6          8.4930    7.1410    3.8790 ca        1 1UX      0.708200
     29 NAE         9.8330    6.7660    3.8330 nh        1 1UX     -0.941000
     30 C5          7.9750    7.7590    5.0510 ca        1 1UX     -0.505600
     31 C4          6.6270    8.2200    5.0150 ca        1 1UX      0.708200
     32 NAF         6.1120    8.9200    6.1010 nh        1 1UX     -0.941000
     33 H1         -0.4690   -0.3550   -1.6800 hc        1 1UX      0.047867
     34 H2         -0.8330   -1.2390   -0.1310 hc        1 1UX      0.047867
     35 H3         -0.9680    0.5730   -0.2040 hc        1 1UX      0.047867
     36 H4          0.5930    0.5410    1.8440 hc        1 1UX      0.047867
     37 H5          2.2750   -0.1250    1.6540 hc        1 1UX      0.047867
     38 H6          0.8560   -1.2500    1.7230 hc        1 1UX      0.047867
     39 H7          1.3910   -2.0340   -0.6260 ho        1 1UX      0.401000
     40 H8          1.3900    1.9780    0.0510 h1        1 1UX      0.056200
     41 H9          2.7930    1.0490   -0.7080 h1        1 1UX      0.056200
     42 H10         2.9040    3.2990   -1.0330 ha        1 1UX      0.164000
     43 H11        -0.2920    2.5410   -6.1230 h1        1 1UX      0.044700
     44 H12        -0.4980    0.7180   -5.9860 h1        1 1UX      0.044700
     45 H13         1.1250    1.4290   -6.4800 h1        1 1UX      0.044700
     46 H14         1.7290    3.5630   -5.8940 ha        1 1UX      0.142000
     47 H15         3.3070    5.1900   -4.9100 ha        1 1UX      0.135000
     48 H16         5.6140    9.3420   -2.5670 hc        1 1UX      0.061200
     49 H17         6.2820    8.9770   -0.9270 hc        1 1UX      0.061200
     50 H18         8.1880    7.7130   -1.9940 hc        1 1UX      0.044700
     51 H19         7.5220    8.0890   -3.6300 hc        1 1UX      0.044700
     52 H20         7.7390   10.5540   -3.1530 hc        1 1UX      0.036033
     53 H21         8.4090   10.1750   -1.5140 hc        1 1UX      0.036033
     54 H22         9.3260    9.6920   -3.0010 hc        1 1UX      0.036033
     55 H23         7.3170    7.0420    0.0190 h1        1 1UX      0.093700
     56 H24         6.7500    5.4260    0.5990 h1        1 1UX      0.093700
     57 H25        10.1180    6.1660    3.0940 hn        1 1UX      0.417550
     58 H26        10.2590    6.6010    4.7140 hn        1 1UX      0.417550
     59 H27         8.5990    7.9050    5.9380 ha        1 1UX      0.146000
     60 H28         5.1300    9.0700    6.1290 hn        1 1UX      0.417550
     61 H29         6.5530    8.7450    6.9720 hn        1 1UX      0.417550
@<TRIPOS>BOND
     1    1    2 1   
     2    1   33 1   
     3    1   34 1   
     4    1   35 1   
     5    2    3 1   
     6    2    4 1   
     7    2    5 1   
     8    3   36 1   
     9    3   37 1   
    10    3   38 1   
    11    4   39 1   
    12    5    6 1   
    13    5   40 1   
    14    5   41 1   
    15    6    7 1   
    16    7    8 ar  
    17    7    9 ar  
    18    8   14 ar  
    19    8   42 1   
    20    9   10 1   
    21    9   12 ar  
    22   10   11 1   
    23   11   43 1   
    24   11   44 1   
    25   11   45 1   
    26   12   13 ar  
    27   12   46 1   
    28   13   14 ar  
    29   13   47 1   
    30   14   15 1   
    31   15   16 2   
    32   15   17 1   
    33   16   22 1   
    34   17   18 1   
    35   18   19 1   
    36   18   22 2   
    37   19   20 1   
    38   19   48 1   
    39   19   49 1   
    40   20   21 1   
    41   20   50 1   
    42   20   51 1   
    43   21   52 1   
    44   21   53 1   
    45   21   54 1   
    46   22   23 1   
    47   23   24 1   
    48   23   55 1   
    49   23   56 1   
    50   24   25 1   
    51   25   26 ar  
    52   25   27 ar  
    53   26   31 ar  
    54   27   28 ar  
    55   28   29 1   
    56   28   30 ar  
    57   29   57 1   
    58   29   58 1   
    59   30   31 ar  
    60   30   59 1   
    61   31   32 1   
    62   32   60 1   
    63   32   61 1   
@<TRIPOS>SUBSTRUCTURE
     1 1UX         1 TEMP              0 ****  ****    0 ROOT
