@<TRIPOS>MOLECULE
1UX
   61    63     1     0     0
SMALL
bcc


@<TRIPOS>ATOM
      1 CAC         5.9220    4.1650    0.7970 c3        1 1UX     -0.104600
      2 CBF         5.2410    3.4840   -0.3830 c3        1 1UX      0.142800
      3 CAD         4.8640    4.4970   -1.4550 c3        1 1UX     -0.104600
      4 OAG         6.1350    2.5620   -0.9980 oh        1 1UX     -0.604800
      5 CAN         3.9740    2.7470    0.0920 c3        1 1UX      0.094400
      6 OAT         4.3950    1.6730    0.9490 os        1 1UX     -0.330900
      7 CBB         3.9440    0.4210    0.5690 ca        1 1UX      0.073100
      8 CAK         2.5830    0.1390    0.4380 ca        1 1UX     -0.093000
      9 CBA         4.9050   -0.6070    0.4090 ca        1 1UX      0.126100
     10 OAS         6.2210   -0.2180    0.5360 os        1 1UX     -0.315900
     11 CAB         7.1960   -1.2480    0.4030 c3        1 1UX      0.110700
     12 CAI         4.4790   -1.9130    0.1430 ca        1 1UX     -0.190000
     13 CAH         3.1200   -2.1860    0.0150 ca        1 1UX     -0.099000
     14 CAY         2.1660   -1.1700    0.1580 ca        1 1UX     -0.146500
     15 CBE         0.7520   -1.4820    0.0230 cc        1 1UX      0.454900
     16 NAR        -0.2030   -0.6010   -0.2930 nd        1 1UX     -0.615000
     17 SAV         0.1750   -3.0880    0.2810 ss        1 1UX     -0.089300
     18 CBD        -1.4010   -2.6110   -0.0430 cc        1 1UX     -0.164700
     19 CAM        -2.5530   -3.5250   -0.0040 c3        1 1UX     -0.015100
     20 CAL        -2.8800   -4.1010   -1.3720 c3        1 1UX     -0.077400
     21 CAA        -4.0750   -5.0160   -1.3010 c3        1 1UX     -0.095100
     22 CBC        -1.4400   -1.2410   -0.3290 cd        1 1UX      0.335600
     23 CAO        -2.6730   -0.4970   -0.6690 c3        1 1UX     -0.054600
     24 SAU        -3.3340    0.0700    0.8810 ss        1 1UX     -0.201400
     25 C2         -4.8200    0.8560    0.4670 ca        1 1UX      0.792300
     26 N3         -5.5030    1.3530    1.5370 nb        1 1UX     -0.798000
     27 N1         -5.1750    0.9280   -0.8460 nb        1 1UX     -0.798000
     28 C6         -6.3650    1.5620   -1.1220 ca        1 1UX      0.709200
     29 NAE        -6.8270    1.5920   -2.4350 nh        1 1UX     -0.941000
     30 C5         -7.1550    2.1310   -0.0850 ca        1 1UX     -0.505600
     31 C4         -6.6930    1.9840    1.2540 ca        1 1UX      0.709200
     32 NAF        -7.4830    2.4370    2.3070 nh        1 1UX     -0.941000
     33 H1          5.2750    4.9810    1.1950 hc        1 1UX      0.046033
     34 H2          6.1080    3.4210    1.6080 hc        1 1UX      0.046033
     35 H3          6.8980    4.5980    0.4720 hc        1 1UX      0.046033
     36 H4          5.7700    5.0670   -1.7680 hc        1 1UX      0.046033
     37 H5          4.4480    3.9740   -2.3490 hc        1 1UX      0.046033
     38 H6          4.1030    5.2050   -1.0520 hc        1 1UX      0.046033
     39 H7          6.3080    1.8660   -0.3470 ho        1 1UX      0.423000
     40 H8          3.3420    3.4210    0.7260 h1        1 1UX      0.058700
     41 H9          3.3880    2.3730   -0.7840 h1        1 1UX      0.058700
     42 H10         1.8490    0.9520    0.5580 ha        1 1UX      0.166000
     43 H11         7.0580   -2.0260    1.1920 h1        1 1UX      0.048033
     44 H12         7.1490   -1.7050   -0.6150 h1        1 1UX      0.048033
     45 H13         8.1640   -0.7040    0.5480 h1        1 1UX      0.048033
     46 H14         5.2080   -2.7270    0.0220 ha        1 1UX      0.143000
     47 H15         2.7960   -3.2160   -0.2070 ha        1 1UX      0.137000
     48 H16        -2.3480   -4.3680    0.7110 hc        1 1UX      0.062700
     49 H17        -3.4520   -2.9720    0.3900 hc        1 1UX      0.062700
     50 H18        -3.0870   -3.2630   -2.0900 hc        1 1UX      0.044700
     51 H19        -1.9940   -4.6640   -1.7650 hc        1 1UX      0.044700
     52 H20        -4.3020   -5.4310   -2.3130 hc        1 1UX      0.036367
     53 H21        -3.8800   -5.8680   -0.6060 hc        1 1UX      0.036367
     54 H22        -4.9740   -4.4650   -0.9350 hc        1 1UX      0.036367
     55 H23        -2.4610    0.3660   -1.3490 h1        1 1UX      0.093700
     56 H24        -3.3960   -1.1730   -1.1900 h1        1 1UX      0.093700
     57 H25        -6.1800    1.3720   -3.1560 hn        1 1UX      0.417550
     58 H26        -7.4760    2.3140   -2.6420 hn        1 1UX      0.417550
     59 H27        -8.1010    2.6360   -0.3050 ha        1 1UX      0.146000
     60 H28        -8.1290    3.1540    2.0810 hn        1 1UX      0.417550
     61 H29        -7.0670    2.4880    3.2080 hn        1 1UX      0.417550
@<TRIPOS>BOND
     1    1    2 1   
     2    1   33 1   
     3    1   34 1   
     4    1   35 1   
     5    2    3 1   
     6    2    4 1   
     7    2    5 1   
     8    3   36 1   
     9    3   37 1   
    10    3   38 1   
    11    4   39 1   
    12    5    6 1   
    13    5   40 1   
    14    5   41 1   
    15    6    7 1   
    16    7    8 ar  
    17    7    9 ar  
    18    8   14 ar  
    19    8   42 1   
    20    9   10 1   
    21    9   12 ar  
    22   10   11 1   
    23   11   43 1   
    24   11   44 1   
    25   11   45 1   
    26   12   13 ar  
    27   12   46 1   
    28   13   14 ar  
    29   13   47 1   
    30   14   15 1   
    31   15   16 2   
    32   15   17 1   
    33   16   22 1   
    34   17   18 1   
    35   18   19 1   
    36   18   22 2   
    37   19   20 1   
    38   19   48 1   
    39   19   49 1   
    40   20   21 1   
    41   20   50 1   
    42   20   51 1   
    43   21   52 1   
    44   21   53 1   
    45   21   54 1   
    46   22   23 1   
    47   23   24 1   
    48   23   55 1   
    49   23   56 1   
    50   24   25 1   
    51   25   26 ar  
    52   25   27 ar  
    53   26   31 ar  
    54   27   28 ar  
    55   28   29 1   
    56   28   30 ar  
    57   29   57 1   
    58   29   58 1   
    59   30   31 ar  
    60   30   59 1   
    61   31   32 1   
    62   32   60 1   
    63   32   61 1   
@<TRIPOS>SUBSTRUCTURE
     1 1UX         1 TEMP              0 ****  ****    0 ROOT
