@<TRIPOS>MOLECULE
1UZ
   28    30     1     0     0
SMALL
bcc


@<TRIPOS>ATOM
      1 CAC         0.0600   -0.2450   -0.0990 cc        1 1UZ     -0.308200
      2 CAB         1.5230   -0.2480   -0.0820 c         1 1UZ      0.588900
      3 OAA         2.2040   -0.3880   -1.1070 o         1 1UZ     -0.539100
      4 CAK         2.1060   -0.0700    1.2560 ca        1 1UZ     -0.214600
      5 CAJ         3.4950   -0.0530    1.4550 ca        1 1UZ     -0.046000
      6 CAI         4.0190    0.1170    2.7300 ca        1 1UZ     -0.164000
      7 CAH         3.1660    0.2730    3.8290 ca        1 1UZ     -0.077000
      8 CAG         1.7870    0.2600    3.6650 ca        1 1UZ     -0.158000
      9 CAF         1.2660    0.0870    2.3700 ca        1 1UZ      0.141100
     10 OAE        -0.1190    0.0860    2.2870 os        1 1UZ     -0.225200
     11 CAD        -0.6740   -0.0820    1.0250 cd        1 1UZ      0.185900
     12 CAL        -2.1380   -0.0700    1.0830 ca        1 1UZ     -0.051800
     13 CAM        -2.8070   -0.5000    2.2370 ca        1 1UZ     -0.100000
     14 CAN        -4.1990   -0.5050    2.2800 ca        1 1UZ     -0.097500
     15 CAO        -4.9340   -0.0730    1.1670 ca        1 1UZ      0.003000
     16 CAR        -6.3550   -0.0780    1.2080 cg        1 1UZ      0.226800
     17 NAS        -7.5180   -0.0820    1.2420 n1        1 1UZ     -0.349800
     18 CAP        -4.2680    0.3650    0.0140 ca        1 1UZ     -0.097500
     19 CAQ        -2.8760    0.3680   -0.0260 ca        1 1UZ     -0.100000
     20 H1         -0.4220   -0.3910   -1.0770 ha        1 1UZ      0.169000
     21 H2          4.1530   -0.1770    0.5790 ha        1 1UZ      0.162000
     22 H3          5.1090    0.1290    2.8800 ha        1 1UZ      0.143000
     23 H4          3.5910    0.4080    4.8360 ha        1 1UZ      0.141000
     24 H5          1.1040    0.3830    4.5160 ha        1 1UZ      0.154000
     25 H6         -2.2260   -0.8340    3.1120 ha        1 1UZ      0.154000
     26 H7         -4.7210   -0.8470    3.1880 ha        1 1UZ      0.152000
     27 H8         -4.8440    0.7080   -0.8590 ha        1 1UZ      0.152000
     28 H9         -2.3570    0.7210   -0.9310 ha        1 1UZ      0.154000
@<TRIPOS>BOND
     1    1    2 1   
     2    1   11 2   
     3    1   20 1   
     4    2    3 2   
     5    2    4 1   
     6    4    5 ar  
     7    4    9 ar  
     8    5    6 ar  
     9    5   21 1   
    10    6    7 ar  
    11    6   22 1   
    12    7    8 ar  
    13    7   23 1   
    14    8    9 ar  
    15    8   24 1   
    16    9   10 1   
    17   10   11 1   
    18   11   12 1   
    19   12   13 ar  
    20   12   19 ar  
    21   13   14 ar  
    22   13   25 1   
    23   14   15 ar  
    24   14   26 1   
    25   15   16 1   
    26   15   18 ar  
    27   16   17 3   
    28   18   19 ar  
    29   18   27 1   
    30   19   28 1   
@<TRIPOS>SUBSTRUCTURE
     1 1UZ         1 TEMP              0 ****  ****    0 ROOT
