@<TRIPOS>MOLECULE
1UZ
   28    30     1     0     0
SMALL
bcc


@<TRIPOS>ATOM
      1 CAC         0.0670    0.3110   -0.0700 cc        1 1UZ     -0.308200
      2 CAB         1.5300    0.3160   -0.0480 c         1 1UZ      0.588900
      3 OAA         2.2130    0.5000   -1.0650 o         1 1UZ     -0.539100
      4 CAK         2.1090    0.0860    1.2830 ca        1 1UZ     -0.214600
      5 CAJ         3.4980    0.0630    1.4850 ca        1 1UZ     -0.046000
      6 CAI         4.0190   -0.1570    2.7530 ca        1 1UZ     -0.164000
      7 CAH         3.1630   -0.3600    3.8430 ca        1 1UZ     -0.077000
      8 CAG         1.7840   -0.3440    3.6750 ca        1 1UZ     -0.158000
      9 CAF         1.2660   -0.1180    2.3860 ca        1 1UZ      0.141100
     10 OAE        -0.1180   -0.1170    2.3000 os        1 1UZ     -0.225200
     11 CAD        -0.6690    0.1010    1.0440 cd        1 1UZ      0.185900
     12 CAL        -2.1340    0.0840    1.0970 ca        1 1UZ     -0.051800
     13 CAM        -2.8070    0.4630    2.2670 ca        1 1UZ     -0.100000
     14 CAN        -4.1990    0.4630    2.3070 ca        1 1UZ     -0.097500
     15 CAO        -4.9300    0.0790    1.1730 ca        1 1UZ      0.003000
     16 CAR        -6.3510    0.0790    1.2110 cg        1 1UZ      0.226800
     17 NAS        -7.5140    0.0790    1.2420 n1        1 1UZ     -0.349800
     18 CAP        -4.2600   -0.3080    0.0040 ca        1 1UZ     -0.097500
     19 CAQ        -2.8680   -0.3070   -0.0320 ca        1 1UZ     -0.100000
     20 H1         -0.4120    0.4970   -1.0430 ha        1 1UZ      0.169000
     21 H2          4.1580    0.2240    0.6160 ha        1 1UZ      0.162000
     22 H3          5.1080   -0.1740    2.9050 ha        1 1UZ      0.143000
     23 H4          3.5850   -0.5350    4.8450 ha        1 1UZ      0.141000
     24 H5          1.0990   -0.5020    4.5190 ha        1 1UZ      0.154000
     25 H6         -2.2290    0.7600    3.1570 ha        1 1UZ      0.154000
     26 H7         -4.7240    0.7650    3.2260 ha        1 1UZ      0.152000
     27 H8         -4.8330   -0.6150   -0.8840 ha        1 1UZ      0.152000
     28 H9         -2.3460   -0.6210   -0.9490 ha        1 1UZ      0.154000
@<TRIPOS>BOND
     1    1    2 1   
     2    1   11 2   
     3    1   20 1   
     4    2    3 2   
     5    2    4 1   
     6    4    5 ar  
     7    4    9 ar  
     8    5    6 ar  
     9    5   21 1   
    10    6    7 ar  
    11    6   22 1   
    12    7    8 ar  
    13    7   23 1   
    14    8    9 ar  
    15    8   24 1   
    16    9   10 1   
    17   10   11 1   
    18   11   12 1   
    19   12   13 ar  
    20   12   19 ar  
    21   13   14 ar  
    22   13   25 1   
    23   14   15 ar  
    24   14   26 1   
    25   15   16 1   
    26   15   18 ar  
    27   16   17 3   
    28   18   19 ar  
    29   18   27 1   
    30   19   28 1   
@<TRIPOS>SUBSTRUCTURE
     1 1UZ         1 TEMP              0 ****  ****    0 ROOT
