@<TRIPOS>MOLECULE
1UZ
   28    21     1     0     0
SMALL
bcc


@<TRIPOS>ATOM
      1 CAC         0.5850   -0.0840   -1.6230 c1        1 1UZ     -0.289000
      2 CAB         2.0290   -0.0460   -1.6070 c1        1 1UZ      0.310000
      3 OAA         2.6460    0.0380   -2.6500 o         1 1UZ     -0.300000
      4 CAK         2.7610    0.0110   -0.2940 c2        1 1UZ     -0.194000
      5 CAJ         4.1580    0.0320   -0.2700 c2        1 1UZ     -0.046000
      6 CAI         4.8350    0.0260    0.9500 c1        1 1UZ     -0.164000
      7 CAH         4.1140   -0.0010    2.1540 c1        1 1UZ     -0.107000
      8 CAG         2.7190   -0.0220    2.1330 c1        1 1UZ     -0.107000
      9 CAF         2.0390   -0.0160    0.9120 c1        1 1UZ      0.096000
     10 OAE         0.5460    0.0520    0.8920 o         1 1UZ     -0.136000
     11 CAD        -0.1630   -0.0590   -0.3520 c1        1 1UZ      0.130000
     12 CAL        -1.6750   -0.0290   -0.3650 c1        1 1UZ     -0.016500
     13 CAM        -2.3930   -1.2120   -0.2790 c1        1 1UZ     -0.107000
     14 CAN        -3.7780   -1.1810   -0.2340 c1        1 1UZ     -0.107000
     15 CAO        -4.4450    0.0330   -0.2760 c1        1 1UZ     -0.016500
     16 CAR        -5.9570    0.0670   -0.2240 c1        1 1UZ     -0.103000
     17 NAS        -7.0960    0.0930   -0.1860 n1        1 1UZ     -0.024000
     18 CAP        -3.7280    1.2160   -0.3620 c1        1 1UZ     -0.101000
     19 CAQ        -2.3430    1.1850   -0.4060 c1        1 1UZ     -0.101000
     20 H1          0.1070   -0.1600   -2.4710 ha        1 1UZ      0.169000
     21 H2          4.6600    0.0510   -1.1070 ha        1 1UZ      0.162000
     22 H3          5.8110    0.0410    0.9660 ha        1 1UZ      0.143000
     23 H4          4.5890   -0.0050    3.0070 ha        1 1UZ      0.151000
     24 H5          2.2190   -0.0410    2.9710 ha        1 1UZ      0.151000
     25 H6         -1.9220   -2.0660   -0.2490 ha        1 1UZ      0.151000
     26 H7         -4.2830   -2.0140   -0.1730 ha        1 1UZ      0.151000
     27 H8         -4.1980    2.0710   -0.3910 ha        1 1UZ      0.151500
     28 H9         -1.8380    2.0180   -0.4670 ha        1 1UZ      0.151500
@<TRIPOS>BOND
     1    1   11 1   
     2    1   20 1   
     3    2    3 1   
     4    2    4 1   
     5    4    5 1   
     6    4    9 1   
     7    5    6 1   
     8    5   21 1   
     9    6   22 1   
    10    7    8 1   
    11    7   23 1   
    12    8   24 1   
    13   10   11 1   
    14   12   19 1   
    15   13   14 1   
    16   13   25 1   
    17   14   26 1   
    18   15   18 1   
    19   16   17 1   
    20   18   27 1   
    21   19   28 1   
@<TRIPOS>SUBSTRUCTURE
     1 1UZ         1 TEMP              0 ****  ****    0 ROOT
