@<TRIPOS>MOLECULE
1UZ
   28    30     1     0     0
SMALL
bcc


@<TRIPOS>ATOM
      1 CAC         0.0580   -0.2630   -0.0970 cc        1 1UZ     -0.308200
      2 CAB         1.5210   -0.2720   -0.0800 c         1 1UZ      0.588900
      3 OAA         2.2010   -0.4250   -1.1050 o         1 1UZ     -0.539100
      4 CAK         2.1050   -0.0830    1.2550 ca        1 1UZ     -0.214600
      5 CAJ         3.4950   -0.0690    1.4530 ca        1 1UZ     -0.046000
      6 CAI         4.0210    0.1120    2.7260 ca        1 1UZ     -0.164000
      7 CAH         3.1690    0.2820    3.8240 ca        1 1UZ     -0.077000
      8 CAG         1.7900    0.2730    3.6600 ca        1 1UZ     -0.158000
      9 CAF         1.2660    0.0880    2.3670 ca        1 1UZ      0.141100
     10 OAE        -0.1180    0.0920    2.2850 os        1 1UZ     -0.225200
     11 CAD        -0.6740   -0.0860    1.0260 cd        1 1UZ      0.185900
     12 CAL        -2.1380   -0.0690    1.0840 ca        1 1UZ     -0.051800
     13 CAM        -2.8080   -0.4850    2.2430 ca        1 1UZ     -0.100000
     14 CAN        -4.2000   -0.4840    2.2880 ca        1 1UZ     -0.097500
     15 CAO        -4.9340   -0.0610    1.1700 ca        1 1UZ      0.003000
     16 CAR        -6.3550   -0.0600    1.2120 cg        1 1UZ      0.226800
     17 NAS        -7.5180   -0.0600    1.2470 n1        1 1UZ     -0.349800
     18 CAP        -4.2670    0.3620    0.0120 ca        1 1UZ     -0.097500
     19 CAQ        -2.8750    0.3600   -0.0290 ca        1 1UZ     -0.100000
     20 H1         -0.4250   -0.4180   -1.0740 ha        1 1UZ      0.169000
     21 H2          4.1520   -0.2040    0.5770 ha        1 1UZ      0.162000
     22 H3          5.1110    0.1220    2.8750 ha        1 1UZ      0.143000
     23 H4          3.5950    0.4260    4.8290 ha        1 1UZ      0.141000
     24 H5          1.1070    0.4070    4.5110 ha        1 1UZ      0.154000
     25 H6         -2.2280   -0.8120    3.1210 ha        1 1UZ      0.154000
     26 H7         -4.7220   -0.8150    3.1980 ha        1 1UZ      0.152000
     27 H8         -4.8430    0.6990   -0.8640 ha        1 1UZ      0.152000
     28 H9         -2.3560    0.7030   -0.9370 ha        1 1UZ      0.154000
@<TRIPOS>BOND
     1    1    2 1   
     2    1   11 2   
     3    1   20 1   
     4    2    3 2   
     5    2    4 1   
     6    4    5 ar  
     7    4    9 ar  
     8    5    6 ar  
     9    5   21 1   
    10    6    7 ar  
    11    6   22 1   
    12    7    8 ar  
    13    7   23 1   
    14    8    9 ar  
    15    8   24 1   
    16    9   10 1   
    17   10   11 1   
    18   11   12 1   
    19   12   13 ar  
    20   12   19 ar  
    21   13   14 ar  
    22   13   25 1   
    23   14   15 ar  
    24   14   26 1   
    25   15   16 1   
    26   15   18 ar  
    27   16   17 3   
    28   18   19 ar  
    29   18   27 1   
    30   19   28 1   
@<TRIPOS>SUBSTRUCTURE
     1 1UZ         1 TEMP              0 ****  ****    0 ROOT
