@<TRIPOS>MOLECULE
1UZ
   28    30     1     0     0
SMALL
bcc


@<TRIPOS>ATOM
      1 CAC        -0.7120    1.5700    0.2740 cc        1 1UZ     -0.308200
      2 CAB        -2.1680    1.7150    0.3030 c         1 1UZ      0.588900
      3 OAA        -2.7280    2.8050    0.4840 o         1 1UZ     -0.539100
      4 CAK        -2.8990    0.4560    0.1000 ca        1 1UZ     -0.214600
      5 CAJ        -4.3020    0.4140    0.1020 ca        1 1UZ     -0.046000
      6 CAI        -4.9680   -0.7890   -0.0930 ca        1 1UZ     -0.164000
      7 CAH        -4.2450   -1.9720   -0.2950 ca        1 1UZ     -0.077000
      8 CAG        -2.8560   -1.9620   -0.3030 ca        1 1UZ     -0.158000
      9 CAF        -2.1910   -0.7380   -0.1030 ca        1 1UZ      0.141100
     10 OAE        -0.8050   -0.8100   -0.1250 os        1 1UZ     -0.225200
     11 CAD        -0.1110    0.3760    0.0680 cd        1 1UZ      0.185900
     12 CAL         1.3370    0.1570    0.0280 ca        1 1UZ     -0.051800
     13 CAM         1.8800   -1.0770    0.4140 ca        1 1UZ     -0.100000
     14 CAN         3.2580   -1.2750    0.3920 ca        1 1UZ     -0.097500
     15 CAO         4.1060   -0.2380   -0.0210 ca        1 1UZ      0.003000
     16 CAR         5.5130   -0.4370   -0.0440 cg        1 1UZ      0.226800
     17 NAS         6.6650   -0.6000   -0.0620 n1        1 1UZ     -0.349800
     18 CAP         3.5660    0.9950   -0.4150 ca        1 1UZ     -0.097500
     19 CAQ         2.1880    1.1890   -0.3920 ca        1 1UZ     -0.100000
     20 H1         -0.1220    2.4840    0.4390 ha        1 1UZ      0.169000
     21 H2         -4.8560    1.3540    0.2620 ha        1 1UZ      0.162000
     22 H3         -6.0670   -0.8160   -0.0900 ha        1 1UZ      0.143000
     23 H4         -4.7820   -2.9210   -0.4500 ha        1 1UZ      0.141000
     24 H5         -2.2740   -2.8800   -0.4620 ha        1 1UZ      0.154000
     25 H6          1.2100   -1.8910    0.7330 ha        1 1UZ      0.154000
     26 H7          3.6800   -2.2440    0.6990 ha        1 1UZ      0.152000
     27 H8          4.2310    1.8080   -0.7440 ha        1 1UZ      0.152000
     28 H9          1.7680    2.1560   -0.7110 ha        1 1UZ      0.154000
@<TRIPOS>BOND
     1    1    2 1   
     2    1   11 2   
     3    1   20 1   
     4    2    3 2   
     5    2    4 1   
     6    4    5 ar  
     7    4    9 ar  
     8    5    6 ar  
     9    5   21 1   
    10    6    7 ar  
    11    6   22 1   
    12    7    8 ar  
    13    7   23 1   
    14    8    9 ar  
    15    8   24 1   
    16    9   10 1   
    17   10   11 1   
    18   11   12 1   
    19   12   13 ar  
    20   12   19 ar  
    21   13   14 ar  
    22   13   25 1   
    23   14   15 ar  
    24   14   26 1   
    25   15   16 1   
    26   15   18 ar  
    27   16   17 3   
    28   18   19 ar  
    29   18   27 1   
    30   19   28 1   
@<TRIPOS>SUBSTRUCTURE
     1 1UZ         1 TEMP              0 ****  ****    0 ROOT
