@<TRIPOS>MOLECULE
1V0
   29    21     1     0     0
SMALL
bcc


@<TRIPOS>ATOM
      1 CAC         0.8110   -0.1010   -1.5820 c1        1 1V0     -0.278000
      2 CAE         2.2560   -0.0980   -1.5430 c1        1 1V0      0.309000
      3 OAL         2.8910   -0.0370   -2.5760 o         1 1V0     -0.295000
      4 CAF         2.9670   -0.0450   -0.2180 c2        1 1V0     -0.194000
      5 CAQ         4.3640   -0.0370   -0.1710 c2        1 1V0     -0.045000
      6 CAS         5.0220    0.0510    1.0570 c1        1 1V0     -0.162000
      7 CAT         4.2800    0.1320    2.2470 c1        1 1V0     -0.102250
      8 CAR         2.8850    0.1240    2.2030 c1        1 1V0     -0.102250
      9 CAG         2.2250    0.0360    0.9740 c1        1 1V0      0.096000
     10 OAD         0.7340   -0.0630    0.9350 o         1 1V0     -0.136000
     11 CAA         0.0450   -0.0450   -0.3230 c1        1 1V0      0.120000
     12 CAI        -1.4690   -0.0280   -0.3580 c1        1 1V0     -0.066500
     13 CAO        -2.1470    1.1780   -0.4250 c1        1 1V0     -0.102250
     14 CAM        -3.5330    1.1940   -0.4430 c1        1 1V0     -0.102250
     15 CAH        -4.2410    0.0030   -0.3930 c1        1 1V0     -0.066500
     16 NAB        -5.6580    0.0220   -0.3640 n1        1 1V0      0.566000
     17 OAK        -6.3560   -1.1520   -0.3680 os        1 1V0     -0.352000
     18 OAJ        -6.2540    1.0870   -0.3070 o         1 1V0     -0.353000
     19 CAN        -3.5620   -1.2030   -0.3260 c1        1 1V0     -0.092500
     20 CAP        -2.1760   -1.2190   -0.3080 c1        1 1V0     -0.092500
     21 H1          0.3450   -0.0890   -2.4400 ha        1 1V0      0.170000
     22 H2          4.8800   -0.0930   -0.9980 ha        1 1V0      0.163000
     23 H3          5.9970    0.0570    1.0890 ha        1 1V0      0.144000
     24 H4          4.7410    0.1930    3.1060 ha        1 1V0      0.159500
     25 H5          2.3710    0.1800    3.0310 ha        1 1V0      0.159500
     26 H6         -1.6490    2.0170   -0.4600 ha        1 1V0      0.159500
     27 H7         -4.0110    2.0440   -0.4900 ha        1 1V0      0.159500
     28 H8         -4.0600   -2.0420   -0.2900 ha        1 1V0      0.167500
     29 H9         -1.6980   -2.0690   -0.2610 ha        1 1V0      0.167500
@<TRIPOS>BOND
     1    1   11 1   
     2    1   21 1   
     3    2    3 1   
     4    2    4 1   
     5    4    5 1   
     6    4    9 1   
     7    5    6 1   
     8    5   22 1   
     9    6   23 1   
    10    7    8 1   
    11    7   24 1   
    12    8   25 1   
    13   10   11 1   
    14   12   20 1   
    15   13   14 1   
    16   13   26 1   
    17   14   27 1   
    18   15   19 1   
    19   16   18 1   
    20   19   28 1   
    21   20   29 1   
@<TRIPOS>SUBSTRUCTURE
     1 1V0         1 TEMP              0 ****  ****    0 ROOT
