@<TRIPOS>MOLECULE
1V0
   29    31     1     0     0
SMALL
bcc


@<TRIPOS>ATOM
      1 CAC        -1.1620    1.5840    0.2910 cc        1 1V0     -0.297200
      2 CAE        -2.6210    1.7110    0.3230 c         1 1V0      0.587900
      3 OAL        -3.1920    2.7930    0.5160 o         1 1V0     -0.534100
      4 CAF        -3.3360    0.4450    0.1060 ca        1 1V0     -0.214600
      5 CAQ        -4.7380    0.3860    0.1080 ca        1 1V0     -0.045000
      6 CAS        -5.3890   -0.8230   -0.1000 ca        1 1V0     -0.162000
      7 CAT        -4.6520   -1.9950   -0.3150 ca        1 1V0     -0.075000
      8 CAR        -3.2640   -1.9680   -0.3220 ca        1 1V0     -0.157000
      9 CAG        -2.6140   -0.7390   -0.1090 ca        1 1V0      0.141100
     10 OAD        -1.2270   -0.7930   -0.1310 os        1 1V0     -0.225200
     11 CAA        -0.5480    0.4000    0.0720 cd        1 1V0      0.175900
     12 CAI         0.9030    0.1980    0.0320 ca        1 1V0     -0.028800
     13 CAO         1.4590   -1.0330    0.4090 ca        1 1V0     -0.108000
     14 CAM         2.8380   -1.2200    0.3880 ca        1 1V0     -0.073000
     15 CAH         3.6660   -0.1630   -0.0180 ca        1 1V0     -0.161200
     16 NAB         5.1420   -0.3540   -0.0420 no        1 1V0      0.311200
     17 OAK         5.8400    0.5590   -0.3950 o         1 1V0     -0.202500
     18 OAJ         5.5950   -1.4160    0.2910 o         1 1V0     -0.202500
     19 CAN         3.1220    1.0720   -0.4060 ca        1 1V0     -0.073000
     20 CAP         1.7410    1.2440   -0.3800 ca        1 1V0     -0.108000
     21 H1         -0.5840    2.5050    0.4630 ha        1 1V0      0.170000
     22 H2         -5.3040    1.3170    0.2780 ha        1 1V0      0.163000
     23 H3         -6.4890   -0.8640   -0.0980 ha        1 1V0      0.144000
     24 H4         -5.1770   -2.9480   -0.4800 ha        1 1V0      0.143000
     25 H5         -2.6700   -2.8770   -0.4900 ha        1 1V0      0.155000
     26 H6          0.7970   -1.8570    0.7210 ha        1 1V0      0.161000
     27 H7          3.2750   -2.1890    0.6880 ha        1 1V0      0.176500
     28 H8          3.7820    1.8960   -0.7280 ha        1 1V0      0.176500
     29 H9          1.3100    2.2090   -0.6920 ha        1 1V0      0.161000
@<TRIPOS>BOND
     1    1    2 1   
     2    1   11 2   
     3    1   21 1   
     4    2    3 2   
     5    2    4 1   
     6    4    5 ar  
     7    4    9 ar  
     8    5    6 ar  
     9    5   22 1   
    10    6    7 ar  
    11    6   23 1   
    12    7    8 ar  
    13    7   24 1   
    14    8    9 ar  
    15    8   25 1   
    16    9   10 1   
    17   10   11 1   
    18   11   12 1   
    19   12   13 ar  
    20   12   20 ar  
    21   13   14 ar  
    22   13   26 1   
    23   14   15 ar  
    24   14   27 1   
    25   15   16 1   
    26   15   19 ar  
    27   16   17 1   
    28   16   18 1   
    29   19   20 ar  
    30   19   28 1   
    31   20   29 1   
@<TRIPOS>SUBSTRUCTURE
     1 1V0         1 TEMP              0 ****  ****    0 ROOT
