@<TRIPOS>MOLECULE
1V0
   29    31     1     0     0
SMALL
bcc


@<TRIPOS>ATOM
      1 CAC         0.0640   -0.2880   -0.0810 cc        1 1V0     -0.297200
      2 CAE         1.5280   -0.3210   -0.0630 c         1 1V0      0.587900
      3 OAL         2.2030   -0.5140   -1.0840 o         1 1V0     -0.534100
      4 CAF         2.1150   -0.1070    1.2670 ca        1 1V0     -0.214600
      5 CAQ         3.5050   -0.1100    1.4640 ca        1 1V0     -0.045000
      6 CAS         4.0350    0.0970    2.7310 ca        1 1V0     -0.162000
      7 CAT         3.1860    0.3110    3.8240 ca        1 1V0     -0.075000
      8 CAR         1.8070    0.3200    3.6610 ca        1 1V0     -0.157000
      9 CAG         1.2810    0.1090    2.3740 ca        1 1V0      0.141100
     10 OAD        -0.1040    0.1320    2.2920 os        1 1V0     -0.225200
     11 CAA        -0.6630   -0.0700    1.0380 cd        1 1V0      0.175900
     12 CAI        -2.1270   -0.0280    1.0960 ca        1 1V0     -0.028800
     13 CAO        -2.8010   -0.4060    2.2660 ca        1 1V0     -0.108000
     14 CAM        -4.1920   -0.3840    2.3180 ca        1 1V0     -0.073000
     15 CAH        -4.9120    0.0240    1.1840 ca        1 1V0     -0.161200
     16 NAB        -6.4000    0.0500    1.2290 no        1 1V0      0.311200
     17 OAK        -7.0040    0.4030    0.2530 o         1 1V0     -0.202500
     18 OAJ        -6.9550   -0.2840    2.2410 o         1 1V0     -0.202500
     19 CAN        -4.2490    0.4120    0.0090 ca        1 1V0     -0.073000
     20 CAP        -2.8580    0.3850   -0.0270 ca        1 1V0     -0.108000
     21 H1         -0.4210   -0.4600   -1.0530 ha        1 1V0      0.170000
     22 H2          4.1600   -0.2800    0.5920 ha        1 1V0      0.163000
     23 H3          5.1250    0.0930    2.8790 ha        1 1V0      0.144000
     24 H4          3.6150    0.4750    4.8250 ha        1 1V0      0.143000
     25 H5          1.1270    0.4880    4.5080 ha        1 1V0      0.155000
     26 H6         -2.2240   -0.7200    3.1510 ha        1 1V0      0.161000
     27 H7         -4.7220   -0.6840    3.2380 ha        1 1V0      0.176500
     28 H8         -4.8240    0.7360   -0.8760 ha        1 1V0      0.176500
     29 H9         -2.3340    0.6980   -0.9450 ha        1 1V0      0.161000
@<TRIPOS>BOND
     1    1    2 1   
     2    1   11 2   
     3    1   21 1   
     4    2    3 2   
     5    2    4 1   
     6    4    5 ar  
     7    4    9 ar  
     8    5    6 ar  
     9    5   22 1   
    10    6    7 ar  
    11    6   23 1   
    12    7    8 ar  
    13    7   24 1   
    14    8    9 ar  
    15    8   25 1   
    16    9   10 1   
    17   10   11 1   
    18   11   12 1   
    19   12   13 ar  
    20   12   20 ar  
    21   13   14 ar  
    22   13   26 1   
    23   14   15 ar  
    24   14   27 1   
    25   15   16 1   
    26   15   19 ar  
    27   16   17 1   
    28   16   18 1   
    29   19   20 ar  
    30   19   28 1   
    31   20   29 1   
@<TRIPOS>SUBSTRUCTURE
     1 1V0         1 TEMP              0 ****  ****    0 ROOT
