@<TRIPOS>MOLECULE
1V1
   27    29     1     0     0
SMALL
bcc


@<TRIPOS>ATOM
      1 CAB         0.0580   -0.2700   -0.0740 cc        1 1V1     -0.315200
      2 CAD         1.5200   -0.3000   -0.0660 c         1 1V1      0.589900
      3 OAH         2.1920   -0.4790   -1.0910 o         1 1V1     -0.543100
      4 CAE         2.1150   -0.1000    1.2640 ca        1 1V1     -0.214600
      5 CAO         3.5060   -0.1050    1.4530 ca        1 1V1     -0.046000
      6 CAQ         4.0420    0.0870    2.7200 ca        1 1V1     -0.165000
      7 CAR         3.1990    0.2870    3.8200 ca        1 1V1     -0.078000
      8 CAP         1.8190    0.2970    3.6640 ca        1 1V1     -0.159000
      9 CAF         1.2860    0.1020    2.3770 ca        1 1V1      0.142100
     10 OAC        -0.0990    0.1260    2.3030 os        1 1V1     -0.225200
     11 CAA        -0.6660   -0.0630    1.0500 cd        1 1V1      0.193900
     12 CAG        -2.1280   -0.0200    1.1170 ca        1 1V1     -0.076800
     13 CAI        -2.7990   -0.3980    2.2880 ca        1 1V1     -0.085000
     14 CAM        -4.1900   -0.3730    2.3410 ca        1 1V1     -0.131500
     15 CAK        -4.9180    0.0370    1.2190 ca        1 1V1      0.035400
     16 CL1        -6.6140    0.0670    1.2790 cl        1 1V1     -0.082400
     17 CAL        -4.2580    0.4230    0.0480 ca        1 1V1     -0.131500
     18 CAJ        -2.8660    0.3960   -0.0010 ca        1 1V1     -0.085000
     19 H1         -0.4340   -0.4330   -1.0450 ha        1 1V1      0.169000
     20 H2          4.1550   -0.2640    0.5760 ha        1 1V1      0.161000
     21 H3          5.1330    0.0820    2.8620 ha        1 1V1      0.142000
     22 H4          3.6340    0.4390    4.8200 ha        1 1V1      0.140000
     23 H5          1.1440    0.4550    4.5160 ha        1 1V1      0.154000
     24 H6         -2.2200   -0.7150    3.1700 ha        1 1V1      0.151000
     25 H7         -4.7120   -0.6750    3.2630 ha        1 1V1      0.153500
     26 H8         -4.8320    0.7500   -0.8330 ha        1 1V1      0.153500
     27 H9         -2.3480    0.7100   -0.9200 ha        1 1V1      0.151000
@<TRIPOS>BOND
     1    1    2 1   
     2    1   11 2   
     3    1   19 1   
     4    2    3 2   
     5    2    4 1   
     6    4    5 ar  
     7    4    9 ar  
     8    5    6 ar  
     9    5   20 1   
    10    6    7 ar  
    11    6   21 1   
    12    7    8 ar  
    13    7   22 1   
    14    8    9 ar  
    15    8   23 1   
    16    9   10 1   
    17   10   11 1   
    18   11   12 1   
    19   12   13 ar  
    20   12   18 ar  
    21   13   14 ar  
    22   13   24 1   
    23   14   15 ar  
    24   14   25 1   
    25   15   16 1   
    26   15   17 ar  
    27   17   18 ar  
    28   17   26 1   
    29   18   27 1   
@<TRIPOS>SUBSTRUCTURE
     1 1V1         1 TEMP              0 ****  ****    0 ROOT
