@<TRIPOS>MOLECULE
1V1
   27    29     1     0     0
SMALL
bcc


@<TRIPOS>ATOM
      1 CAB        -0.8930    1.5710    0.2720 cc        1 1V1     -0.315200
      2 CAD        -2.3480    1.7160    0.3010 c         1 1V1      0.589900
      3 OAH        -2.9100    2.8060    0.4800 o         1 1V1     -0.543100
      4 CAE        -3.0800    0.4560    0.1000 ca        1 1V1     -0.214600
      5 CAO        -4.4820    0.4130    0.1050 ca        1 1V1     -0.046000
      6 CAQ        -5.1480   -0.7910   -0.0870 ca        1 1V1     -0.165000
      7 CAR        -4.4250   -1.9730   -0.2870 ca        1 1V1     -0.078000
      8 CAP        -3.0370   -1.9630   -0.2970 ca        1 1V1     -0.159000
      9 CAF        -2.3710   -0.7390   -0.1010 ca        1 1V1      0.142100
     10 OAC        -0.9870   -0.8100   -0.1250 os        1 1V1     -0.225200
     11 CAA        -0.2910    0.3770    0.0650 cd        1 1V1      0.193900
     12 CAG         1.1560    0.1580    0.0230 ca        1 1V1     -0.076800
     13 CAI         1.7000   -1.0780    0.4010 ca        1 1V1     -0.085000
     14 CAM         3.0780   -1.2760    0.3770 ca        1 1V1     -0.131500
     15 CAK         3.9190   -0.2360   -0.0320 ca        1 1V1      0.035400
     16 CL1         5.6000   -0.4730   -0.0620 cl        1 1V1     -0.082400
     17 CAL         3.3850    0.9980   -0.4190 ca        1 1V1     -0.131500
     18 CAJ         2.0070    1.1920   -0.3930 ca        1 1V1     -0.085000
     19 H1         -0.3030    2.4840    0.4360 ha        1 1V1      0.169000
     20 H2         -5.0360    1.3530    0.2630 ha        1 1V1      0.161000
     21 H3         -6.2480   -0.8180   -0.0830 ha        1 1V1      0.142000
     22 H4         -4.9620   -2.9230   -0.4400 ha        1 1V1      0.140000
     23 H5         -2.4540   -2.8810   -0.4540 ha        1 1V1      0.154000
     24 H6          1.0320   -1.8940    0.7180 ha        1 1V1      0.151000
     25 H7          3.5000   -2.2470    0.6780 ha        1 1V1      0.153500
     26 H8          4.0490    1.8140   -0.7450 ha        1 1V1      0.153500
     27 H9          1.5870    2.1610   -0.7060 ha        1 1V1      0.151000
@<TRIPOS>BOND
     1    1    2 1   
     2    1   11 2   
     3    1   19 1   
     4    2    3 2   
     5    2    4 1   
     6    4    5 ar  
     7    4    9 ar  
     8    5    6 ar  
     9    5   20 1   
    10    6    7 ar  
    11    6   21 1   
    12    7    8 ar  
    13    7   22 1   
    14    8    9 ar  
    15    8   23 1   
    16    9   10 1   
    17   10   11 1   
    18   11   12 1   
    19   12   13 ar  
    20   12   18 ar  
    21   13   14 ar  
    22   13   24 1   
    23   14   15 ar  
    24   14   25 1   
    25   15   16 1   
    26   15   17 ar  
    27   17   18 ar  
    28   17   26 1   
    29   18   27 1   
@<TRIPOS>SUBSTRUCTURE
     1 1V1         1 TEMP              0 ****  ****    0 ROOT
