@<TRIPOS>MOLECULE
1V1
   27    20     1     0     0
SMALL
bcc


@<TRIPOS>ATOM
      1 CAB         0.3290   -0.1060   -1.6030 c1        1 1V1     -0.296000
      2 CAD         1.7730   -0.1000   -1.5880 c1        1 1V1      0.311000
      3 OAH         2.3910   -0.0660   -2.6330 o         1 1V1     -0.304000
      4 CAE         2.5070   -0.0180   -0.2770 c2        1 1V1     -0.194000
      5 CAO         3.9040   -0.0100   -0.2550 c2        1 1V1     -0.046000
      6 CAQ         4.5830    0.0250    0.9640 c1        1 1V1     -0.165000
      7 CAR         3.8630    0.0510    2.1690 c1        1 1V1     -0.114500
      8 CAP         2.4670    0.0430    2.1490 c1        1 1V1     -0.114500
      9 CAF         1.7860    0.0090    0.9290 c1        1 1V1      0.097000
     10 OAC         0.2940    0.1020    0.9080 o         1 1V1     -0.136000
     11 CAA        -0.4170   -0.0360   -0.3320 c1        1 1V1      0.138000
     12 CAG        -1.9300   -0.0120   -0.3420 c1        1 1V1     -0.054000
     13 CAI        -2.6420   -1.2010   -0.3650 c1        1 1V1     -0.114500
     14 CAM        -4.0270   -1.1790   -0.3780 c1        1 1V1     -0.114500
     15 CAK        -4.7010    0.0330   -0.3690 c1        1 1V1     -0.054000
     16 CL1        -6.4440    0.0600   -0.3210 cl        1 1V1     -0.004000
     17 CAL        -3.9890    1.2220   -0.3470 c1        1 1V1     -0.106000
     18 CAJ        -2.6040    1.1990   -0.3330 c1        1 1V1     -0.106000
     19 H1         -0.1520   -0.1990   -2.4480 ha        1 1V1      0.169000
     20 H2          4.4060   -0.0280   -1.0920 ha        1 1V1      0.161000
     21 H3          5.5590    0.0300    0.9790 ha        1 1V1      0.142000
     22 H4          4.3380    0.0750    3.0210 ha        1 1V1      0.149000
     23 H5          1.9670    0.0620    2.9870 ha        1 1V1      0.149000
     24 H6         -2.1670   -2.0540   -0.3710 ha        1 1V1      0.149000
     25 H7         -4.5290   -2.0160   -0.3940 ha        1 1V1      0.149000
     26 H8         -4.4640    2.0750   -0.3400 ha        1 1V1      0.153500
     27 H9         -2.1020    2.0370   -0.3170 ha        1 1V1      0.153500
@<TRIPOS>BOND
     1    1   11 1   
     2    1   19 1   
     3    2    3 1   
     4    2    4 1   
     5    4    5 1   
     6    4    9 1   
     7    5    6 1   
     8    5   20 1   
     9    6   21 1   
    10    7    8 1   
    11    7   22 1   
    12    8   23 1   
    13   10   11 1   
    14   12   18 1   
    15   13   14 1   
    16   13   24 1   
    17   14   25 1   
    18   15   17 1   
    19   17   26 1   
    20   18   27 1   
@<TRIPOS>SUBSTRUCTURE
     1 1V1         1 TEMP              0 ****  ****    0 ROOT
