@<TRIPOS>MOLECULE
1V2
   56    59     1     0     0
SMALL
bcc


@<TRIPOS>ATOM
      1 C13        -5.8900    0.5570    0.8140 ca        1 1V2     -0.086000
      2 C14        -7.1250    0.3990    1.4530 ca        1 1V2      0.012400
      3 CL1        -7.8090    1.7300    2.2530 cl        1 1V2     -0.068400
      4 C15        -7.7770   -0.8420    1.4270 ca        1 1V2      0.021400
      5 CL2        -9.2750   -1.0650    2.1900 cl        1 1V2     -0.068400
      6 C16        -7.1850   -1.9210    0.7610 ca        1 1V2     -0.122000
      7 C17        -5.9580   -1.7630    0.1260 ca        1 1V2     -0.111000
      8 C12        -5.3040   -0.5230    0.1430 ca        1 1V2     -0.107500
      9 C11        -4.0240   -0.3690   -0.5430 cc        1 1V2      0.408800
     10 N3         -3.0690    0.5440   -0.1060 nc        1 1V2     -0.659000
     11 C10        -3.6470   -1.1100   -1.6640 cd        1 1V2     -0.270400
     12 S1         -2.1380   -0.6760   -2.2000 ss        1 1V2     -0.046300
     13 C9         -1.9890    0.4880   -0.9100 cd        1 1V2      0.589300
     14 N1         -0.8760    1.3470   -0.8500 nh        1 1V2     -0.675300
     15 C1          0.3770    0.8150   -0.4440 ca        1 1V2      0.117600
     16 C3          0.8140   -0.4630   -0.8450 ca        1 1V2     -0.162500
     17 C5          2.0920   -0.9050   -0.5200 ca        1 1V2     -0.098500
     18 C2          1.2630    1.6270    0.3010 ca        1 1V2     -0.162500
     19 C4          2.5380    1.1730    0.6110 ca        1 1V2     -0.098500
     20 C6          2.9690   -0.0960    0.2070 ca        1 1V2     -0.100300
     21 C7          4.3320   -0.5750    0.5640 c3        1 1V2     -0.037100
     22 C8          5.3810    0.1150   -0.3140 c3        1 1V2      0.173800
     23 N2          6.7590   -0.0490    0.1240 n3        1 1V2     -0.717600
     24 C22         7.1070   -1.4210    0.4670 c3        1 1V2      0.174800
     25 C21         8.5310   -1.5720    0.9950 c3        1 1V2     -0.115400
     26 C20         9.5340   -0.9710    0.0200 c3        1 1V2      0.141100
     27 O2         10.8440   -0.9350    0.5720 oh        1 1V2     -0.596800
     28 C19         9.1530    0.4690   -0.2990 c3        1 1V2     -0.073400
     29 C18         7.7140    0.5320   -0.8280 c3        1 1V2      0.193500
     30 C23         7.4150    1.9930   -1.2200 c3        1 1V2      0.132400
     31 O1          7.3750    2.7980   -0.0580 oh        1 1V2     -0.580800
     32 H1         -5.3820    1.5350    0.8440 ha        1 1V2      0.168000
     33 H2         -7.6910   -2.8990    0.7430 ha        1 1V2      0.152000
     34 H3         -5.4970   -2.6220   -0.3870 ha        1 1V2      0.141000
     35 H4         -4.2610   -1.8740   -2.1380 h4        1 1V2      0.185000
     36 H5         -1.0860    2.2110   -0.3760 hn        1 1V2      0.417800
     37 H6          0.1470   -1.1280   -1.4190 ha        1 1V2      0.136500
     38 H7          2.4110   -1.9080   -0.8420 ha        1 1V2      0.138500
     39 H8          0.9520    2.6280    0.6390 ha        1 1V2      0.136500
     40 H9          3.2200    1.8180    1.1900 ha        1 1V2      0.138500
     41 H10         4.5320   -0.3510    1.6460 hc        1 1V2      0.056200
     42 H11         4.3930   -1.6870    0.4280 hc        1 1V2      0.056200
     43 H12         5.2360   -0.2400   -1.3780 h1        1 1V2      0.037200
     44 H13         5.1730    1.2250   -0.2860 h1        1 1V2      0.037200
     45 H15         6.4040   -1.7600    1.2790 h1        1 1V2      0.030700
     46 H16         6.9740   -2.1160   -0.4160 h1        1 1V2      0.030700
     47 H17         8.6310   -1.0600    1.9870 hc        1 1V2      0.055200
     48 H18         8.7430   -2.6620    1.1450 hc        1 1V2      0.055200
     49 H19         9.5570   -1.5830   -0.9270 h1        1 1V2      0.026700
     50 H20        11.0330   -1.8230    0.8970 ho        1 1V2      0.398000
     51 H21         9.2520    1.1040    0.6190 hc        1 1V2      0.069700
     52 H22         9.8480    0.8760   -1.0770 hc        1 1V2      0.069700
     53 H23         7.6790   -0.0480   -1.8060 h1        1 1V2      0.016700
     54 H24         8.2360    2.3460   -1.9030 h1        1 1V2      0.022200
     55 H25         6.4390    2.0630   -1.7730 h1        1 1V2      0.022200
     56 H26         7.2260    3.7020   -0.3600 ho        1 1V2      0.395000
@<TRIPOS>BOND
     1    1    2 ar  
     2    1    8 ar  
     3    1   32 1   
     4    2    3 1   
     5    2    4 ar  
     6    4    5 1   
     7    4    6 ar  
     8    6    7 ar  
     9    6   33 1   
    10    7    8 ar  
    11    7   34 1   
    12    8    9 1   
    13    9   10 1   
    14    9   11 2   
    15   10   13 2   
    16   11   12 1   
    17   11   35 1   
    18   12   13 1   
    19   13   14 1   
    20   14   15 1   
    21   14   36 1   
    22   15   16 ar  
    23   15   18 ar  
    24   16   17 ar  
    25   16   37 1   
    26   17   20 ar  
    27   17   38 1   
    28   18   19 ar  
    29   18   39 1   
    30   19   20 ar  
    31   19   40 1   
    32   20   21 1   
    33   21   22 1   
    34   21   41 1   
    35   21   42 1   
    36   22   23 1   
    37   22   43 1   
    38   22   44 1   
    39   23   24 1   
    40   23   29 1   
    41   24   25 1   
    42   24   45 1   
    43   24   46 1   
    44   25   26 1   
    45   25   47 1   
    46   25   48 1   
    47   26   27 1   
    48   26   28 1   
    49   26   49 1   
    50   27   50 1   
    51   28   29 1   
    52   28   51 1   
    53   28   52 1   
    54   29   30 1   
    55   29   53 1   
    56   30   31 1   
    57   30   54 1   
    58   30   55 1   
    59   31   56 1   
@<TRIPOS>SUBSTRUCTURE
     1 1V2         1 TEMP              0 ****  ****    0 ROOT
