@<TRIPOS>MOLECULE
1V2
   56    59     1     0     0
SMALL
bcc


@<TRIPOS>ATOM
      1 C13        -0.2190   -0.9350    0.1150 ca        1 1V2     -0.086000
      2 C14         0.8890   -1.7350    0.4120 ca        1 1V2      0.012400
      3 CL1         1.5280   -2.7330   -0.8030 cl        1 1V2     -0.068400
      4 C15         1.4560   -1.7060    1.6950 ca        1 1V2      0.021400
      5 CL2         2.8000   -2.6630    2.0850 cl        1 1V2     -0.068400
      6 C16         0.9040   -0.8740    2.6760 ca        1 1V2     -0.122000
      7 C17        -0.1970   -0.0780    2.3800 ca        1 1V2     -0.111000
      8 C12        -0.7640   -0.0980    1.0970 ca        1 1V2     -0.107500
      9 C11        -1.9100    0.7550    0.7970 cc        1 1V2      0.408800
     10 N3         -2.8600    0.3920   -0.1530 nc        1 1V2     -0.659000
     11 C10        -2.1580    1.9760    1.4270 cd        1 1V2     -0.270400
     12 S1         -3.5350    2.6930    0.8410 ss        1 1V2     -0.046300
     13 C9         -3.8040    1.3500   -0.2370 cd        1 1V2      0.589300
     14 N1         -4.8550    1.3860   -1.1730 nh        1 1V2     -0.675300
     15 C1         -6.1870    1.2160   -0.7100 ca        1 1V2      0.117600
     16 C3         -6.6400    1.7900    0.4940 ca        1 1V2     -0.162000
     17 C5         -7.9790    1.6950    0.8590 ca        1 1V2     -0.098500
     18 C2         -7.1210    0.5390   -1.5280 ca        1 1V2     -0.162000
     19 C4         -8.4560    0.4600   -1.1520 ca        1 1V2     -0.098500
     20 C6         -8.9020    1.0350    0.0440 ca        1 1V2     -0.100300
     21 C7        -10.3320    0.9250    0.4410 c3        1 1V2     -0.037100
     22 C8        -11.1890    1.8750   -0.4000 c3        1 1V2      0.173800
     23 N2        -12.6250    1.6560   -0.3090 n3        1 1V2     -0.717600
     24 C22       -13.1110    1.5010    1.0550 c3        1 1V2      0.174800
     25 C21       -14.6040    1.1990    1.1370 c3        1 1V2     -0.115400
     26 C20       -15.4080    2.2450    0.3760 c3        1 1V2      0.141100
     27 O2        -16.7810    1.8850    0.2840 oh        1 1V2     -0.596800
     28 C19       -14.8890    2.3670   -1.0510 c3        1 1V2     -0.073400
     29 C18       -13.3860    2.6750   -1.0440 c3        1 1V2      0.193500
     30 C23       -12.9350    2.8780   -2.5050 c3        1 1V2      0.132400
     31 O1        -13.0170    1.6490   -3.2020 oh        1 1V2     -0.580800
     32 H1         -0.6600   -0.9680   -0.8940 ha        1 1V2      0.168000
     33 H2          1.3420   -0.8520    3.6860 ha        1 1V2      0.152000
     34 H3         -0.6290    0.5650    3.1620 ha        1 1V2      0.141000
     35 H4         -1.5290    2.4140    2.2000 h4        1 1V2      0.184000
     36 H5         -4.6650    0.8160   -1.9810 hn        1 1V2      0.417800
     37 H6         -5.9390    2.3170    1.1620 ha        1 1V2      0.136500
     38 H7         -8.3110    2.1490    1.8060 ha        1 1V2      0.138500
     39 H8         -6.8010    0.0700   -2.4710 ha        1 1V2      0.136500
     40 H9         -9.1730   -0.0690   -1.8000 ha        1 1V2      0.138500
     41 H10       -10.6770   -0.1340    0.2940 hc        1 1V2      0.056200
     42 H11       -10.4450    1.1720    1.5300 hc        1 1V2      0.056200
     43 H12       -10.9100    2.9360   -0.1250 h1        1 1V2      0.037200
     44 H13       -10.9150    1.7130   -1.4840 h1        1 1V2      0.037200
     45 H15       -12.5610    0.6330    1.5170 h1        1 1V2      0.030700
     46 H16       -12.8930    2.4180    1.6800 h1        1 1V2      0.030700
     47 H17       -14.8180    0.1870    0.7050 hc        1 1V2      0.055200
     48 H18       -14.9090    1.1860    2.2150 hc        1 1V2      0.055200
     49 H19       -15.3290    3.2400    0.9010 h1        1 1V2      0.026700
     50 H20       -17.0740    1.6780    1.1780 ho        1 1V2      0.398000
     51 H21       -15.0820    1.4150   -1.6110 hc        1 1V2      0.069700
     52 H22       -15.4320    3.1930   -1.5760 hc        1 1V2      0.069700
     53 H23       -13.2430    3.6890   -0.5490 h1        1 1V2      0.016700
     54 H24       -11.8860    3.2770   -2.5430 h1        1 1V2      0.022200
     55 H25       -13.6210    3.6340   -2.9790 h1        1 1V2      0.022200
     56 H26       -12.7660    1.8390   -4.1140 ho        1 1V2      0.395000
@<TRIPOS>BOND
     1    1    2 ar  
     2    1    8 ar  
     3    1   32 1   
     4    2    3 1   
     5    2    4 ar  
     6    4    5 1   
     7    4    6 ar  
     8    6    7 ar  
     9    6   33 1   
    10    7    8 ar  
    11    7   34 1   
    12    8    9 1   
    13    9   10 1   
    14    9   11 2   
    15   10   13 2   
    16   11   12 1   
    17   11   35 1   
    18   12   13 1   
    19   13   14 1   
    20   14   15 1   
    21   14   36 1   
    22   15   16 ar  
    23   15   18 ar  
    24   16   17 ar  
    25   16   37 1   
    26   17   20 ar  
    27   17   38 1   
    28   18   19 ar  
    29   18   39 1   
    30   19   20 ar  
    31   19   40 1   
    32   20   21 1   
    33   21   22 1   
    34   21   41 1   
    35   21   42 1   
    36   22   23 1   
    37   22   43 1   
    38   22   44 1   
    39   23   24 1   
    40   23   29 1   
    41   24   25 1   
    42   24   45 1   
    43   24   46 1   
    44   25   26 1   
    45   25   47 1   
    46   25   48 1   
    47   26   27 1   
    48   26   28 1   
    49   26   49 1   
    50   27   50 1   
    51   28   29 1   
    52   28   51 1   
    53   28   52 1   
    54   29   30 1   
    55   29   53 1   
    56   30   31 1   
    57   30   54 1   
    58   30   55 1   
    59   31   56 1   
@<TRIPOS>SUBSTRUCTURE
     1 1V2         1 TEMP              0 ****  ****    0 ROOT
