@<TRIPOS>MOLECULE
1V2
   57    60     1     0     0
SMALL
bcc


@<TRIPOS>ATOM
      1 C13        -0.7270   -1.3010   -0.2180 ca        1 1V2     -0.078000
      2 C14         0.5360   -1.8960   -0.1320 ca        1 1V2      0.010400
      3 CL1         1.3380   -2.3170   -1.5620 cl        1 1V2     -0.040400
      4 C15         1.1170   -2.1350    1.1240 ca        1 1V2      0.040400
      5 CL2         2.6400   -2.8530    1.2620 cl        1 1V2     -0.030400
      6 C16         0.4240   -1.7720    2.2870 ca        1 1V2     -0.116000
      7 C17        -0.8310   -1.1820    2.2010 ca        1 1V2     -0.098000
      8 C12        -1.4160   -0.9460    0.9480 ca        1 1V2     -0.152500
      9 C11        -2.7400   -0.3370    0.8740 cc        1 1V2      0.445800
     10 N3         -3.1230    0.4710   -0.1730 nc        1 1V2     -0.592000
     11 C10        -3.7440   -0.5100    1.8520 cd        1 1V2     -0.272400
     12 S1         -5.1120    0.3110    1.4800 ss        1 1V2      0.196700
     13 C9         -4.4020    0.8880    0.0420 cd        1 1V2      0.314300
     14 N1         -5.0620    1.7610   -0.9210 n4        1 1V2     -0.563100
     15 C1         -6.3870    2.2060   -0.4760 ca        1 1V2     -0.095400
     16 C3         -6.5110    3.3960    0.2640 ca        1 1V2     -0.095000
     17 C5         -7.7780    3.8340    0.6330 ca        1 1V2     -0.113500
     18 C2         -7.5280    1.4670   -0.8400 ca        1 1V2     -0.095000
     19 C4         -8.7840    1.9230   -0.4570 ca        1 1V2     -0.113500
     20 C6         -8.9260    3.1080    0.2790 ca        1 1V2     -0.004300
     21 C7        -10.2630    3.5910    0.7150 c3        1 1V2     -0.056100
     22 C8        -11.3560    3.4390   -0.3530 c3        1 1V2      0.165800
     23 N2        -12.2100    2.2680   -0.1740 n3        1 1V2     -0.725600
     24 C22       -13.1160    2.4570    0.9610 c3        1 1V2      0.164800
     25 C21       -14.0230    1.2660    1.2350 c3        1 1V2     -0.117400
     26 C20       -14.8200    0.9200   -0.0150 c3        1 1V2      0.143100
     27 O2        -15.5340   -0.2970    0.1510 oh        1 1V2     -0.592800
     28 C19       -13.8730    0.7020   -1.1870 c3        1 1V2     -0.079400
     29 C18       -12.9460    1.9090   -1.3970 c3        1 1V2      0.139500
     30 C23       -12.0420    1.5770   -2.6050 c3        1 1V2      0.129400
     31 O1        -11.0010    0.6690   -2.3150 oh        1 1V2     -0.613800
     32 H1         -1.1720   -1.1170   -1.2090 ha        1 1V2      0.161000
     33 H2          0.8800   -1.9540    3.2740 ha        1 1V2      0.166000
     34 H3         -1.3590   -0.8940    3.1230 ha        1 1V2      0.141000
     35 H4         -3.6120   -1.1320    2.7430 h4        1 1V2      0.217000
     36 H5         -4.4660    2.5880   -1.0840 hn        1 1V2      0.469300
     37 H6         -5.6260    3.9890    0.5490 ha        1 1V2      0.159000
     38 H7         -7.8750    4.7690    1.2090 ha        1 1V2      0.189000
     39 H8         -7.4500    0.5390   -1.4310 ha        1 1V2      0.159000
     40 H9         -9.6850    1.3470   -0.7540 ha        1 1V2      0.189000
     41 H10       -10.1970    4.6810    0.9830 hc        1 1V2      0.075700
     42 H11       -10.5270    3.0380    1.6600 hc        1 1V2      0.075700
     43 H12       -10.8530    3.3710   -1.3580 h1        1 1V2      0.047200
     44 H13       -11.9670    4.3910   -0.3490 h1        1 1V2      0.047200
     45 H15       -12.4860    2.6380    1.8760 h1        1 1V2      0.036700
     46 H16       -13.7660    3.3710    0.8120 h1        1 1V2      0.036700
     47 H17       -14.7140    1.5270    2.0760 hc        1 1V2      0.061200
     48 H18       -13.4210    0.3740    1.5500 hc        1 1V2      0.061200
     49 H19       -15.5440    1.7510   -0.2500 h1        1 1V2      0.039700
     50 H20       -16.1440   -0.1650    0.8860 ho        1 1V2      0.408000
     51 H21       -13.2750   -0.2270   -0.9980 hc        1 1V2      0.064200
     52 H22       -14.4730    0.5410   -2.1200 hc        1 1V2      0.064200
     53 H23       -13.5940    2.7830   -1.7230 h1        1 1V2      0.038700
     54 H24       -12.6940    1.1600   -3.4220 h1        1 1V2      0.053700
     55 H25       -11.5220    2.4910   -2.9980 h1        1 1V2      0.053700
     56 H26       -11.4040   -0.1150   -1.9200 ho        1 1V2      0.413000
     57 H121       -5.1600    1.2510   -1.8140 hn        1 1V2      0.469300
@<TRIPOS>BOND
     1    1    2 ar  
     2    1    8 ar  
     3    1   32 1   
     4    2    3 1   
     5    2    4 ar  
     6    4    5 1   
     7    4    6 ar  
     8    6    7 ar  
     9    6   33 1   
    10    7    8 ar  
    11    7   34 1   
    12    8    9 1   
    13    9   10 1   
    14    9   11 2   
    15   10   13 2   
    16   11   12 1   
    17   11   35 1   
    18   12   13 1   
    19   13   14 1   
    20   14   15 1   
    21   14   36 1   
    22   14   57 1   
    23   15   16 ar  
    24   15   18 ar  
    25   16   17 ar  
    26   16   37 1   
    27   17   20 ar  
    28   17   38 1   
    29   18   19 ar  
    30   18   39 1   
    31   19   20 ar  
    32   19   40 1   
    33   20   21 1   
    34   21   22 1   
    35   21   41 1   
    36   21   42 1   
    37   22   23 1   
    38   22   43 1   
    39   22   44 1   
    40   23   24 1   
    41   23   29 1   
    42   24   25 1   
    43   24   45 1   
    44   24   46 1   
    45   25   26 1   
    46   25   47 1   
    47   25   48 1   
    48   26   27 1   
    49   26   28 1   
    50   26   49 1   
    51   27   50 1   
    52   28   29 1   
    53   28   51 1   
    54   28   52 1   
    55   29   30 1   
    56   29   53 1   
    57   30   31 1   
    58   30   54 1   
    59   30   55 1   
    60   31   56 1   
@<TRIPOS>SUBSTRUCTURE
     1 1V2         1 TEMP              0 ****  ****    0 ROOT
