@<TRIPOS>MOLECULE
1V2
   56    48     1     0     0
SMALL
bcc


@<TRIPOS>ATOM
      1 C13         6.4740   -2.7230   -2.5140 c1        1 1V2     -0.105000
      2 C14         7.3440   -3.5620   -3.1940 c1        1 1V2     -0.065000
      3 CL1         6.9220   -5.2330   -3.4490 cl        1 1V2      0.009500
      4 C15         8.5390   -3.0650   -3.6910 c1        1 1V2     -0.056000
      5 CL2         9.6070   -4.1060   -4.5930 cl        1 1V2      0.009500
      6 C16         8.8630   -1.7300   -3.5100 c2        1 1V2     -0.123000
      7 C17         7.9930   -0.8920   -2.8310 c1        1 1V2     -0.089000
      8 C12         6.7980   -1.3890   -2.3330 c1        1 1V2     -0.049000
      9 C11         5.8410   -0.4690   -1.6000 c1        1 1V2     -0.040000
     10 N3          4.7200    0.4090   -2.2620 n2        1 1V2     -0.110000
     11 C10         5.7970   -0.2590   -0.1730 c1        1 1V2     -0.473000
     12 S1          4.6760    0.7330    0.1200 ss        1 1V2      0.570000
     13 C9          4.0330    1.1200   -1.2290 c1        1 1V2     -0.213000
     14 N1          3.0390    2.1170   -1.4240 n2        1 1V2     -0.195000
     15 C1          1.7170    1.9100   -0.9320 c1        1 1V2      0.037000
     16 C3          1.2730    2.6230    0.1720 c1        1 1V2     -0.133000
     17 C5         -0.0580    2.5450    0.5600 c1        1 1V2     -0.133000
     18 C2          0.8300    1.1200   -1.6480 c1        1 1V2     -0.146000
     19 C4         -0.5000    1.0420   -1.2600 c1        1 1V2     -0.105000
     20 C6         -0.9440    1.7550   -0.1560 c1        1 1V2     -0.049000
     21 C7         -2.4280    1.7990    0.1680 c2        1 1V2     -0.123000
     22 C8         -2.8740    0.4440    0.6800 c3        1 1V2     -0.069000
     23 N2         -4.1890    0.5520    1.2280 n3        1 1V2     -0.252000
     24 C22        -5.1780    0.2550    0.1880 c3        1 1V2     -0.069000
     25 C21        -6.5880    0.2090    0.7290 c3        1 1V2     -0.156000
     26 C20        -6.7130   -0.6850    1.9070 c3        1 1V2      0.029000
     27 O2         -8.0490   -0.5320    2.4760 oh        1 1V2     -0.327000
     28 C19        -5.7140   -0.3800    2.9470 c3        1 1V2     -0.190000
     29 C18        -4.3060   -0.3310    2.3970 c3        1 1V2     -0.011000
     30 C23        -3.3800    0.1630    3.4750 c3        1 1V2     -0.022000
     31 O1         -3.6590   -0.5130    4.6800 oh        1 1V2     -0.334000
     32 H1          5.6340   -3.0730   -2.1640 ha        1 1V2      0.142500
     33 H2          9.7030   -1.3800   -3.8600 ha        1 1V2      0.154000
     34 H3          8.2210    0.0480   -2.7040 ha        1 1V2      0.159000
     35 H4          6.3810   -0.6780    0.4870 DU        1 1V2      0.187000
     36 H5          3.2480    2.8910   -1.8570 hn        1 1V2      0.202000
     37 H6          1.8960    3.1790    0.6760 ha        1 1V2      0.134500
     38 H7         -0.3700    3.0470    1.3370 ha        1 1V2      0.134500
     39 H8          1.1420    0.6180   -2.4240 ha        1 1V2      0.140000
     40 H9         -1.1230    0.4860   -1.7640 ha        1 1V2      0.142500
     41 H10        -2.9320    2.0250   -0.6400 ha        1 1V2      0.094500
     42 H11        -2.5910    2.4770    0.8540 ha        1 1V2      0.094500
     43 H12        -2.2560    0.1370    1.3730 h1        1 1V2      0.075500
     44 H13        -2.8810   -0.1990   -0.0600 h1        1 1V2      0.075500
     45 H15        -5.1270    0.9440   -0.5030 h1        1 1V2      0.073000
     46 H16        -4.9650   -0.6120   -0.2120 h1        1 1V2      0.073000
     47 H17        -7.1870   -0.1100    0.0240 hc        1 1V2      0.101000
     48 H18        -6.8570    1.1130    0.9880 hc        1 1V2      0.101000
     49 H19        -6.5950   -1.6100    1.6160 h1        1 1V2      0.071000
     50 H20        -8.3960   -1.3350    2.6370 ho        1 1V2      0.199000
     51 H21        -5.7600   -1.0690    3.6400 hc        1 1V2      0.103500
     52 H22        -5.9280    0.4860    3.3470 hc        1 1V2      0.103500
     53 H23        -4.0370   -1.2340    2.1390 h1        1 1V2      0.073000
     54 H24        -2.4530   -0.0080    3.2120 h1        1 1V2      0.072000
     55 H25        -3.5120    1.1250    3.6020 h1        1 1V2      0.072000
     56 H26        -3.1410   -0.1920    5.3270 ho        1 1V2      0.202000
@<TRIPOS>BOND
     1    1    8 1   
     2    1   32 1   
     3    2    4 1   
     4    4    6 1   
     5    6    7 1   
     6    6   33 1   
     7    7   34 1   
     8    9   10 1   
     9    9   11 1   
    10   10   13 1   
    11   11   12 1   
    12   12   13 1   
    13   14   15 1   
    14   14   36 1   
    15   15   18 1   
    16   16   17 1   
    17   16   37 1   
    18   17   38 1   
    19   18   39 1   
    20   19   20 1   
    21   19   40 1   
    22   21   22 1   
    23   21   41 1   
    24   21   42 1   
    25   22   23 1   
    26   22   43 1   
    27   22   44 1   
    28   23   24 1   
    29   23   29 1   
    30   24   25 1   
    31   24   45 1   
    32   24   46 1   
    33   25   26 1   
    34   25   47 1   
    35   25   48 1   
    36   26   27 1   
    37   26   28 1   
    38   26   49 1   
    39   27   50 1   
    40   28   29 1   
    41   28   51 1   
    42   28   52 1   
    43   29   30 1   
    44   29   53 1   
    45   30   31 1   
    46   30   54 1   
    47   30   55 1   
    48   31   56 1   
@<TRIPOS>SUBSTRUCTURE
     1 1V2         1 TEMP              0 ****  ****    0 ROOT
