@<TRIPOS>MOLECULE
1V2
   56    59     1     0     0
SMALL
bcc


@<TRIPOS>ATOM
      1 C13        -0.2180   -0.9440    0.1190 ca        1 1V2     -0.086000
      2 C14         0.8900   -1.7430    0.4170 ca        1 1V2      0.012400
      3 Cl1         1.5310   -2.7400   -0.7970 cl        1 1V2     -0.068400
      4 C15         1.4560   -1.7120    1.7010 ca        1 1V2      0.021400
      5 Cl2         2.8000   -2.6680    2.0930 cl        1 1V2     -0.068400
      6 C16         0.9020   -0.8810    2.6810 ca        1 1V2     -0.122000
      7 C17        -0.2000   -0.0860    2.3830 ca        1 1V2     -0.111000
      8 C12        -0.7650   -0.1080    1.1000 ca        1 1V2     -0.107500
      9 C11        -1.9120    0.7450    0.7990 cc        1 1V2      0.408800
     10 N3         -2.8610    0.3800   -0.1520 nc        1 1V2     -0.659000
     11 C10        -2.1610    1.9660    1.4270 cd        1 1V2     -0.270400
     12 S1         -3.5380    2.6810    0.8390 ss        1 1V2     -0.046300
     13 C9         -3.8060    1.3370   -0.2370 cd        1 1V2      0.589300
     14 N1         -4.8560    1.3710   -1.1740 nu        1 1V2     -0.675300
     15 C1         -6.1880    1.2020   -0.7130 ca        1 1V2      0.117600
     16 C3         -6.6420    1.7700    0.4940 ca        1 1V2     -0.162500
     17 C5         -7.9810    1.6770    0.8570 ca        1 1V2     -0.098500
     18 C2         -7.1240    0.5310   -1.5350 ca        1 1V2     -0.162500
     19 C4         -8.4590    0.4530   -1.1610 ca        1 1V2     -0.098500
     20 C6         -8.9050    1.0230    0.0370 ca        1 1V2     -0.100300
     21 C7        -10.3360    0.9150    0.4330 c3        1 1V2     -0.037100
     22 C8        -11.1880    1.8770   -0.4000 c3        1 1V2      0.173800
     23 N2        -12.6250    1.6640   -0.3120 n3        1 1V2     -0.717600
     24 C22       -13.1120    1.4960    1.0500 c3        1 1V2      0.174800
     25 C21       -14.6070    1.2000    1.1270 c3        1 1V2     -0.115400
     26 C20       -15.4060    2.2570    0.3770 c3        1 1V2      0.141100
     27 O2        -16.7800    1.9050    0.2800 oh        1 1V2     -0.596800
     28 C19       -14.8850    2.3920   -1.0480 c3        1 1V2     -0.073400
     29 C18       -13.3810    2.6930   -1.0370 c3        1 1V2      0.193500
     30 C23       -12.9280    2.9110   -2.4950 c3        1 1V2      0.132400
     31 O1        -13.0140    1.6900   -3.2050 oh        1 1V2     -0.580800
     32 H1         -0.6590   -0.9780   -0.8910 ha        1 1V2      0.168000
     33 H2          1.3390   -0.8580    3.6910 ha        1 1V2      0.152000
     34 H3         -0.6330    0.5570    3.1640 ha        1 1V2      0.141000
     35 H4         -1.5330    2.4050    2.2000 h4        1 1V2      0.185000
     36 H5         -4.6650    0.8010   -1.9820 hn        1 1V2      0.417800
     37 H6         -5.9400    2.2920    1.1650 ha        1 1V2      0.136500
     38 H7         -8.3130    2.1270    1.8060 ha        1 1V2      0.138500
     39 H8         -6.8030    0.0670   -2.4810 ha        1 1V2      0.136500
     40 H9         -9.1770   -0.0700   -1.8130 ha        1 1V2      0.138500
     41 H10       -10.4480    1.1520    1.5240 hc        1 1V2      0.056200
     42 H11       -10.6850   -0.1410    0.2750 hc        1 1V2      0.056200
     43 H12       -10.9040    2.9330   -0.1140 h1        1 1V2      0.037200
     44 H13       -10.9140    1.7240   -1.4850 h1        1 1V2      0.037200
     45 H15       -12.5660    0.6200    1.5020 h1        1 1V2      0.030700
     46 H16       -12.8910    2.4050    1.6850 h1        1 1V2      0.030700
     47 H17       -14.8250    0.1930    0.6840 hc        1 1V2      0.055200
     48 H18       -14.9120    1.1770    2.2050 hc        1 1V2      0.055200
     49 H19       -15.3220    3.2460    0.9130 h1        1 1V2      0.026700
     50 H20       -17.0750    1.6890    1.1720 ho        1 1V2      0.398000
     51 H21       -15.4240    3.2260   -1.5650 hc        1 1V2      0.069700
     52 H22       -15.0820    1.4480   -1.6180 hc        1 1V2      0.069700
     53 H23       -13.2340    3.7020   -0.5300 h1        1 1V2      0.016700
     54 H24       -11.8760    3.3050   -2.5280 h1        1 1V2      0.022200
     55 H25       -13.6090    3.6750   -2.9610 h1        1 1V2      0.022200
     56 H26       -12.7610    1.8890   -4.1150 ho        1 1V2      0.395000
@<TRIPOS>BOND
     1    1    2 ar  
     2    1    8 ar  
     3    1   32 1   
     4    2    3 1   
     5    2    4 ar  
     6    4    5 1   
     7    4    6 ar  
     8    6    7 ar  
     9    6   33 1   
    10    7    8 ar  
    11    7   34 1   
    12    8    9 1   
    13    9   10 1   
    14    9   11 2   
    15   10   13 2   
    16   11   12 1   
    17   11   35 1   
    18   12   13 1   
    19   13   14 1   
    20   14   15 1   
    21   14   36 1   
    22   15   16 ar  
    23   15   18 ar  
    24   16   17 ar  
    25   16   37 1   
    26   17   20 ar  
    27   17   38 1   
    28   18   19 ar  
    29   18   39 1   
    30   19   20 ar  
    31   19   40 1   
    32   20   21 1   
    33   21   22 1   
    34   21   41 1   
    35   21   42 1   
    36   22   23 1   
    37   22   43 1   
    38   22   44 1   
    39   23   24 1   
    40   23   29 1   
    41   24   25 1   
    42   24   45 1   
    43   24   46 1   
    44   25   26 1   
    45   25   47 1   
    46   25   48 1   
    47   26   27 1   
    48   26   28 1   
    49   26   49 1   
    50   27   50 1   
    51   28   29 1   
    52   28   51 1   
    53   28   52 1   
    54   29   30 1   
    55   29   53 1   
    56   30   31 1   
    57   30   54 1   
    58   30   55 1   
    59   31   56 1   
@<TRIPOS>SUBSTRUCTURE
     1 1V2         1 TEMP              0 ****  ****    0 ROOT
