@<TRIPOS>MOLECULE
1V3
   27    29     1     0     0
SMALL
bcc


@<TRIPOS>ATOM
      1 CAB         0.0590   -0.2830   -0.0730 cc        1 1V3     -0.318200
      2 CAD         1.5200   -0.3160   -0.0680 c         1 1V3      0.590900
      3 OAI         2.1930   -0.5020   -1.0910 o         1 1V3     -0.539100
      4 CAC         2.1180   -0.1120    1.2620 ca        1 1V3     -0.207600
      5 CAG         3.5090   -0.1200    1.4420 ca        1 1V3     -0.042000
      6 CAK         4.0430    0.0760    2.7140 ca        1 1V3     -0.021600
      7 CL1         5.7270    0.0660    2.9340 cl        1 1V3     -0.081400
      8 CAL         3.2040    0.2840    3.8210 ca        1 1V3     -0.074000
      9 CAJ         1.8270    0.2960    3.6600 ca        1 1V3     -0.151000
     10 CAF         1.2900    0.0960    2.3750 ca        1 1V3      0.143100
     11 OAE        -0.0930    0.1240    2.3020 os        1 1V3     -0.222200
     12 CAA        -0.6640   -0.0700    1.0510 cd        1 1V3      0.198900
     13 CAH        -2.1260   -0.0220    1.1200 ca        1 1V3     -0.080800
     14 CAN        -2.7960   -0.4030    2.2910 ca        1 1V3     -0.091500
     15 CAP        -4.1880   -0.3710    2.3390 ca        1 1V3     -0.136000
     16 CAR        -4.9190    0.0430    1.2250 ca        1 1V3     -0.106000
     17 CAQ        -4.2540    0.4290    0.0600 ca        1 1V3     -0.136000
     18 CAO        -2.8620    0.4000    0.0040 ca        1 1V3     -0.091500
     19 H1         -0.4350   -0.4490   -1.0420 ha        1 1V3      0.171000
     20 H2          4.1560   -0.2850    0.5640 ha        1 1V3      0.176000
     21 H3          3.6400    0.4400    4.8210 ha        1 1V3      0.155000
     22 H4          1.1530    0.4590    4.5130 ha        1 1V3      0.159000
     23 H5         -2.2170   -0.7250    3.1700 ha        1 1V3      0.145500
     24 H6         -4.7100   -0.6730    3.2590 ha        1 1V3      0.139500
     25 H7         -6.0180    0.0670    1.2650 ha        1 1V3      0.137000
     26 H8         -4.8290    0.7600   -0.8180 ha        1 1V3      0.139500
     27 H9         -2.3420    0.7140   -0.9140 ha        1 1V3      0.145500
@<TRIPOS>BOND
     1    1    2 1   
     2    1   12 2   
     3    1   19 1   
     4    2    3 2   
     5    2    4 1   
     6    4    5 ar  
     7    4   10 ar  
     8    5    6 ar  
     9    5   20 1   
    10    6    7 1   
    11    6    8 ar  
    12    8    9 ar  
    13    8   21 1   
    14    9   10 ar  
    15    9   22 1   
    16   10   11 1   
    17   11   12 1   
    18   12   13 1   
    19   13   14 ar  
    20   13   18 ar  
    21   14   15 ar  
    22   14   23 1   
    23   15   16 ar  
    24   15   24 1   
    25   16   17 ar  
    26   16   25 1   
    27   17   18 ar  
    28   17   26 1   
    29   18   27 1   
@<TRIPOS>SUBSTRUCTURE
     1 1V3         1 TEMP              0 ****  ****    0 ROOT
