@<TRIPOS>MOLECULE
1V3
   27    29     1     0     0
SMALL
bcc


@<TRIPOS>ATOM
      1 CAB         0.9190    1.5530    0.2710 cc        1 1V3     -0.318200
      2 CAD        -0.5180    1.8150    0.3000 c         1 1V3      0.590900
      3 OAI        -0.9940    2.9450    0.4780 o         1 1V3     -0.539100
      4 CAC        -1.3480    0.6160    0.0990 ca        1 1V3     -0.207600
      5 CAG        -2.7490    0.6920    0.1040 ca        1 1V3     -0.042000
      6 CAK        -3.5050   -0.4620   -0.0880 ca        1 1V3     -0.021600
      7 CL1        -5.2010   -0.3710   -0.0830 cl        1 1V3     -0.081400
      8 CAL        -2.8820   -1.7050   -0.2880 ca        1 1V3     -0.074000
      9 CAJ        -1.4980   -1.7980   -0.2960 ca        1 1V3     -0.151000
     10 CAF        -0.7360   -0.6300   -0.1000 ca        1 1V3      0.143100
     11 OAE         0.6360   -0.8120   -0.1240 os        1 1V3     -0.222200
     12 CAA         1.4260    0.3160    0.0660 cd        1 1V3      0.198900
     13 CAH         2.8500   -0.0200    0.0240 ca        1 1V3     -0.080800
     14 CAN         3.2950   -1.2920    0.4110 ca        1 1V3     -0.091500
     15 CAP         4.6550   -1.5930    0.3850 ca        1 1V3     -0.136000
     16 CAR         5.5770   -0.6330   -0.0310 ca        1 1V3     -0.106000
     17 CAQ         5.1380    0.6310   -0.4250 ca        1 1V3     -0.136000
     18 CAO         3.7800    0.9410   -0.4010 ca        1 1V3     -0.091500
     19 H1          1.5810    2.4170    0.4350 ha        1 1V3      0.171000
     20 H2         -3.2250    1.6750    0.2620 ha        1 1V3      0.176000
     21 H3         -3.4930   -2.6090   -0.4400 ha        1 1V3      0.155000
     22 H4         -0.9910   -2.7600   -0.4520 ha        1 1V3      0.159000
     23 H5          2.5640   -2.0490    0.7350 ha        1 1V3      0.145500
     24 H6          5.0000   -2.5910    0.6930 ha        1 1V3      0.139500
     25 H7          6.6510   -0.8730   -0.0510 ha        1 1V3      0.137000
     26 H8          5.8640    1.3880   -0.7570 ha        1 1V3      0.139500
     27 H9          3.4370    1.9370   -0.7210 ha        1 1V3      0.145500
@<TRIPOS>BOND
     1    1    2 1   
     2    1   12 2   
     3    1   19 1   
     4    2    3 2   
     5    2    4 1   
     6    4    5 ar  
     7    4   10 ar  
     8    5    6 ar  
     9    5   20 1   
    10    6    7 1   
    11    6    8 ar  
    12    8    9 ar  
    13    8   21 1   
    14    9   10 ar  
    15    9   22 1   
    16   10   11 1   
    17   11   12 1   
    18   12   13 1   
    19   13   14 ar  
    20   13   18 ar  
    21   14   15 ar  
    22   14   23 1   
    23   15   16 ar  
    24   15   24 1   
    25   16   17 ar  
    26   16   25 1   
    27   17   18 ar  
    28   17   26 1   
    29   18   27 1   
@<TRIPOS>SUBSTRUCTURE
     1 1V3         1 TEMP              0 ****  ****    0 ROOT
