@<TRIPOS>MOLECULE
1V3
   27    20     1     0     0
SMALL
bcc


@<TRIPOS>ATOM
      1 CAB         0.2650   -0.1170   -1.6340 c1        1 1V3     -0.299000
      2 CAD         1.7100   -0.1030   -1.6250 c1        1 1V3      0.312000
      3 OAI         2.3230   -0.0570   -2.6720 o         1 1V3     -0.300000
      4 CAC         2.4490   -0.0220   -0.3170 c1        1 1V3     -0.187000
      5 CAG         3.8470   -0.0340   -0.2990 c1        1 1V3     -0.042000
      6 CAK         4.5290   -0.0170    0.9170 c1        1 1V3     -0.100000
      7 CL1         6.2730   -0.0180    0.9380 cl        1 1V3     -0.003000
      8 CAL         3.8140    0.0110    2.1250 c1        1 1V3     -0.074000
      9 CAJ         2.4190    0.0230    2.1100 c1        1 1V3     -0.119000
     10 CAF         1.7320    0.0060    0.8920 c1        1 1V3      0.014500
     11 OAE         0.2400    0.0990    0.8760 o         1 1V3     -0.133000
     12 CAA        -0.4760   -0.0440   -0.3600 c1        1 1V3      0.143000
     13 CAH        -1.9890   -0.0030   -0.3660 c1        1 1V3      0.014500
     14 CAN        -2.7130   -1.1840   -0.3100 c1        1 1V3     -0.118500
     15 CAP        -4.0980   -1.1450   -0.2500 c1        1 1V3     -0.118500
     16 CAR        -4.7580    0.0740   -0.2460 c1        1 1V3     -0.118500
     17 CAQ        -4.0330    1.2540   -0.3020 c1        1 1V3     -0.118500
     18 CAO        -2.6490    1.2160   -0.3620 c1        1 1V3     -0.119000
     19 H1         -0.2190   -0.2140   -2.4760 ha        1 1V3      0.171000
     20 H2          4.3450   -0.0330   -1.1390 ha        1 1V3      0.176000
     21 H3          4.2930    0.0230    2.9760 ha        1 1V3      0.155000
     22 H4          1.9220    0.0430    2.9500 ha        1 1V3      0.153500
     23 H5         -2.2490   -2.0420   -0.3120 ha        1 1V3      0.139750
     24 H6         -4.6080   -1.9760   -0.2100 ha        1 1V3      0.139750
     25 H7         -5.7330    0.1010   -0.2040 ha        1 1V3      0.139750
     26 H8         -4.4980    2.1130   -0.3000 ha        1 1V3      0.139750
     27 H9         -2.1390    2.0470   -0.4020 ha        1 1V3      0.153500
@<TRIPOS>BOND
     1    1   12 1   
     2    1   19 1   
     3    2    3 1   
     4    2    4 1   
     5    4    5 1   
     6    5   20 1   
     7    6    7 1   
     8    6    8 1   
     9    8   21 1   
    10    9   10 1   
    11    9   22 1   
    12   11   12 1   
    13   13   18 1   
    14   14   15 1   
    15   14   23 1   
    16   15   24 1   
    17   16   17 1   
    18   16   25 1   
    19   17   26 1   
    20   18   27 1   
@<TRIPOS>SUBSTRUCTURE
     1 1V3         1 TEMP              0 ****  ****    0 ROOT
