@<TRIPOS>MOLECULE
1V4
   27    29     1     0     0
SMALL
bcc


@<TRIPOS>ATOM
      1 CAB         0.5180    1.5450    0.2770 cc        1 1V4     -0.320200
      2 CAD        -0.9210    1.7950    0.3070 c         1 1V4      0.589900
      3 OAI        -1.4060    2.9200    0.4890 o         1 1V4     -0.538100
      4 CAC        -1.7420    0.5890    0.1030 ca        1 1V4     -0.190600
      5 CAG        -3.1410    0.6570    0.1100 ca        1 1V4     -0.085000
      6 CAK        -3.8940   -0.5080   -0.0870 ca        1 1V4      0.091900
      7 F1         -5.2470   -0.4500   -0.0820 f         1 1V4     -0.134900
      8 CAL        -3.2530   -1.7510   -0.2930 ca        1 1V4     -0.115000
      9 CAJ        -1.8700   -1.8260   -0.3010 ca        1 1V4     -0.134000
     10 CAF        -1.1200   -0.6510   -0.1010 ca        1 1V4      0.128100
     11 OAE         0.2560   -0.8210   -0.1260 os        1 1V4     -0.222200
     12 CAA         1.0350    0.3120    0.0670 cd        1 1V4      0.200900
     13 CAH         2.4620   -0.0110    0.0230 ca        1 1V4     -0.080800
     14 CAN         2.9180   -1.2790    0.4070 ca        1 1V4     -0.091500
     15 CAP         4.2810   -1.5680    0.3790 ca        1 1V4     -0.136000
     16 CAR         5.1950   -0.5990   -0.0360 ca        1 1V4     -0.106000
     17 CAQ         4.7440    0.6620   -0.4250 ca        1 1V4     -0.136000
     18 CAO         3.3830    0.9600   -0.4000 ca        1 1V4     -0.091500
     19 H1          1.1730    2.4130    0.4430 ha        1 1V4      0.171000
     20 H2         -3.6350    1.6300    0.2700 ha        1 1V4      0.177000
     21 H3         -3.8630   -2.6540   -0.4470 ha        1 1V4      0.157000
     22 H4         -1.3510   -2.7820   -0.4610 ha        1 1V4      0.160000
     23 H5          2.1940   -2.0440    0.7290 ha        1 1V4      0.145500
     24 H6          4.6350   -2.5640    0.6840 ha        1 1V4      0.139500
     25 H7          6.2700   -0.8290   -0.0570 ha        1 1V4      0.137000
     26 H8          5.4630    1.4260   -0.7570 ha        1 1V4      0.139500
     27 H9          3.0310    1.9530   -0.7170 ha        1 1V4      0.145500
@<TRIPOS>BOND
     1    1    2 1   
     2    1   12 2   
     3    1   19 1   
     4    2    3 2   
     5    2    4 1   
     6    4    5 ar  
     7    4   10 ar  
     8    5    6 ar  
     9    5   20 1   
    10    6    7 1   
    11    6    8 ar  
    12    8    9 ar  
    13    8   21 1   
    14    9   10 ar  
    15    9   22 1   
    16   10   11 1   
    17   11   12 1   
    18   12   13 1   
    19   13   14 ar  
    20   13   18 ar  
    21   14   15 ar  
    22   14   23 1   
    23   15   16 ar  
    24   15   24 1   
    25   16   17 ar  
    26   16   25 1   
    27   17   18 ar  
    28   17   26 1   
    29   18   27 1   
@<TRIPOS>SUBSTRUCTURE
     1 1V4         1 TEMP              0 ****  ****    0 ROOT
