@<TRIPOS>MOLECULE
1V4
   27    20     1     0     0
SMALL
bcc


@<TRIPOS>ATOM
      1 CAB         0.2900    0.0820   -1.6350 c1        1 1V4     -0.301000
      2 CAD         1.7340    0.0500   -1.6190 c1        1 1V4      0.311000
      3 OAI         2.3520   -0.0030   -2.6630 o         1 1V4     -0.299000
      4 CAC         2.4650   -0.0410   -0.3070 c1        1 1V4     -0.170000
      5 CAG         3.8620   -0.0190   -0.2810 c1        1 1V4     -0.085000
      6 CAK         4.5380   -0.0230    0.9400 c1        1 1V4      0.057000
      7 F1          5.8760    0.0260    0.9640 f         1 1V4     -0.100000
      8 CAL         3.8150   -0.0480    2.1430 c1        1 1V4     -0.115000
      9 CAJ         2.4200   -0.0700    2.1200 c1        1 1V4     -0.110500
     10 CAF         1.7410   -0.0670    0.8980 c1        1 1V4      0.007000
     11 OAE         0.2490   -0.1420    0.8730 o         1 1V4     -0.133000
     12 CAA        -0.4580    0.0190   -0.3650 c1        1 1V4      0.145000
     13 CAH        -1.9710    0.0220   -0.3770 c1        1 1V4      0.007000
     14 CAN        -2.6640   -1.1770   -0.4260 c1        1 1V4     -0.118500
     15 CAP        -4.0490   -1.1790   -0.3690 c1        1 1V4     -0.118500
     16 CAR        -4.7400    0.0170   -0.2640 c1        1 1V4     -0.118500
     17 CAQ        -4.0470    1.2160   -0.2150 c1        1 1V4     -0.118500
     18 CAO        -2.6620    1.2180   -0.2710 c1        1 1V4     -0.110500
     19 H1         -0.1880    0.1910   -2.4790 ha        1 1V4      0.171000
     20 H2          4.3660   -0.0270   -1.1180 ha        1 1V4      0.177000
     21 H3          4.2890   -0.0500    2.9970 ha        1 1V4      0.157000
     22 H4          1.9190   -0.0880    2.9570 ha        1 1V4      0.154000
     23 H5         -2.1780   -2.0200   -0.5000 ha        1 1V4      0.139750
     24 H6         -4.5380   -2.0240   -0.4040 ha        1 1V4      0.139750
     25 H7         -5.7150    0.0160   -0.2240 ha        1 1V4      0.139750
     26 H8         -4.5340    2.0590   -0.1400 ha        1 1V4      0.139750
     27 H9         -2.1740    2.0630   -0.2360 ha        1 1V4      0.154000
@<TRIPOS>BOND
     1    1   12 1   
     2    1   19 1   
     3    2    3 1   
     4    2    4 1   
     5    4    5 1   
     6    5   20 1   
     7    6    7 1   
     8    6    8 1   
     9    8   21 1   
    10    9   10 1   
    11    9   22 1   
    12   11   12 1   
    13   13   18 1   
    14   14   15 1   
    15   14   23 1   
    16   15   24 1   
    17   16   17 1   
    18   16   25 1   
    19   17   26 1   
    20   18   27 1   
@<TRIPOS>SUBSTRUCTURE
     1 1V4         1 TEMP              0 ****  ****    0 ROOT
