@<TRIPOS>MOLECULE
1V4
   27    29     1     0     0
SMALL
bcc


@<TRIPOS>ATOM
      1 CAB         0.0580   -0.2830   -0.0730 cc        1 1V4     -0.320200
      2 CAD         1.5180   -0.3170   -0.0680 c         1 1V4      0.589900
      3 OAI         2.1920   -0.5020   -1.0900 o         1 1V4     -0.538100
      4 CAC         2.1170   -0.1120    1.2630 ca        1 1V4     -0.190600
      5 CAG         3.5060   -0.1210    1.4400 ca        1 1V4     -0.085000
      6 CAK         4.0440    0.0780    2.7180 ca        1 1V4      0.091900
      7 F1          5.3870    0.0700    2.8970 f         1 1V4     -0.134900
      8 CAL         3.1970    0.2870    3.8300 ca        1 1V4     -0.115000
      9 CAJ         1.8220    0.2970    3.6620 ca        1 1V4     -0.134000
     10 CAF         1.2880    0.0970    2.3750 ca        1 1V4      0.128100
     11 OAE        -0.0960    0.1240    2.3020 os        1 1V4     -0.222200
     12 CAA        -0.6660   -0.0700    1.0510 cd        1 1V4      0.200900
     13 CAH        -2.1270   -0.0230    1.1190 ca        1 1V4     -0.080800
     14 CAN        -2.7990   -0.4030    2.2890 ca        1 1V4     -0.091500
     15 CAP        -4.1910   -0.3720    2.3360 ca        1 1V4     -0.136000
     16 CAR        -4.9210    0.0420    1.2210 ca        1 1V4     -0.106000
     17 CAQ        -4.2550    0.4280    0.0570 ca        1 1V4     -0.136000
     18 CAO        -2.8640    0.3990    0.0020 ca        1 1V4     -0.091500
     19 H1         -0.4360   -0.4500   -1.0420 ha        1 1V4      0.171000
     20 H2          4.1620   -0.2840    0.5680 ha        1 1V4      0.177000
     21 H3          3.6400    0.4420    4.8250 ha        1 1V4      0.157000
     22 H4          1.1450    0.4600    4.5130 ha        1 1V4      0.160000
     23 H5         -2.2200   -0.7250    3.1690 ha        1 1V4      0.145500
     24 H6         -4.7140   -0.6750    3.2550 ha        1 1V4      0.139500
     25 H7         -6.0200    0.0650    1.2600 ha        1 1V4      0.137000
     26 H8         -4.8290    0.7580   -0.8210 ha        1 1V4      0.139500
     27 H9         -2.3430    0.7140   -0.9160 ha        1 1V4      0.145500
@<TRIPOS>BOND
     1    1    2 1   
     2    1   12 2   
     3    1   19 1   
     4    2    3 2   
     5    2    4 1   
     6    4    5 ar  
     7    4   10 ar  
     8    5    6 ar  
     9    5   20 1   
    10    6    7 1   
    11    6    8 ar  
    12    8    9 ar  
    13    8   21 1   
    14    9   10 ar  
    15    9   22 1   
    16   10   11 1   
    17   11   12 1   
    18   12   13 1   
    19   13   14 ar  
    20   13   18 ar  
    21   14   15 ar  
    22   14   23 1   
    23   15   16 ar  
    24   15   24 1   
    25   16   17 ar  
    26   16   25 1   
    27   17   18 ar  
    28   17   26 1   
    29   18   27 1   
@<TRIPOS>SUBSTRUCTURE
     1 1V4         1 TEMP              0 ****  ****    0 ROOT
