@<TRIPOS>MOLECULE
1V5
   60    65     1     0     0
SMALL
bcc


@<TRIPOS>ATOM
      1 F60         7.9070    1.5680   -2.6690 f         1 1V5     -0.140900
      2 C53         7.1930    0.7610   -1.8480 ca        1 1V5      0.129900
      3 C52         7.0450   -0.6020   -2.1620 ca        1 1V5     -0.171000
      4 C51         6.3100   -1.4230   -1.3110 ca        1 1V5     -0.089500
      5 C54         6.6010    1.2920   -0.6860 ca        1 1V5     -0.171000
      6 C55         5.8700    0.4550    0.1510 ca        1 1V5     -0.089500
      7 C50         5.7250   -0.9040   -0.1530 ca        1 1V5     -0.099300
      8 C16         4.9360   -1.7760    0.7650 cx        1 1V5      0.076700
      9 C47         5.5520   -2.0540    2.1320 cx        1 1V5     -0.108900
     10 C31         5.5270   -3.1430    1.1070 cx        1 1V5     -0.108900
     11 N48         3.5150   -1.6580    0.6290 n         1 1V5     -0.527900
     12 C27         2.7760   -0.6980    1.3010 c         1 1V5      0.676700
     13 O30         3.2830    0.0400    2.1690 o         1 1V5     -0.602100
     14 C39         1.3270   -0.5970    0.9560 ca        1 1V5     -0.150600
     15 C45         0.5610   -1.7200    0.6010 ca        1 1V5     -0.098000
     16 C37        -0.7810   -1.5930    0.2950 ca        1 1V5     -0.180300
     17 C40         0.7350    0.6590    1.0240 ca        1 1V5     -0.066000
     18 C32        -0.6300    0.8080    0.7120 ca        1 1V5     -0.122600
     19 N41        -1.2770    2.0470    0.7590 na        1 1V5      0.028700
     20 C44        -2.6550    2.1610    0.4260 cc        1 1V5     -0.192600
     21 N28        -3.0790    3.4480    0.5580 nd        1 1V5     -0.258600
     22 C46        -1.9720    4.1650    0.9770 cd        1 1V5     -0.016400
     23 C18        -0.8430    3.3190    1.1100 cc        1 1V5     -0.177100
     24 C43        -3.3830    0.9370    0.0150 cc        1 1V5      0.749200
     25 N42        -2.7730   -0.2530    0.0030 nd        1 1V5     -0.767000
     26 C33        -1.4250   -0.3270    0.3290 ca        1 1V5      0.447600
     27 N34        -4.6880    1.1150   -0.4060 nh        1 1V5     -0.836900
     28 C26        -5.5890    0.0000   -0.6320 c3        1 1V5      0.216500
     29 C35        -6.7990    0.4460   -1.4750 c3        1 1V5     -0.093400
     30 C19        -7.6760   -0.7420   -1.8020 c3        1 1V5     -0.092900
     31 C21        -6.0990   -0.6520    0.6670 c3        1 1V5     -0.093400
     32 C36        -6.9810   -1.8380    0.3500 c3        1 1V5     -0.092900
     33 C20        -8.1600   -1.4260   -0.5270 c3        1 1V5      0.139100
     34 O17        -8.9120   -2.5600   -0.9400 oh        1 1V5     -0.598800
     35 H57         7.5080   -1.0060   -3.0730 ha        1 1V5      0.150000
     36 H56         6.1930   -2.4910   -1.5540 ha        1 1V5      0.150500
     37 H58         6.7210    2.3590   -0.4520 ha        1 1V5      0.150000
     38 H59         5.3930    0.8560    1.0620 ha        1 1V5      0.150500
     39 H12         6.5070   -1.5540    2.3710 hc        1 1V5      0.081700
     40 H15         4.8850   -2.1180    3.0110 hc        1 1V5      0.081700
     41 H9          4.8480   -4.0020    1.2550 hc        1 1V5      0.081700
     42 H1          6.4660   -3.4360    0.6060 hc        1 1V5      0.081700
     43 H49         3.1280   -2.0670   -0.1900 hn        1 1V5      0.314500
     44 H38         1.0200   -2.7210    0.5810 ha        1 1V5      0.142000
     45 H23        -1.3690   -2.4830    0.0200 ha        1 1V5      0.158000
     46 H24         1.3420    1.5260    1.3330 ha        1 1V5      0.161000
     47 H25        -2.0230    5.2370    1.1640 h4        1 1V5      0.187000
     48 H22         0.1790    3.5310    1.4170 h4        1 1V5      0.191000
     49 H14        -5.1190    1.9800   -0.1560 hn        1 1V5      0.446800
     50 H10        -5.0260   -0.7860   -1.2210 h1        1 1V5      0.087700
     51 H8         -7.3940    1.2130   -0.9130 hc        1 1V5      0.051950
     52 H13        -6.4470    0.9170   -2.4290 hc        1 1V5      0.051950
     53 H29        -8.5630   -0.4070   -2.3980 hc        1 1V5      0.055950
     54 H7         -7.1120   -1.4850   -2.4250 hc        1 1V5      0.055950
     55 H2         -5.2290   -0.9930    1.2860 hc        1 1V5      0.051950
     56 H5         -6.6740    0.0990    1.2680 hc        1 1V5      0.051950
     57 H3         -6.3890   -2.6290   -0.1800 hc        1 1V5      0.055950
     58 H6         -7.3630   -2.2850    1.3040 hc        1 1V5      0.055950
     59 H4         -8.8330   -0.7280    0.0490 h1        1 1V5      0.032700
     60 H11        -9.1600   -3.0360   -0.1390 ho        1 1V5      0.400000
@<TRIPOS>BOND
     1    1    2 1   
     2    2    3 ar  
     3    2    5 ar  
     4    3    4 ar  
     5    3   35 1   
     6    4    7 ar  
     7    4   36 1   
     8    5    6 ar  
     9    5   37 1   
    10    6    7 ar  
    11    6   38 1   
    12    7    8 1   
    13    8    9 1   
    14    8   10 1   
    15    8   11 1   
    16    9   10 1   
    17    9   39 1   
    18    9   40 1   
    19   10   41 1   
    20   10   42 1   
    21   11   12 1   
    22   11   43 1   
    23   12   13 2   
    24   12   14 1   
    25   14   15 ar  
    26   14   17 ar  
    27   15   16 ar  
    28   15   44 1   
    29   16   26 ar  
    30   16   45 1   
    31   17   18 ar  
    32   17   46 1   
    33   18   19 1   
    34   18   26 ar  
    35   19   20 1   
    36   19   23 1   
    37   20   21 2   
    38   20   24 1   
    39   21   22 1   
    40   22   23 2   
    41   22   47 1   
    42   23   48 1   
    43   24   25 2   
    44   24   27 1   
    45   25   26 1   
    46   27   28 1   
    47   27   49 1   
    48   28   29 1   
    49   28   31 1   
    50   28   50 1   
    51   29   30 1   
    52   29   51 1   
    53   29   52 1   
    54   30   33 1   
    55   30   53 1   
    56   30   54 1   
    57   31   32 1   
    58   31   55 1   
    59   31   56 1   
    60   32   33 1   
    61   32   57 1   
    62   32   58 1   
    63   33   34 1   
    64   33   59 1   
    65   34   60 1   
@<TRIPOS>SUBSTRUCTURE
     1 1V5         1 TEMP              0 ****  ****    0 ROOT
