@<TRIPOS>MOLECULE
1V5
   62    67     1     0     0
SMALL
bcc


@<TRIPOS>ATOM
      1 F60         1.1550    0.9550    3.1140 f         1 1V5     -0.099900
      2 C53         2.2050    0.7390    2.2990 ca        1 1V5      0.186900
      3 C52         2.7530   -0.5560    2.1840 ca        1 1V5     -0.163000
      4 C51         3.8380   -0.7670    1.3440 ca        1 1V5     -0.078500
      5 C54         2.7540    1.8080    1.5600 ca        1 1V5     -0.163000
      6 C55         3.8420    1.5790    0.7280 ca        1 1V5     -0.078500
      7 C50         4.3940    0.2960    0.6170 ca        1 1V5     -0.167300
      8 C16         5.5220    0.0410   -0.3020 cx        1 1V5      0.067500
      9 C47         5.5620    0.6950   -1.6770 cx        1 1V5     -0.084400
     10 C31         5.2800   -0.7680   -1.5750 cx        1 1V5     -0.084400
     11 N48         6.8070   -0.1950    0.4340 n4        1 1V5     -0.633800
     12 C27         7.5510    1.0770    0.7460 c         1 1V5      0.563700
     13 O30         8.0430    1.6630   -0.2100 o         1 1V5     -0.405100
     14 C39         7.6380    1.5060    2.1550 ca        1 1V5     -0.132600
     15 C45         7.6670    0.6000    3.2320 ca        1 1V5     -0.106000
     16 C37         7.8040    1.0560    4.5300 ca        1 1V5     -0.108300
     17 C40         7.7610    2.8770    2.3790 ca        1 1V5     -0.057000
     18 C32         7.9030    3.3650    3.6980 ca        1 1V5     -0.046600
     19 N41         8.0350    4.7220    3.9830 na        1 1V5      0.018700
     20 C44         8.1870    5.1610    5.3420 cc        1 1V5     -0.209600
     21 N28         8.3020    6.5160    5.4050 nd        1 1V5     -0.226600
     22 C46         8.2290    6.9590    4.1010 cd        1 1V5      0.046600
     23 C18         8.0660    5.8680    3.2010 cc        1 1V5     -0.132100
     24 C43         8.1900    4.1440    6.3820 cc        1 1V5      0.600200
     25 N42         8.0620    2.8550    6.1320 nd        1 1V5     -0.625000
     26 C33         7.9220    2.4440    4.8050 ca        1 1V5      0.403600
     27 N34         8.3350    4.6170    7.7740 n4        1 1V5     -0.757700
     28 C26         9.7030    4.3070    8.3640 c3        1 1V5      0.129500
     29 C35         9.6710    4.4980    9.8860 c3        1 1V5     -0.097400
     30 C19        11.0120    4.0910   10.4610 c3        1 1V5     -0.102400
     31 C21        10.7920    5.1910    7.7510 c3        1 1V5     -0.097400
     32 C36        12.1380    4.7820    8.3110 c3        1 1V5     -0.102400
     33 C20        12.1600    4.8830    9.8350 c3        1 1V5      0.142100
     34 O17        13.4020    4.3320   10.2370 oh        1 1V5     -0.579800
     35 H57         2.3030   -1.3900    2.7480 ha        1 1V5      0.178000
     36 H56         4.2410   -1.7870    1.2310 ha        1 1V5      0.144500
     37 H58         2.3020    2.8100    1.6370 ha        1 1V5      0.178000
     38 H59         4.2550    2.4120    0.1350 ha        1 1V5      0.144500
     39 H12         4.7390    1.3940   -1.9290 hc        1 1V5      0.117450
     40 H15         6.5310    1.0340   -2.0940 hc        1 1V5      0.117450
     41 H9          4.2500   -1.1450   -1.7400 hc        1 1V5      0.117450
     42 H1          6.0390   -1.4920   -1.9290 hc        1 1V5      0.117450
     43 H49         7.4110   -0.7870   -0.1550 hn        1 1V5      0.463800
     44 H38         7.6160   -0.4890    3.0710 ha        1 1V5      0.155000
     45 H23         7.8290    0.3340    5.3680 ha        1 1V5      0.195000
     46 H24         7.7620    3.5770    1.5240 ha        1 1V5      0.184000
     47 H25         8.2950    8.0240    3.8490 h4        1 1V5      0.230000
     48 H22         7.9800    5.8580    2.1130 h4        1 1V5      0.216000
     49 H14         8.1870    5.6370    7.7970 hn        1 1V5      0.478800
     50 H10         9.9170    3.2200    8.1310 hx        1 1V5      0.119700
     51 H8          8.8680    3.8660   10.3490 hc        1 1V5      0.069450
     52 H13         9.4640    5.5720   10.1370 hc        1 1V5      0.069450
     53 H29        11.1920    2.9960   10.2980 hc        1 1V5      0.081950
     54 H7         10.9990    4.2660   11.5690 hc        1 1V5      0.081950
     55 H2         10.8050    5.0800    6.6350 hc        1 1V5      0.069450
     56 H5         10.5950    6.2700    7.9890 hc        1 1V5      0.069450
     57 H3         12.9340    5.4520    7.8890 hc        1 1V5      0.081950
     58 H6         12.3910    3.7320    8.0080 hc        1 1V5      0.081950
     59 H4         12.0910    5.9630   10.1480 h1        1 1V5      0.049700
     60 H11        13.5300    4.5590   11.1670 ho        1 1V5      0.422000
     61 H482        6.5780   -0.6980    1.2990 hn        1 1V5      0.463800
     62 H342        7.6200    4.1650    8.3640 hn        1 1V5      0.478800
@<TRIPOS>BOND
     1    1    2 1   
     2    2    3 ar  
     3    2    5 ar  
     4    3    4 ar  
     5    3   35 1   
     6    4    7 ar  
     7    4   36 1   
     8    5    6 ar  
     9    5   37 1   
    10    6    7 ar  
    11    6   38 1   
    12    7    8 1   
    13    8    9 1   
    14    8   10 1   
    15    8   11 1   
    16    9   10 1   
    17    9   39 1   
    18    9   40 1   
    19   10   41 1   
    20   10   42 1   
    21   11   12 1   
    22   11   43 1   
    23   11   61 1   
    24   12   13 2   
    25   12   14 1   
    26   14   15 ar  
    27   14   17 ar  
    28   15   16 ar  
    29   15   44 1   
    30   16   26 ar  
    31   16   45 1   
    32   17   18 ar  
    33   17   46 1   
    34   18   19 1   
    35   18   26 ar  
    36   19   20 1   
    37   19   23 1   
    38   20   21 2   
    39   20   24 1   
    40   21   22 1   
    41   22   23 2   
    42   22   47 1   
    43   23   48 1   
    44   24   25 2   
    45   24   27 1   
    46   25   26 1   
    47   27   28 1   
    48   27   49 1   
    49   27   62 1   
    50   28   29 1   
    51   28   31 1   
    52   28   50 1   
    53   29   30 1   
    54   29   51 1   
    55   29   52 1   
    56   30   33 1   
    57   30   53 1   
    58   30   54 1   
    59   31   32 1   
    60   31   55 1   
    61   31   56 1   
    62   32   33 1   
    63   32   57 1   
    64   32   58 1   
    65   33   34 1   
    66   33   59 1   
    67   34   60 1   
@<TRIPOS>SUBSTRUCTURE
     1 1V5         1 TEMP              0 ****  ****    0 ROOT
