@<TRIPOS>MOLECULE
1V5
   61    66     1     0     0
SMALL
bcc


@<TRIPOS>ATOM
      1 F60         0.1820   -0.5160    1.6060 f         1 1V5     -0.110900
      2 C53         1.4530   -0.3950    1.1680 ca        1 1V5      0.177900
      3 C52         2.3340   -1.4920    1.2600 ca        1 1V5     -0.165500
      4 C51         3.6410   -1.3590    0.8070 ca        1 1V5     -0.074000
      5 C54         1.8940    0.8270    0.6220 ca        1 1V5     -0.165500
      6 C55         3.2050    0.9440    0.1750 ca        1 1V5     -0.074000
      7 C50         4.0820   -0.1450    0.2660 ca        1 1V5     -0.160300
      8 C16         5.4690   -0.0190   -0.2370 cx        1 1V5      0.085500
      9 C47         5.7050    0.4300   -1.6720 cx        1 1V5     -0.089900
     10 C31         5.9660   -0.9940   -1.2990 cx        1 1V5     -0.089900
     11 N48         6.4190    0.3990    0.8300 n4        1 1V5     -0.637800
     12 C27         6.4890    1.8970    1.0940 c         1 1V5      0.579700
     13 O30         5.9830    2.6240    0.2450 o         1 1V5     -0.457100
     14 C39         7.1520    2.2910    2.3240 ca        1 1V5     -0.260600
     15 C45         7.8570    1.4040    3.1700 ca        1 1V5     -0.081000
     16 C37         8.4610    1.8490    4.3190 ca        1 1V5     -0.191300
     17 C40         7.0800    3.6520    2.6610 ca        1 1V5     -0.003000
     18 C32         7.6870    4.1250    3.8270 ca        1 1V5     -0.156600
     19 N41         7.6430    5.4710    4.2080 na        1 1V5      0.023700
     20 C44         8.2710    5.9060    5.4090 cc        1 1V5     -0.214600
     21 N28         8.1070    7.2480    5.5790 nd        1 1V5     -0.229600
     22 C46         7.3750    7.6780    4.4900 cd        1 1V5      0.002600
     23 C18         7.0750    6.5950    3.6240 cc        1 1V5     -0.164100
     24 C43         8.9690    4.9110    6.2510 cc        1 1V5      0.804200
     25 N42         9.0210    3.6070    5.8670 nd        1 1V5     -0.793000
     26 C33         8.4050    3.2260    4.7110 ca        1 1V5      0.533600
     27 N34         9.5240    5.3530    7.4090 nh        1 1V5     -0.803900
     28 C26        10.2770    4.5120    8.3280 c3        1 1V5      0.213500
     29 C35        10.2850    5.1230    9.7420 c3        1 1V5     -0.090400
     30 C19        10.9850    4.1880   10.7020 c3        1 1V5     -0.095400
     31 C21        11.7290    4.2830    7.8710 c3        1 1V5     -0.090400
     32 C36        12.4320    3.3430    8.8240 c3        1 1V5     -0.095400
     33 C20        12.4130    3.8940   10.2470 c3        1 1V5      0.140100
     34 O17        13.0050    2.8960   11.0660 oh        1 1V5     -0.592800
     35 H57         1.9760   -2.4440    1.6820 ha        1 1V5      0.171500
     36 H56         4.3230   -2.2210    0.8610 ha        1 1V5      0.150000
     37 H58         1.1960    1.6760    0.5490 ha        1 1V5      0.171500
     38 H59         3.5580    1.8950   -0.2570 ha        1 1V5      0.150000
     39 H12         4.8090    0.6880   -2.2700 hc        1 1V5      0.107450
     40 H15         6.5550    1.1010   -1.9010 hc        1 1V5      0.107450
     41 H9          7.0080   -1.3630   -1.2700 hc        1 1V5      0.107450
     42 H1          5.2610   -1.7840   -1.6240 hc        1 1V5      0.107450
     43 H49         7.3620    0.0810    0.5840 hn        1 1V5      0.454300
     44 H38         7.9530    0.3350    2.9260 ha        1 1V5      0.120000
     45 H23         9.0090    1.1430    4.9670 ha        1 1V5      0.177000
     46 H24         6.5370    4.3440    1.9910 ha        1 1V5      0.166000
     47 H25         7.0950    8.7260    4.3660 h4        1 1V5      0.204000
     48 H22         6.5240    6.5670    2.6850 h4        1 1V5      0.194000
     49 H14         9.4980    6.3330    7.6030 hn        1 1V5      0.473800
     50 H10         9.7630    3.5050    8.3840 h1        1 1V5      0.089700
     51 H8         10.8100    6.1140    9.7270 hc        1 1V5      0.055950
     52 H13         9.2340    5.2960   10.0930 hc        1 1V5      0.055950
     53 H29        10.4220    3.2220   10.7840 hc        1 1V5      0.062200
     54 H7         11.0060    4.6530   11.7220 hc        1 1V5      0.062200
     55 H2         12.2740    5.2620    7.8290 hc        1 1V5      0.055950
     56 H5         11.7390    3.8390    6.8420 hc        1 1V5      0.055950
     57 H3         11.9400    2.3360    8.8150 hc        1 1V5      0.062200
     58 H6         13.4950    3.2010    8.5010 hc        1 1V5      0.062200
     59 H4         13.0270    4.8370   10.3000 h1        1 1V5      0.038700
     60 H11        13.0240    3.2460   11.9650 ho        1 1V5      0.406000
     61 H482        6.1310   -0.0630    1.7020 hn        1 1V5      0.454300
@<TRIPOS>BOND
     1    1    2 1   
     2    2    3 ar  
     3    2    5 ar  
     4    3    4 ar  
     5    3   35 1   
     6    4    7 ar  
     7    4   36 1   
     8    5    6 ar  
     9    5   37 1   
    10    6    7 ar  
    11    6   38 1   
    12    7    8 1   
    13    8    9 1   
    14    8   10 1   
    15    8   11 1   
    16    9   10 1   
    17    9   39 1   
    18    9   40 1   
    19   10   41 1   
    20   10   42 1   
    21   11   12 1   
    22   11   43 1   
    23   11   61 1   
    24   12   13 2   
    25   12   14 1   
    26   14   15 ar  
    27   14   17 ar  
    28   15   16 ar  
    29   15   44 1   
    30   16   26 ar  
    31   16   45 1   
    32   17   18 ar  
    33   17   46 1   
    34   18   19 1   
    35   18   26 ar  
    36   19   20 1   
    37   19   23 1   
    38   20   21 2   
    39   20   24 1   
    40   21   22 1   
    41   22   23 2   
    42   22   47 1   
    43   23   48 1   
    44   24   25 2   
    45   24   27 1   
    46   25   26 1   
    47   27   28 1   
    48   27   49 1   
    49   28   29 1   
    50   28   31 1   
    51   28   50 1   
    52   29   30 1   
    53   29   51 1   
    54   29   52 1   
    55   30   33 1   
    56   30   53 1   
    57   30   54 1   
    58   31   32 1   
    59   31   55 1   
    60   31   56 1   
    61   32   33 1   
    62   32   57 1   
    63   32   58 1   
    64   33   34 1   
    65   33   59 1   
    66   34   60 1   
@<TRIPOS>SUBSTRUCTURE
     1 1V5         1 TEMP              0 ****  ****    0 ROOT
