@<TRIPOS>MOLECULE
1V5
   61    66     1     0     0
SMALL
bcc


@<TRIPOS>ATOM
      1 F60         0.2030   -0.5540    1.5960 f         1 1V5     -0.110900
      2 C53         1.4710   -0.4170    1.1560 ca        1 1V5      0.177900
      3 C52         2.3620   -1.5080    1.2330 ca        1 1V5     -0.165500
      4 C51         3.6660   -1.3590    0.7780 ca        1 1V5     -0.074000
      5 C54         1.9000    0.8140    0.6210 ca        1 1V5     -0.165500
      6 C55         3.2080    0.9460    0.1710 ca        1 1V5     -0.074000
      7 C50         4.0960   -0.1350    0.2470 ca        1 1V5     -0.160300
      8 C16         5.4800    0.0080   -0.2580 cx        1 1V5      0.085500
      9 C47         5.7070    0.4730   -1.6890 cx        1 1V5     -0.089900
     10 C31         5.9810   -0.9520   -1.3320 cx        1 1V5     -0.089900
     11 N48         6.4290    0.4220    0.8110 ny        1 1V5     -0.637800
     12 C27         6.4880    1.9190    1.0890 c         1 1V5      0.579700
     13 O30         5.9740    2.6500    0.2480 o         1 1V5     -0.457100
     14 C39         7.1510    2.3060    2.3210 ca        1 1V5     -0.260600
     15 C45         7.8630    1.4160    3.1580 ca        1 1V5     -0.081000
     16 C37         8.4660    1.8560    4.3090 ca        1 1V5     -0.191300
     17 C40         7.0710    3.6640    2.6700 ca        1 1V5     -0.003000
     18 C32         7.6770    4.1310    3.8390 ca        1 1V5     -0.156600
     19 N41         7.6250    5.4730    4.2310 na        1 1V5      0.023700
     20 C44         8.2520    5.9020    5.4350 cc        1 1V5     -0.214600
     21 N28         8.0810    7.2410    5.6170 nd        1 1V5     -0.229600
     22 C46         7.3440    7.6760    4.5320 cd        1 1V5      0.002600
     23 C18         7.0490    6.5980    3.6580 cc        1 1V5     -0.164100
     24 C43         8.9580    4.9040    6.2680 cc        1 1V5      0.804200
     25 N42         9.0170    3.6030    5.8720 nd        1 1V5     -0.793000
     26 C33         8.4020    3.2290    4.7140 ca        1 1V5      0.533600
     27 N34         9.5120    5.3400    7.4280 nu        1 1V5     -0.803900
     28 C26        10.2710    4.4950    8.3390 c3        1 1V5      0.213500
     29 C35        10.2770    5.0930    9.7580 c3        1 1V5     -0.090400
     30 C19        10.9840    4.1550   10.7090 c3        1 1V5     -0.095400
     31 C21        11.7240    4.2790    7.8790 c3        1 1V5     -0.090400
     32 C36        12.4330    3.3360    8.8230 c3        1 1V5     -0.095400
     33 C20        12.4120    3.8730   10.2510 c3        1 1V5      0.140100
     34 O17        13.0110    2.8710   11.0600 oh        1 1V5     -0.592800
     35 H57         2.0140   -2.4670    1.6460 ha        1 1V5      0.171500
     36 H56         4.3560   -2.2160    0.8200 ha        1 1V5      0.150000
     37 H58         1.1940    1.6570    0.5590 ha        1 1V5      0.171500
     38 H59         3.5520    1.9060   -0.2520 ha        1 1V5      0.150000
     39 H12         6.5500    1.1540   -1.9130 hc        1 1V5      0.107450
     40 H15         4.8070    0.7300   -2.2820 hc        1 1V5      0.107450
     41 H9          7.0270   -1.3120   -1.3100 hc        1 1V5      0.107450
     42 H1          5.2820   -1.7440   -1.6630 hc        1 1V5      0.107450
     43 H49         6.1480   -0.0500    1.6790 hn        1 1V5      0.454300
     44 H38         7.9660    0.3500    2.9040 ha        1 1V5      0.120000
     45 H23         9.0200    1.1470    4.9500 ha        1 1V5      0.177000
     46 H24         6.5220    4.3580    2.0070 ha        1 1V5      0.166000
     47 H25         7.0570    8.7240    4.4180 h4        1 1V5      0.204000
     48 H22         6.4970    6.5750    2.7190 h4        1 1V5      0.194000
     49 H14         9.4800    6.3170    7.6300 hn        1 1V5      0.473800
     50 H10         9.7630    3.4840    8.3870 h1        1 1V5      0.089700
     51 H8         10.7960    6.0880    9.7520 hc        1 1V5      0.055950
     52 H13         9.2250    5.2570   10.1120 hc        1 1V5      0.055950
     53 H29        11.0030    4.6110   11.7330 hc        1 1V5      0.062200
     54 H7         10.4260    3.1840   10.7840 hc        1 1V5      0.062200
     55 H2         11.7360    3.8440    6.8450 hc        1 1V5      0.055950
     56 H5         12.2620    5.2620    7.8450 hc        1 1V5      0.055950
     57 H3         13.4980    3.2030    8.4970 hc        1 1V5      0.062200
     58 H6         11.9480    2.3250    8.8050 hc        1 1V5      0.062200
     59 H4         13.0210    4.8200   10.3120 h1        1 1V5      0.038700
     60 H11        13.0300    3.2130   11.9620 ho        1 1V5      0.406000
     61 H482        7.3740    0.1150    0.5590 hn        1 1V5      0.454300
@<TRIPOS>BOND
     1    1    2 1   
     2    2    3 ar  
     3    2    5 ar  
     4    3    4 ar  
     5    3   35 1   
     6    4    7 ar  
     7    4   36 1   
     8    5    6 ar  
     9    5   37 1   
    10    6    7 ar  
    11    6   38 1   
    12    7    8 1   
    13    8    9 1   
    14    8   10 1   
    15    8   11 1   
    16    9   10 1   
    17    9   39 1   
    18    9   40 1   
    19   10   41 1   
    20   10   42 1   
    21   11   12 1   
    22   11   43 1   
    23   11   61 1   
    24   12   13 2   
    25   12   14 1   
    26   14   15 ar  
    27   14   17 ar  
    28   15   16 ar  
    29   15   44 1   
    30   16   26 ar  
    31   16   45 1   
    32   17   18 ar  
    33   17   46 1   
    34   18   19 1   
    35   18   26 ar  
    36   19   20 1   
    37   19   23 1   
    38   20   21 2   
    39   20   24 1   
    40   21   22 1   
    41   22   23 2   
    42   22   47 1   
    43   23   48 1   
    44   24   25 2   
    45   24   27 1   
    46   25   26 1   
    47   27   28 1   
    48   27   49 1   
    49   28   29 1   
    50   28   31 1   
    51   28   50 1   
    52   29   30 1   
    53   29   51 1   
    54   29   52 1   
    55   30   33 1   
    56   30   53 1   
    57   30   54 1   
    58   31   32 1   
    59   31   55 1   
    60   31   56 1   
    61   32   33 1   
    62   32   57 1   
    63   32   58 1   
    64   33   34 1   
    65   33   59 1   
    66   34   60 1   
@<TRIPOS>SUBSTRUCTURE
     1 1V5         1 TEMP              0 ****  ****    0 ROOT
