@<TRIPOS>MOLECULE
1V6
   33    35     1     0     0
SMALL
bcc


@<TRIPOS>ATOM
      1 CAE         0.2630   -0.1640    0.1310 ca        1 1V6     -0.125000
      2 CAC         1.6370   -0.0750    0.3480 ca        1 1V6     -0.128500
      3 CAB         2.1290    0.1890    1.6270 ca        1 1V6     -0.131000
      4 CAD         1.2410    0.3630    2.6880 ca        1 1V6     -0.128500
      5 CAF        -0.1330    0.2740    2.4730 ca        1 1V6     -0.125000
      6 CAO        -0.6320    0.0090    1.1920 ca        1 1V6     -0.076300
      7 CAL        -2.1020   -0.0690    0.9560 c3        1 1V6      0.005200
      8 CAP        -2.6250   -1.4650    0.9690 ca        1 1V6     -0.068300
      9 CAH        -2.3500   -2.3190    2.0430 ca        1 1V6     -0.132000
     10 CAJ        -2.8650   -3.6110    2.0700 ca        1 1V6     -0.104000
     11 CAG        -3.4240   -1.9290   -0.0810 ca        1 1V6     -0.132000
     12 CAI        -3.9430   -3.2220   -0.0600 ca        1 1V6     -0.104000
     13 CAQ        -3.6720   -4.0740    1.0190 ca        1 1V6     -0.123500
     14 CAS        -4.2200   -5.4260    1.0670 cc        1 1V6      0.423800
     15 NAM        -4.4920   -6.1420   -0.0990 nc        1 1V6     -0.680000
     16 CAR        -4.9940   -7.3510    0.2200 cd        1 1V6      0.596300
     17 NAA        -5.4870   -8.3070   -0.6740 nv        1 1V6     -0.883500
     18 SAN        -5.1330   -7.6220    1.9420 ss        1 1V6     -0.104300
     19 CAK        -4.5020   -6.1100    2.2470 cd        1 1V6     -0.267400
     20 H1         -0.1210   -0.3730   -0.8790 ha        1 1V6      0.132000
     21 H2          2.3340   -0.2130   -0.4910 ha        1 1V6      0.130500
     22 H3          3.2130    0.2590    1.7970 ha        1 1V6      0.131000
     23 H4          1.6250    0.5720    3.6970 ha        1 1V6      0.130500
     24 H5         -0.8300    0.4130    3.3130 ha        1 1V6      0.132000
     25 H6         -2.6430    0.5180    1.7510 hc        1 1V6      0.056700
     26 H7         -2.3410    0.4170   -0.0300 hc        1 1V6      0.056700
     27 H8         -1.7110   -1.9630    2.8670 ha        1 1V6      0.134500
     28 H9         -2.6310   -4.2750    2.9150 ha        1 1V6      0.140500
     29 H10        -3.6460   -1.2700   -0.9340 ha        1 1V6      0.134500
     30 H11        -4.5680   -3.5710   -0.8960 ha        1 1V6      0.140500
     31 H12        -5.4770   -8.0060   -1.6290 hn        1 1V6      0.392800
     32 H13        -5.0290   -9.1900   -0.5650 hn        1 1V6      0.392800
     33 H14        -4.3450   -5.7170    3.2490 h4        1 1V6      0.182000
@<TRIPOS>BOND
     1    1    2 ar  
     2    1    6 ar  
     3    1   20 1   
     4    2    3 ar  
     5    2   21 1   
     6    3    4 ar  
     7    3   22 1   
     8    4    5 ar  
     9    4   23 1   
    10    5    6 ar  
    11    5   24 1   
    12    6    7 1   
    13    7    8 1   
    14    7   25 1   
    15    7   26 1   
    16    8    9 ar  
    17    8   11 ar  
    18    9   10 ar  
    19    9   27 1   
    20   10   13 ar  
    21   10   28 1   
    22   11   12 ar  
    23   11   29 1   
    24   12   13 ar  
    25   12   30 1   
    26   13   14 1   
    27   14   15 1   
    28   14   19 2   
    29   15   16 2   
    30   16   17 1   
    31   16   18 1   
    32   17   31 1   
    33   17   32 1   
    34   18   19 1   
    35   19   33 1   
@<TRIPOS>SUBSTRUCTURE
     1 1V6         1 TEMP              0 ****  ****    0 ROOT
