@<TRIPOS>MOLECULE
1V6
   34    36     1     0     0
SMALL
bcc


@<TRIPOS>ATOM
      1 CAE        -0.1540    0.3150   -0.0210 ca        1 1V6     -0.125000
      2 CAC         1.2160    0.4270   -0.2540 ca        1 1V6     -0.125000
      3 CAB         2.1220    0.2220    0.7860 ca        1 1V6     -0.121000
      4 CAD         1.6550   -0.0930    2.0620 ca        1 1V6     -0.125000
      5 CAF         0.2860   -0.2040    2.2980 ca        1 1V6     -0.125000
      6 CAO        -0.6280   -0.0030    1.2570 ca        1 1V6     -0.093300
      7 CAL        -2.0930   -0.0970    1.5170 c3        1 1V6     -0.002800
      8 CAP        -2.6220   -1.4880    1.4230 ca        1 1V6     -0.025300
      9 CAH        -3.5550   -1.9460    2.3640 ca        1 1V6     -0.128500
     10 CAJ        -4.0770   -3.2320    2.2720 ca        1 1V6     -0.087000
     11 CAG        -2.2270   -2.3400    0.3850 ca        1 1V6     -0.128500
     12 CAI        -2.7470   -3.6270    0.2850 ca        1 1V6     -0.087000
     13 CAQ        -3.6740   -4.0840    1.2320 ca        1 1V6     -0.183500
     14 CAS        -4.2180   -5.4340    1.1580 cc        1 1V6      0.467800
     15 NAM        -4.3830   -6.1040   -0.0330 nc        1 1V6     -0.578000
     16 CAR        -4.9130   -7.3340    0.2230 cd        1 1V6      0.279300
     17 NAA        -5.1910   -8.2520   -0.8660 n4        1 1V6     -0.767300
     18 SAN        -5.2010   -7.6600    1.8710 ss        1 1V6      0.168700
     19 CAK        -4.6280   -6.1830    2.2870 cd        1 1V6     -0.250400
     20 H1         -0.8660    0.4880   -0.8420 ha        1 1V6      0.131500
     21 H2          1.5810    0.6840   -1.2600 ha        1 1V6      0.138000
     22 H3          3.2030    0.3150    0.6020 ha        1 1V6      0.140000
     23 H4          2.3670   -0.2490    2.8860 ha        1 1V6      0.138000
     24 H5         -0.0790   -0.4450    3.3080 ha        1 1V6      0.131500
     25 H6         -2.3140    0.3250    2.5360 hc        1 1V6      0.068700
     26 H7         -2.6500    0.5380    0.7710 hc        1 1V6      0.068700
     27 H8         -3.8780   -1.2850    3.1830 ha        1 1V6      0.153500
     28 H9         -4.8160   -3.5720    3.0130 ha        1 1V6      0.137000
     29 H10        -1.4890   -1.9840   -0.3540 ha        1 1V6      0.153500
     30 H11        -2.4190   -4.2800   -0.5380 ha        1 1V6      0.137000
     31 H12        -5.8290   -7.8070   -1.5430 hn        1 1V6      0.471133
     32 H13        -4.3150   -8.4920   -1.3510 hn        1 1V6      0.471133
     33 H14        -4.5530   -5.8080    3.3130 h4        1 1V6      0.225000
     34 HAA3       -5.6240   -9.1030   -0.4950 hn        1 1V6      0.471133
@<TRIPOS>BOND
     1    1    2 ar  
     2    1    6 ar  
     3    1   20 1   
     4    2    3 ar  
     5    2   21 1   
     6    3    4 ar  
     7    3   22 1   
     8    4    5 ar  
     9    4   23 1   
    10    5    6 ar  
    11    5   24 1   
    12    6    7 1   
    13    7    8 1   
    14    7   25 1   
    15    7   26 1   
    16    8    9 ar  
    17    8   11 ar  
    18    9   10 ar  
    19    9   27 1   
    20   10   13 ar  
    21   10   28 1   
    22   11   12 ar  
    23   11   29 1   
    24   12   13 ar  
    25   12   30 1   
    26   13   14 1   
    27   14   15 1   
    28   14   19 2   
    29   15   16 2   
    30   16   17 1   
    31   16   18 1   
    32   17   31 1   
    33   17   32 1   
    34   17   34 1   
    35   18   19 1   
    36   19   33 1   
@<TRIPOS>SUBSTRUCTURE
     1 1V6         1 TEMP              0 ****  ****    0 ROOT
