@<TRIPOS>MOLECULE
1V6
   33    35     1     0     0
SMALL
bcc


@<TRIPOS>ATOM
      1 CAE         0.1100   -0.0350    0.0540 ca        1 1V6     -0.124000
      2 CAC         1.4960    0.0690    0.1480 ca        1 1V6     -0.128000
      3 CAB         2.1030    0.2410    1.3920 ca        1 1V6     -0.131000
      4 CAD         1.3190    0.3090    2.5430 ca        1 1V6     -0.128000
      5 CAF        -0.0680    0.2060    2.4520 ca        1 1V6     -0.124000
      6 CAO        -0.6830    0.0330    1.2060 ca        1 1V6     -0.074300
      7 CAL        -2.1680   -0.0610    1.1040 c3        1 1V6      0.005200
      8 CAP        -2.6500   -1.4720    1.0930 ca        1 1V6     -0.066300
      9 CAH        -2.9380   -2.1320    2.2940 ca        1 1V6     -0.130500
     10 CAJ        -3.4020   -3.4440    2.2850 ca        1 1V6     -0.103000
     11 CAG        -2.8380   -2.1480   -0.1170 ca        1 1V6     -0.130500
     12 CAI        -3.3030   -3.4610   -0.1320 ca        1 1V6     -0.103000
     13 CAQ        -3.5860   -4.1230    1.0710 ca        1 1V6     -0.121500
     14 CAS        -4.0610   -5.5030    1.0790 cc        1 1V6      0.422800
     15 NAM        -4.7850   -6.0310    0.0110 nc        1 1V6     -0.680000
     16 CAR        -5.1100   -7.3110    0.2730 cd        1 1V6      0.594300
     17 NAA        -5.9310   -8.1370   -0.5020 nh        1 1V6     -0.883500
     18 SAN        -4.5250   -7.8820    1.8190 ss        1 1V6     -0.102300
     19 CAK        -3.8270   -6.3990    2.1200 cd        1 1V6     -0.267400
     20 H1         -0.3680   -0.1740   -0.9270 ha        1 1V6      0.130000
     21 H2          2.1120    0.0140   -0.7620 ha        1 1V6      0.130500
     22 H3          3.1970    0.3230    1.4640 ha        1 1V6      0.130000
     23 H4          1.7940    0.4450    3.5250 ha        1 1V6      0.130500
     24 H5         -0.6840    0.2580    3.3620 ha        1 1V6      0.130000
     25 H6         -2.6380    0.4840    1.9690 hc        1 1V6      0.056200
     26 H7         -2.5070    0.4560    0.1640 hc        1 1V6      0.056200
     27 H8         -2.7960   -1.6090    3.2510 ha        1 1V6      0.131000
     28 H9         -3.6350   -3.9470    3.2350 ha        1 1V6      0.140500
     29 H10        -2.6150   -1.6380   -1.0670 ha        1 1V6      0.131000
     30 H11        -3.4480   -3.9760   -1.0940 ha        1 1V6      0.140500
     31 H12        -5.4620   -8.9780   -0.7740 hn        1 1V6      0.392800
     32 H13        -6.3340   -7.6730   -1.2930 hn        1 1V6      0.392800
     33 H14        -3.2510   -6.1780    3.0160 h4        1 1V6      0.183000
@<TRIPOS>BOND
     1    1    2 ar  
     2    1    6 ar  
     3    1   20 1   
     4    2    3 ar  
     5    2   21 1   
     6    3    4 ar  
     7    3   22 1   
     8    4    5 ar  
     9    4   23 1   
    10    5    6 ar  
    11    5   24 1   
    12    6    7 1   
    13    7    8 1   
    14    7   25 1   
    15    7   26 1   
    16    8    9 ar  
    17    8   11 ar  
    18    9   10 ar  
    19    9   27 1   
    20   10   13 ar  
    21   10   28 1   
    22   11   12 ar  
    23   11   29 1   
    24   12   13 ar  
    25   12   30 1   
    26   13   14 1   
    27   14   15 1   
    28   14   19 2   
    29   15   16 2   
    30   16   17 1   
    31   16   18 1   
    32   17   31 1   
    33   17   32 1   
    34   18   19 1   
    35   19   33 1   
@<TRIPOS>SUBSTRUCTURE
     1 1V6         1 TEMP              0 ****  ****    0 ROOT
