@<TRIPOS>MOLECULE
1V8
   30    33     1     0     0
SMALL
bcc


@<TRIPOS>ATOM
      1 CAI        -0.0830    0.4320   -0.0550 ca        1 1V8     -0.073000
      2 CAH         1.2940    0.3940   -0.0440 ca        1 1V8      0.047100
      3 OAK         2.1630    0.7290    0.9900 os        1 1V8     -0.329900
      4 CAM         3.5050    0.5140    0.4940 c3        1 1V8      0.320200
      5 OAL         3.4020    0.0390   -0.8700 os        1 1V8     -0.329900
      6 CAJ         2.0490   -0.0260   -1.1730 ca        1 1V8      0.078100
      7 CAP         1.4420   -0.4220   -2.3470 ca        1 1V8     -0.121000
      8 CAO         0.0370   -0.3850   -2.3680 ca        1 1V8     -0.095000
      9 CAG        -0.7090    0.0340   -1.2610 ca        1 1V8     -0.079800
     10 CAA        -2.1710    0.0690   -1.3500 cc        1 1V8      0.197900
     11 OAC        -2.7570   -0.1390   -0.1080 os        1 1V8     -0.225200
     12 CAF        -4.1420   -0.1230   -0.0560 ca        1 1V8      0.142100
     13 CAR        -4.6950   -0.3350    1.2210 ca        1 1V8     -0.159000
     14 CAT        -6.0770   -0.3350    1.3550 ca        1 1V8     -0.078000
     15 CAS        -6.9040   -0.1290    0.2440 ca        1 1V8     -0.165000
     16 CAQ        -6.3490    0.0790   -1.0120 ca        1 1V8     -0.046000
     17 CAE        -4.9560    0.0850   -1.1800 ca        1 1V8     -0.214600
     18 CAD        -4.3400    0.3030   -2.4980 c         1 1V8      0.589900
     19 OAN        -4.9980    0.4880   -3.5320 o         1 1V8     -0.544100
     20 CAB        -2.8790    0.2850   -2.4820 cd        1 1V8     -0.318200
     21 H1         -0.6720    0.7500    0.8160 ha        1 1V8      0.171000
     22 H2          3.9910   -0.2810    1.1110 h2        1 1V8      0.076700
     23 H3          4.0460    1.4920    0.4900 h2        1 1V8      0.076700
     24 H4          2.0190   -0.7510   -3.2200 ha        1 1V8      0.162000
     25 H5         -0.4820   -0.7040   -3.2860 ha        1 1V8      0.150000
     26 H6         -4.0320   -0.4970    2.0820 ha        1 1V8      0.155000
     27 H7         -6.5260   -0.5000    2.3470 ha        1 1V8      0.140000
     28 H8         -7.9970   -0.1320    0.3690 ha        1 1V8      0.142000
     29 H9         -6.9860    0.2430   -1.8980 ha        1 1V8      0.161000
     30 H10        -2.3730    0.4650   -3.4430 ha        1 1V8      0.168000
@<TRIPOS>BOND
     1    1    2 ar  
     2    1    9 ar  
     3    1   21 1   
     4    2    3 1   
     5    2    6 ar  
     6    3    4 1   
     7    4    5 1   
     8    4   22 1   
     9    4   23 1   
    10    5    6 1   
    11    6    7 ar  
    12    7    8 ar  
    13    7   24 1   
    14    8    9 ar  
    15    8   25 1   
    16    9   10 1   
    17   10   11 1   
    18   10   20 2   
    19   11   12 1   
    20   12   13 ar  
    21   12   17 ar  
    22   13   14 ar  
    23   13   26 1   
    24   14   15 ar  
    25   14   27 1   
    26   15   16 ar  
    27   15   28 1   
    28   16   17 ar  
    29   16   29 1   
    30   17   18 1   
    31   18   19 2   
    32   18   20 1   
    33   20   30 1   
@<TRIPOS>SUBSTRUCTURE
     1 1V8         1 TEMP              0 ****  ****    0 ROOT
