@<TRIPOS>MOLECULE
1V8
   30    33     1     0     0
SMALL
bcc


@<TRIPOS>ATOM
      1 CAI        -0.0830    0.4330   -0.0560 ca        1 1V8     -0.073000
      2 CAH         1.2940    0.3970   -0.0450 ca        1 1V8      0.047100
      3 OAK         2.1630    0.7310    0.9890 os        1 1V8     -0.329900
      4 CAM         3.5050    0.5200    0.4910 c3        1 1V8      0.320200
      5 OAL         3.4010    0.0490   -0.8740 os        1 1V8     -0.329900
      6 CAJ         2.0480   -0.0180   -1.1760 ca        1 1V8      0.078100
      7 CAP         1.4410   -0.4120   -2.3510 ca        1 1V8     -0.121000
      8 CAO         0.0360   -0.3770   -2.3700 ca        1 1V8     -0.095000
      9 CAG        -0.7100    0.0370   -1.2620 ca        1 1V8     -0.079800
     10 CAA        -2.1720    0.0700   -1.3490 cc        1 1V8      0.197900
     11 OAC        -2.7560   -0.1420   -0.1080 os        1 1V8     -0.225200
     12 CAF        -4.1420   -0.1290   -0.0540 ca        1 1V8      0.142100
     13 CAR        -4.6930   -0.3450    1.2220 ca        1 1V8     -0.159000
     14 CAT        -6.0750   -0.3480    1.3570 ca        1 1V8     -0.078000
     15 CAS        -6.9030   -0.1400    0.2470 ca        1 1V8     -0.165000
     16 CAQ        -6.3500    0.0720   -1.0090 ca        1 1V8     -0.046000
     17 CAE        -4.9560    0.0810   -1.1780 ca        1 1V8     -0.214600
     18 CAD        -4.3430    0.3040   -2.4950 c         1 1V8      0.589900
     19 OAN        -5.0010    0.4900   -3.5280 o         1 1V8     -0.544100
     20 CAB        -2.8810    0.2880   -2.4810 cd        1 1V8     -0.318200
     21 H1         -0.6720    0.7470    0.8170 ha        1 1V8      0.171000
     22 H2          3.9930   -0.2760    1.1060 h2        1 1V8      0.076700
     23 H3          4.0440    1.4990    0.4900 h2        1 1V8      0.076700
     24 H4          2.0190   -0.7370   -3.2250 ha        1 1V8      0.162000
     25 H5         -0.4830   -0.6940   -3.2890 ha        1 1V8      0.150000
     26 H6         -4.0290   -0.5080    2.0820 ha        1 1V8      0.155000
     27 H7         -6.5230   -0.5160    2.3490 ha        1 1V8      0.140000
     28 H8         -7.9960   -0.1460    0.3730 ha        1 1V8      0.142000
     29 H9         -6.9870    0.2370   -1.8930 ha        1 1V8      0.161000
     30 H10        -2.3760    0.4720   -3.4410 ha        1 1V8      0.168000
@<TRIPOS>BOND
     1    1    2 ar  
     2    1    9 ar  
     3    1   21 1   
     4    2    3 1   
     5    2    6 ar  
     6    3    4 1   
     7    4    5 1   
     8    4   22 1   
     9    4   23 1   
    10    5    6 1   
    11    6    7 ar  
    12    7    8 ar  
    13    7   24 1   
    14    8    9 ar  
    15    8   25 1   
    16    9   10 1   
    17   10   11 1   
    18   10   20 2   
    19   11   12 1   
    20   12   13 ar  
    21   12   17 ar  
    22   13   14 ar  
    23   13   26 1   
    24   14   15 ar  
    25   14   27 1   
    26   15   16 ar  
    27   15   28 1   
    28   16   17 ar  
    29   16   29 1   
    30   17   18 1   
    31   18   19 2   
    32   18   20 1   
    33   20   30 1   
@<TRIPOS>SUBSTRUCTURE
     1 1V8         1 TEMP              0 ****  ****    0 ROOT
