@<TRIPOS>MOLECULE
1V8
   30    26     1     0     0
SMALL
bcc


@<TRIPOS>ATOM
      1 CAI         1.9730    1.0110    0.4710 c1        1 1V8     -0.084000
      2 CAH         3.3960    1.0100    0.3880 c1        1 1V8      0.003000
      3 OAK         4.3400    2.0690    0.3550 o         1 1V8     -0.213000
      4 CAM         5.6440    1.4990    0.1910 c3        1 1V8      0.098000
      5 OAL         5.5030    0.1210    0.1450 os        1 1V8     -0.213000
      6 CAJ         4.0850   -0.1880    0.2330 c2        1 1V8      0.033000
      7 CAP         3.3690   -1.4070    0.1580 c2        1 1V8     -0.122000
      8 CAO         1.9510   -1.4020    0.2410 c1        1 1V8     -0.085000
      9 CAG         1.2640   -0.1930    0.3970 c1        1 1V8     -0.068000
     10 CAA        -0.2730   -0.1750    0.3650 c2        1 1V8      0.119000
     11 OAC        -0.9570   -0.0760   -0.8740 os        1 1V8     -0.137000
     12 CAF        -2.4580   -0.1340   -0.9120 c2        1 1V8      0.119000
     13 CAR        -3.1160   -0.1530   -2.1350 c2        1 1V8     -0.159000
     14 CAT        -4.5050   -0.2050   -2.1790 c1        1 1V8     -0.078000
     15 CAS        -5.2460   -0.2390   -0.9880 c1        1 1V8     -0.105500
     16 CAQ        -4.5860   -0.2200    0.2440 c1        1 1V8     -0.105500
     17 CAE        -3.1930   -0.1680    0.2860 c1        1 1V8     -0.194000
     18 CAD        -2.4810   -0.2460    1.5950 c1        1 1V8      0.311000
     19 OAN        -3.1290   -0.2140    2.6620 o         1 1V8     -0.304000
     20 CAB        -1.0430   -0.3020    1.6260 c1        1 1V8     -0.297000
     21 H1          1.4690    1.8940    0.5870 ha        1 1V8      0.166000
     22 H2          6.1930    1.7360    0.9530 h2        1 1V8      0.116000
     23 H3          6.0360    1.8190   -0.6740 h2        1 1V8      0.116000
     24 H4          3.8370   -2.2290    0.0520 ha        1 1V8      0.162000
     25 H5          1.4190   -2.3050    0.1870 ha        1 1V8      0.155000
     26 H6         -2.6300   -0.1290   -2.9200 ha        1 1V8      0.154000
     27 H7         -4.9640   -0.2190   -3.0370 ha        1 1V8      0.140000
     28 H8         -6.2120   -0.2750   -1.0210 ha        1 1V8      0.151500
     29 H9         -5.1230   -0.2420    1.1110 ha        1 1V8      0.151500
     30 H10        -0.5650   -0.4370    2.4930 ha        1 1V8      0.170000
@<TRIPOS>BOND
     1    1    9 1   
     2    1   21 1   
     3    2    6 1   
     4    3    4 1   
     5    4    5 1   
     6    4   22 1   
     7    4   23 1   
     8    5    6 1   
     9    6    7 1   
    10    7    8 1   
    11    7   24 1   
    12    8   25 1   
    13    9   10 1   
    14   10   11 1   
    15   10   20 1   
    16   11   12 1   
    17   12   13 1   
    18   12   17 1   
    19   13   14 1   
    20   13   26 1   
    21   14   27 1   
    22   15   16 1   
    23   15   28 1   
    24   16   29 1   
    25   18   19 1   
    26   20   30 1   
@<TRIPOS>SUBSTRUCTURE
     1 1V8         1 TEMP              0 ****  ****    0 ROOT
