@<TRIPOS>MOLECULE
1V8
   30    33     1     0     0
SMALL
bcc


@<TRIPOS>ATOM
      1 CAI        -1.7020    0.7020    0.3830 ca        1 1V8     -0.073000
      2 CAH        -3.0780    0.6900    0.3270 ca        1 1V8      0.047100
      3 OAK        -3.9680    1.7140    0.6360 os        1 1V8     -0.329900
      4 CAM        -5.2990    1.1920    0.4130 c3        1 1V8      0.320200
      5 OAL        -5.1680   -0.1770   -0.0390 os        1 1V8     -0.329900
      6 CAJ        -3.8090   -0.4580   -0.0830 ca        1 1V8      0.078100
      7 CAP        -3.1780   -1.6280   -0.4540 ca        1 1V8     -0.121000
      8 CAO        -1.7730   -1.6250   -0.4010 ca        1 1V8     -0.095000
      9 CAG        -1.0510   -0.4990    0.0100 ca        1 1V8     -0.079800
     10 CAA         0.4120   -0.5630    0.0650 cc        1 1V8      0.197900
     11 OAC         0.9790    0.6850   -0.1560 os        1 1V8     -0.225200
     12 CAF         2.3630    0.7610   -0.1240 ca        1 1V8      0.142100
     13 CAR         2.8970    2.0430   -0.3500 ca        1 1V8     -0.159000
     14 CAT         4.2770    2.2000   -0.3360 ca        1 1V8     -0.078000
     15 CAS         5.1190    1.1060   -0.1020 ca        1 1V8     -0.165000
     16 CAQ         4.5830   -0.1560    0.1190 ca        1 1V8     -0.046000
     17 CAE         3.1920   -0.3460    0.1110 ca        1 1V8     -0.214600
     18 CAD         2.5970   -1.6710    0.3420 c         1 1V8      0.589900
     19 OAN         3.2690   -2.6910    0.5510 o         1 1V8     -0.544100
     20 CAB         1.1350   -1.6800    0.3060 cd        1 1V8     -0.318200
     21 H1         -1.1310    1.5870    0.6930 ha        1 1V8      0.171000
     22 H2         -5.8520    1.1940    1.3850 h2        1 1V8      0.076700
     23 H3         -5.7860    1.7890   -0.3970 h2        1 1V8      0.076700
     24 H4         -3.7370   -2.5150   -0.7760 ha        1 1V8      0.162000
     25 H5         -1.2350   -2.5390   -0.6990 ha        1 1V8      0.150000
     26 H6          2.2220    2.8900   -0.5330 ha        1 1V8      0.155000
     27 H7          4.7110    3.1970   -0.5100 ha        1 1V8      0.140000
     28 H8          6.2100    1.2500   -0.0940 ha        1 1V8      0.142000
     29 H9          5.2320   -1.0280    0.3040 ha        1 1V8      0.161000
     30 H10         0.6430   -2.6460    0.4950 ha        1 1V8      0.168000
@<TRIPOS>BOND
     1    1    2 ar  
     2    1    9 ar  
     3    1   21 1   
     4    2    3 1   
     5    2    6 ar  
     6    3    4 1   
     7    4    5 1   
     8    4   22 1   
     9    4   23 1   
    10    5    6 1   
    11    6    7 ar  
    12    7    8 ar  
    13    7   24 1   
    14    8    9 ar  
    15    8   25 1   
    16    9   10 1   
    17   10   11 1   
    18   10   20 2   
    19   11   12 1   
    20   12   13 ar  
    21   12   17 ar  
    22   13   14 ar  
    23   13   26 1   
    24   14   15 ar  
    25   14   27 1   
    26   15   16 ar  
    27   15   28 1   
    28   16   17 ar  
    29   16   29 1   
    30   17   18 1   
    31   18   19 2   
    32   18   20 1   
    33   20   30 1   
@<TRIPOS>SUBSTRUCTURE
     1 1V8         1 TEMP              0 ****  ****    0 ROOT
