@<TRIPOS>MOLECULE
1V9
   47    49     1     0     0
SMALL
bcc


@<TRIPOS>ATOM
      1 CAI        -0.2040    0.2310   -0.2270 ca        1 1V9     -0.104000
      2 CAE         1.1330    0.4940   -0.5240 ca        1 1V9     -0.117000
      3 CAD         2.0450    0.7330    0.5050 ca        1 1V9     -0.079000
      4 CAF         1.6200    0.7110    1.8350 ca        1 1V9     -0.117000
      5 CAJ         0.2850    0.4530    2.1370 ca        1 1V9     -0.104000
      6 CAT        -0.6320    0.2130    1.1060 ca        1 1V9     -0.191300
      7 CAY        -2.0790   -0.0380    1.4070 c3        1 1V9      0.196800
      8 CAM        -2.6580    1.0400    2.3260 c3        1 1V9     -0.105400
      9 CAA        -4.1630    1.0290    2.3640 c3        1 1V9     -0.113100
     10 NAQ        -2.2150   -1.4310    2.0070 n4        1 1V9     -0.686800
     11 CAS        -3.5650   -2.0720    1.7750 c         1 1V9      0.543100
     12 OAB        -4.0070   -2.0210    0.6370 o         1 1V9     -0.414100
     13 CAN        -4.1760   -2.7220    2.9830 c3        1 1V9     -0.144400
     14 CAO        -5.5160   -3.3390    2.6300 c3        1 1V9     -0.117700
     15 CAU        -6.1700   -4.0170    3.8250 cc        1 1V9      0.478900
     16 NAP        -5.5690   -4.0060    5.0010 nd        1 1V9     -0.646100
     17 CAW        -6.2040   -4.6410    6.0780 ca        1 1V9      0.168400
     18 CAK        -5.5940   -4.6530    7.3540 ca        1 1V9     -0.121000
     19 CAG        -6.2260   -5.2840    8.4170 ca        1 1V9     -0.087000
     20 CAH        -7.4650   -5.9130    8.2500 ca        1 1V9     -0.134000
     21 CAL        -8.0830   -5.9150    7.0050 ca        1 1V9     -0.054000
     22 CAX        -7.4620   -5.2840    5.9210 ca        1 1V9     -0.177600
     23 CAV        -8.1080   -5.2800    4.5970 c         1 1V9      0.711100
     24 OAC        -9.2000   -5.8000    4.3210 o         1 1V9     -0.588500
     25 NAR        -7.4030   -4.6200    3.5680 n         1 1V9     -0.498400
     26 H1         -0.9200    0.0520   -1.0450 ha        1 1V9      0.139000
     27 H2          1.4650    0.5170   -1.5740 ha        1 1V9      0.160500
     28 H3          3.1010    0.9430    0.2680 ha        1 1V9      0.162000
     29 H4          2.3400    0.9050    2.6470 ha        1 1V9      0.160500
     30 H5         -0.0460    0.4580    3.1870 ha        1 1V9      0.139000
     31 H6         -2.6750   -0.0570    0.4410 hx        1 1V9      0.123700
     32 H7         -2.2380    0.9520    3.3630 hc        1 1V9      0.085700
     33 H8         -2.3040    2.0290    1.9170 hc        1 1V9      0.085700
     34 H9         -4.5920    1.1780    1.3430 hc        1 1V9      0.053033
     35 H10        -4.5300    1.8580    3.0190 hc        1 1V9      0.053033
     36 H11        -4.5530    0.0650    2.7740 hc        1 1V9      0.053033
     37 H12        -2.0270   -1.3800    3.0120 hn        1 1V9      0.457800
     38 H13        -3.4760   -3.5150    3.3710 hc        1 1V9      0.119700
     39 H14        -4.3070   -1.9540    3.7970 hc        1 1V9      0.119700
     40 H15        -6.2070   -2.5410    2.2440 hc        1 1V9      0.088200
     41 H16        -5.3780   -4.0990    1.8120 hc        1 1V9      0.088200
     42 H17        -4.6200   -4.1630    7.5030 ha        1 1V9      0.146000
     43 H18        -5.7450   -5.2890    9.4080 ha        1 1V9      0.148000
     44 H19        -7.9490   -6.4080    9.1060 ha        1 1V9      0.154000
     45 H20        -9.0590   -6.4060    6.8530 ha        1 1V9      0.169000
     46 H21        -7.7980   -4.5910    2.6550 hn        1 1V9      0.340500
     47 HAQ2       -1.4980   -2.0260    1.5720 hn        1 1V9      0.457800
@<TRIPOS>BOND
     1    1    2 ar  
     2    1    6 ar  
     3    1   26 1   
     4    2    3 ar  
     5    2   27 1   
     6    3    4 ar  
     7    3   28 1   
     8    4    5 ar  
     9    4   29 1   
    10    5    6 ar  
    11    5   30 1   
    12    6    7 1   
    13    7    8 1   
    14    7   10 1   
    15    7   31 1   
    16    8    9 1   
    17    8   32 1   
    18    8   33 1   
    19    9   34 1   
    20    9   35 1   
    21    9   36 1   
    22   10   11 1   
    23   10   37 1   
    24   10   47 1   
    25   11   12 2   
    26   11   13 1   
    27   13   14 1   
    28   13   38 1   
    29   13   39 1   
    30   14   15 1   
    31   14   40 1   
    32   14   41 1   
    33   15   16 2   
    34   15   25 1   
    35   16   17 1   
    36   17   18 ar  
    37   17   22 ar  
    38   18   19 ar  
    39   18   42 1   
    40   19   20 ar  
    41   19   43 1   
    42   20   21 ar  
    43   20   44 1   
    44   21   22 ar  
    45   21   45 1   
    46   22   23 1   
    47   23   24 2   
    48   23   25 1   
    49   25   46 1   
@<TRIPOS>SUBSTRUCTURE
     1 1V9         1 TEMP              0 ****  ****    0 ROOT
