@<TRIPOS>MOLECULE
1V9
   47    49     1     0     0
SMALL
bcc


@<TRIPOS>ATOM
      1 CAI        -0.2130    0.2310   -0.2360 ca        1 1V9     -0.104000
      2 CAE         1.1230    0.4960   -0.5360 ca        1 1V9     -0.117000
      3 CAD         2.0390    0.7310    0.4900 ca        1 1V9     -0.079000
      4 CAF         1.6190    0.7050    1.8220 ca        1 1V9     -0.117000
      5 CAJ         0.2850    0.4470    2.1270 ca        1 1V9     -0.104000
      6 CAT        -0.6360    0.2100    1.0980 ca        1 1V9     -0.191300
      7 CAY        -2.0820   -0.0420    1.4030 c3        1 1V9      0.196800
      8 CAM        -2.6580    1.0330    2.3280 c3        1 1V9     -0.105400
      9 CAA        -4.1620    1.0240    2.3690 c3        1 1V9     -0.113100
     10 NAQ        -2.2160   -1.4380    1.9970 n4        1 1V9     -0.686800
     11 CAS        -3.5690   -2.0750    1.7700 c         1 1V9      0.543100
     12 OAB        -4.0150   -2.0210    0.6350 o         1 1V9     -0.414100
     13 CAN        -4.1760   -2.7250    2.9810 c3        1 1V9     -0.144400
     14 CAO        -5.5230   -3.3320    2.6350 c3        1 1V9     -0.117700
     15 CAU        -6.1730   -4.0090    3.8320 cc        1 1V9      0.478900
     16 NAP        -5.5640   -4.0060    5.0030 nd        1 1V9     -0.646100
     17 CAW        -6.1960   -4.6410    6.0830 ca        1 1V9      0.168400
     18 CAK        -5.5770   -4.6620    7.3540 ca        1 1V9     -0.121000
     19 CAG        -6.2060   -5.2920    8.4190 ca        1 1V9     -0.087000
     20 CAH        -7.4510   -5.9120    8.2590 ca        1 1V9     -0.134000
     21 CAL        -8.0780   -5.9040    7.0190 ca        1 1V9     -0.054000
     22 CAX        -7.4590   -5.2740    5.9330 ca        1 1V9     -0.177600
     23 CAV        -8.1160   -5.2600    4.6130 c         1 1V9      0.711100
     24 OAC        -9.2130   -5.7710    4.3430 o         1 1V9     -0.588500
     25 NAR        -7.4130   -4.6010    3.5810 n         1 1V9     -0.498400
     26 H1         -0.9310    0.0560   -1.0530 ha        1 1V9      0.139000
     27 H2          1.4530    0.5210   -1.5880 ha        1 1V9      0.160500
     28 H3          3.0940    0.9420    0.2500 ha        1 1V9      0.162000
     29 H4          2.3410    0.8970    2.6310 ha        1 1V9      0.160500
     30 H5         -0.0430    0.4490    3.1780 ha        1 1V9      0.139000
     31 H6         -2.6810   -0.0570    0.4390 hx        1 1V9      0.123700
     32 H7         -2.3020    2.0230    1.9250 hc        1 1V9      0.085700
     33 H8         -2.2360    0.9380    3.3640 hc        1 1V9      0.085700
     34 H9         -4.5930    1.1800    1.3490 hc        1 1V9      0.053033
     35 H10        -4.5540    0.0580    2.7740 hc        1 1V9      0.053033
     36 H11        -4.5270    1.8490    3.0300 hc        1 1V9      0.053033
     37 H12        -2.0220   -1.3910    3.0020 hn        1 1V9      0.457800
     38 H13        -4.2960   -1.9590    3.7990 hc        1 1V9      0.119200
     39 H14        -3.4780   -3.5250    3.3610 hc        1 1V9      0.119200
     40 H15        -6.2110   -2.5270    2.2560 hc        1 1V9      0.088200
     41 H16        -5.3950   -4.0890    1.8140 hc        1 1V9      0.088200
     42 H17        -4.5980   -4.1800    7.4980 ha        1 1V9      0.146000
     43 H18        -5.7180   -5.3050    9.4070 ha        1 1V9      0.148000
     44 H19        -7.9330   -6.4060    9.1170 ha        1 1V9      0.154000
     45 H20        -9.0590   -6.3870    6.8720 ha        1 1V9      0.169000
     46 H21        -7.8140   -4.5670    2.6710 hn        1 1V9      0.340500
     47 HAQ2       -1.5020   -2.0320    1.5550 hn        1 1V9      0.457800
@<TRIPOS>BOND
     1    1    2 ar  
     2    1    6 ar  
     3    1   26 1   
     4    2    3 ar  
     5    2   27 1   
     6    3    4 ar  
     7    3   28 1   
     8    4    5 ar  
     9    4   29 1   
    10    5    6 ar  
    11    5   30 1   
    12    6    7 1   
    13    7    8 1   
    14    7   10 1   
    15    7   31 1   
    16    8    9 1   
    17    8   32 1   
    18    8   33 1   
    19    9   34 1   
    20    9   35 1   
    21    9   36 1   
    22   10   11 1   
    23   10   37 1   
    24   10   47 1   
    25   11   12 2   
    26   11   13 1   
    27   13   14 1   
    28   13   38 1   
    29   13   39 1   
    30   14   15 1   
    31   14   40 1   
    32   14   41 1   
    33   15   16 2   
    34   15   25 1   
    35   16   17 1   
    36   17   18 ar  
    37   17   22 ar  
    38   18   19 ar  
    39   18   42 1   
    40   19   20 ar  
    41   19   43 1   
    42   20   21 ar  
    43   20   44 1   
    44   21   22 ar  
    45   21   45 1   
    46   22   23 1   
    47   23   24 2   
    48   23   25 1   
    49   25   46 1   
@<TRIPOS>SUBSTRUCTURE
     1 1V9         1 TEMP              0 ****  ****    0 ROOT
