@<TRIPOS>MOLECULE
1V9
   47    49     1     0     0
SMALL
bcc


@<TRIPOS>ATOM
      1 CAI        -0.2150    0.2340   -0.2360 ca        1 1V9     -0.104000
      2 CAE         1.1210    0.4820   -0.5470 ca        1 1V9     -0.117000
      3 CAD         2.0510    0.6890    0.4730 ca        1 1V9     -0.079000
      4 CAF         1.6440    0.6490    1.8080 ca        1 1V9     -0.117000
      5 CAJ         0.3100    0.4070    2.1240 ca        1 1V9     -0.104000
      6 CAT        -0.6250    0.1990    1.1020 ca        1 1V9     -0.191300
      7 CAY        -2.0710   -0.0350    1.4190 c3        1 1V9      0.196800
      8 CAM        -2.6220    1.0350    2.3640 c3        1 1V9     -0.105400
      9 CAA        -4.1250    1.0460    2.4220 c3        1 1V9     -0.113100
     10 NAQ        -2.2210   -1.4370    1.9940 ny        1 1V9     -0.686800
     11 CAS        -3.5850   -2.0520    1.7710 c         1 1V9      0.543100
     12 OAB        -4.0410   -1.9740    0.6400 o         1 1V9     -0.414100
     13 CAN        -4.1890   -2.7120    2.9770 c3        1 1V9     -0.144400
     14 CAO        -5.5460   -3.2980    2.6330 c3        1 1V9     -0.117700
     15 CAU        -6.1940   -3.9850    3.8260 cc        1 1V9      0.478900
     16 NAP        -5.5770   -4.0050    4.9920 nd        1 1V9     -0.646100
     17 CAW        -6.2070   -4.6480    6.0680 ca        1 1V9      0.168400
     18 CAK        -5.5790   -4.6930    7.3340 ca        1 1V9     -0.121000
     19 CAG        -6.2070   -5.3310    8.3950 ca        1 1V9     -0.087000
     20 CAH        -7.4600   -5.9350    8.2360 ca        1 1V9     -0.134000
     21 CAL        -8.0960   -5.9030    7.0010 ca        1 1V9     -0.054000
     22 CAX        -7.4790   -5.2650    5.9190 ca        1 1V9     -0.177600
     23 CAV        -8.1450   -5.2260    4.6050 c         1 1V9      0.711100
     24 OAC        -9.2490   -5.7210    4.3360 o         1 1V9     -0.588500
     25 NAR        -7.4420   -4.5610    3.5770 ns        1 1V9     -0.498400
     26 H1         -0.9440    0.0810   -1.0480 ha        1 1V9      0.139000
     27 H2          1.4410    0.5190   -1.6010 ha        1 1V9      0.160500
     28 H3          3.1070    0.8870    0.2250 ha        1 1V9      0.162000
     29 H4          2.3780    0.8180    2.6130 ha        1 1V9      0.160500
     30 H5         -0.0070    0.3980    3.1780 ha        1 1V9      0.139000
     31 H6         -2.6810   -0.0270    0.4610 hx        1 1V9      0.123700
     32 H7         -2.1890    0.9200    3.3940 hc        1 1V9      0.085700
     33 H8         -2.2570    2.0250    1.9690 hc        1 1V9      0.085700
     34 H9         -4.5260    0.0810    2.8190 hc        1 1V9      0.053033
     35 H10        -4.5650    1.2220    1.4090 hc        1 1V9      0.053033
     36 H11        -4.4710    1.8690    3.0970 hc        1 1V9      0.053033
     37 H12        -1.5200   -2.0350    1.5380 hn        1 1V9      0.457800
     38 H13        -4.2940   -1.9560    3.8060 hc        1 1V9      0.119200
     39 H14        -3.4980   -3.5250    3.3400 hc        1 1V9      0.119200
     40 H15        -6.2280   -2.4810    2.2720 hc        1 1V9      0.088200
     41 H16        -5.4340   -4.0450    1.8000 hc        1 1V9      0.088200
     42 H17        -4.5940   -4.2240    7.4770 ha        1 1V9      0.146000
     43 H18        -5.7120   -5.3620    9.3790 ha        1 1V9      0.148000
     44 H19        -7.9410   -6.4350    9.0910 ha        1 1V9      0.154000
     45 H20        -9.0830   -6.3730    6.8550 ha        1 1V9      0.169000
     46 H21        -7.8500   -4.5090    2.6700 hn        1 1V9      0.340500
     47 HAQ2       -2.0180   -1.4070    2.9980 hn        1 1V9      0.457800
@<TRIPOS>BOND
     1    1    2 ar  
     2    1    6 ar  
     3    1   26 1   
     4    2    3 ar  
     5    2   27 1   
     6    3    4 ar  
     7    3   28 1   
     8    4    5 ar  
     9    4   29 1   
    10    5    6 ar  
    11    5   30 1   
    12    6    7 1   
    13    7    8 1   
    14    7   10 1   
    15    7   31 1   
    16    8    9 1   
    17    8   32 1   
    18    8   33 1   
    19    9   34 1   
    20    9   35 1   
    21    9   36 1   
    22   10   11 1   
    23   10   37 1   
    24   10   47 1   
    25   11   12 2   
    26   11   13 1   
    27   13   14 1   
    28   13   38 1   
    29   13   39 1   
    30   14   15 1   
    31   14   40 1   
    32   14   41 1   
    33   15   16 2   
    34   15   25 1   
    35   16   17 1   
    36   17   18 ar  
    37   17   22 ar  
    38   18   19 ar  
    39   18   42 1   
    40   19   20 ar  
    41   19   43 1   
    42   20   21 ar  
    43   20   44 1   
    44   21   22 ar  
    45   21   45 1   
    46   22   23 1   
    47   23   24 2   
    48   23   25 1   
    49   25   46 1   
@<TRIPOS>SUBSTRUCTURE
     1 1V9         1 TEMP              0 ****  ****    0 ROOT
