@<TRIPOS>MOLECULE
1VA
   48    50     1     0     0
SMALL
bcc


@<TRIPOS>ATOM
      1 CAI         0.0730    0.7030    0.5640 ca        1 1VA     -0.133000
      2 CAE         1.4130    0.9370    0.8700 ca        1 1VA     -0.114500
      3 CAD         1.8820    0.7200    2.1660 ca        1 1VA     -0.100000
      4 CAF         1.0080    0.2740    3.1580 ca        1 1VA     -0.114500
      5 CAJ        -0.3330    0.0410    2.8560 ca        1 1VA     -0.133000
      6 CAU        -0.8070    0.2510    1.5560 ca        1 1VA     -0.157300
      7 CAP        -2.2430    0.0320    1.2360 c3        1 1VA     -0.054100
      8 CAZ        -2.5600   -1.4500    0.9860 c3        1 1VA      0.118500
      9 CAM        -4.0340   -1.6110    0.5610 c3        1 1VA      0.111400
     10 OAC        -4.1530   -1.1630   -0.7770 oh        1 1VA     -0.633800
     11 NAR        -1.6250   -2.0280   -0.0440 ny        1 1VA     -0.678800
     12 CAT        -1.5470   -3.5380   -0.0210 c         1 1VA      0.545100
     13 OAA        -1.5800   -4.0760    1.0750 o         1 1VA     -0.418100
     14 CAN        -1.4280   -4.1800   -1.3730 c3        1 1VA     -0.144400
     15 CAO        -1.2470   -5.6790   -1.2300 c3        1 1VA     -0.117700
     16 CAV        -1.1320   -6.3770   -2.5780 cc        1 1VA      0.478900
     17 NAQ        -1.1670   -5.6710   -3.6920 nd        1 1VA     -0.643100
     18 CAX        -1.0560   -6.3500   -4.9140 ca        1 1VA      0.168400
     19 CAK        -1.0900   -5.6310   -6.1310 ca        1 1VA     -0.120000
     20 CAG        -0.9790   -6.3080   -7.3380 ca        1 1VA     -0.087000
     21 CAH        -0.8350   -7.7000   -7.3750 ca        1 1VA     -0.134000
     22 CAL        -0.7990   -8.4280   -6.1920 ca        1 1VA     -0.055000
     23 CAY        -0.9090   -7.7630   -4.9650 ca        1 1VA     -0.177600
     24 CAW        -0.8730   -8.5250   -3.7040 c         1 1VA      0.711100
     25 OAB        -0.7490   -9.7550   -3.6030 o         1 1VA     -0.589500
     26 NAS        -0.9910   -7.7650   -2.5200 ns        1 1VA     -0.499400
     27 H1         -0.3000    0.9190   -0.4490 ha        1 1VA      0.137000
     28 H2          2.0980    1.3070    0.0910 ha        1 1VA      0.155500
     29 H3          2.9390    0.9130    2.4090 ha        1 1VA      0.158000
     30 H4          1.3740    0.1160    4.1850 ha        1 1VA      0.155500
     31 H5         -1.0230   -0.2930    3.6460 ha        1 1VA      0.137000
     32 H6         -2.8830    0.3640    2.0990 hc        1 1VA      0.092200
     33 H7         -2.5500    0.6350    0.3390 hc        1 1VA      0.092200
     34 H8         -2.3960   -2.0320    1.9440 hx        1 1VA      0.125700
     35 H9         -4.3390   -2.6920    0.6130 h1        1 1VA      0.072700
     36 H10        -4.6700   -1.0100    1.2630 h1        1 1VA      0.072700
     37 H11        -5.0540   -0.8400   -0.9040 ho        1 1VA      0.453000
     38 H12        -1.9400   -1.7170   -0.9730 hn        1 1VA      0.473800
     39 H13        -0.5540   -3.7360   -1.9280 hc        1 1VA      0.122200
     40 H14        -2.3590   -3.9570   -1.9680 hc        1 1VA      0.122200
     41 H15        -2.1210   -6.1120   -0.6700 hc        1 1VA      0.087200
     42 H16        -0.3180   -5.8930   -0.6340 hc        1 1VA      0.087200
     43 H17        -1.2030   -4.5360   -6.1200 ha        1 1VA      0.147000
     44 H18        -1.0060   -5.7410   -8.2830 ha        1 1VA      0.148000
     45 H19        -0.7490   -8.2170   -8.3430 ha        1 1VA      0.154000
     46 H20        -0.6860   -9.5250   -6.1990 ha        1 1VA      0.169000
     47 H21        -0.9710   -8.2350   -1.6430 hn        1 1VA      0.339500
     48 HAR2       -0.6830   -1.6420    0.1310 hn        1 1VA      0.473800
@<TRIPOS>BOND
     1    1    2 ar  
     2    1    6 ar  
     3    1   27 1   
     4    2    3 ar  
     5    2   28 1   
     6    3    4 ar  
     7    3   29 1   
     8    4    5 ar  
     9    4   30 1   
    10    5    6 ar  
    11    5   31 1   
    12    6    7 1   
    13    7    8 1   
    14    7   32 1   
    15    7   33 1   
    16    8    9 1   
    17    8   11 1   
    18    8   34 1   
    19    9   10 1   
    20    9   35 1   
    21    9   36 1   
    22   10   37 1   
    23   11   12 1   
    24   11   38 1   
    25   11   48 1   
    26   12   13 2   
    27   12   14 1   
    28   14   15 1   
    29   14   39 1   
    30   14   40 1   
    31   15   16 1   
    32   15   41 1   
    33   15   42 1   
    34   16   17 2   
    35   16   26 1   
    36   17   18 1   
    37   18   19 ar  
    38   18   23 ar  
    39   19   20 ar  
    40   19   43 1   
    41   20   21 ar  
    42   20   44 1   
    43   21   22 ar  
    44   21   45 1   
    45   22   23 ar  
    46   22   46 1   
    47   23   24 1   
    48   24   25 2   
    49   24   26 1   
    50   26   47 1   
@<TRIPOS>SUBSTRUCTURE
     1 1VA         1 TEMP              0 ****  ****    0 ROOT
