@<TRIPOS>MOLECULE
1VA
   48    50     1     0     0
SMALL
bcc


@<TRIPOS>ATOM
      1 CAI         0.0710    0.7130    0.5690 ca        1 1VA     -0.133000
      2 CAE         1.4080    0.9540    0.8820 ca        1 1VA     -0.114500
      3 CAD         1.8710    0.7420    2.1820 ca        1 1VA     -0.100000
      4 CAF         0.9930    0.2930    3.1690 ca        1 1VA     -0.114500
      5 CAJ        -0.3450    0.0530    2.8600 ca        1 1VA     -0.133000
      6 CAU        -0.8120    0.2570    1.5560 ca        1 1VA     -0.157300
      7 CAP        -2.2450    0.0310    1.2290 c3        1 1VA     -0.054100
      8 CAZ        -2.5530   -1.4540    0.9790 c3        1 1VA      0.118500
      9 CAM        -4.0230   -1.6230    0.5460 c3        1 1VA      0.111400
     10 OAC        -4.1370   -1.1780   -0.7940 oh        1 1VA     -0.633800
     11 NAR        -1.6090   -2.0270   -0.0460 n4        1 1VA     -0.678800
     12 CAT        -1.5250   -3.5370   -0.0210 c         1 1VA      0.545100
     13 OAA        -1.5470   -4.0730    1.0760 o         1 1VA     -0.418100
     14 CAN        -1.4140   -4.1810   -1.3730 c3        1 1VA     -0.144400
     15 CAO        -1.2300   -5.6800   -1.2290 c3        1 1VA     -0.117700
     16 CAV        -1.1240   -6.3790   -2.5760 cc        1 1VA      0.478900
     17 NAQ        -1.1680   -5.6750   -3.6920 nd        1 1VA     -0.643100
     18 CAX        -1.0650   -6.3560   -4.9140 ca        1 1VA      0.168400
     19 CAK        -1.1090   -5.6380   -6.1310 ca        1 1VA     -0.120000
     20 CAG        -1.0060   -6.3170   -7.3380 ca        1 1VA     -0.087000
     21 CAH        -0.8600   -7.7090   -7.3730 ca        1 1VA     -0.134000
     22 CAL        -0.8150   -8.4350   -6.1900 ca        1 1VA     -0.055000
     23 CAY        -0.9170   -7.7680   -4.9630 ca        1 1VA     -0.177600
     24 CAW        -0.8700   -8.5290   -3.7010 c         1 1VA      0.711100
     25 OAB        -0.7450   -9.7580   -3.6000 o         1 1VA     -0.589500
     26 NAS        -0.9810   -7.7670   -2.5180 n         1 1VA     -0.499400
     27 H1         -0.2970    0.9250   -0.4470 ha        1 1VA      0.137000
     28 H2          2.0950    1.3270    0.1060 ha        1 1VA      0.155500
     29 H3          2.9260    0.9420    2.4300 ha        1 1VA      0.158000
     30 H4          1.3540    0.1390    4.1990 ha        1 1VA      0.155500
     31 H5         -1.0370   -0.2830    3.6470 ha        1 1VA      0.137000
     32 H6         -2.8920    0.3600    2.0880 hc        1 1VA      0.092200
     33 H7         -2.5500    0.6310    0.3290 hc        1 1VA      0.092200
     34 H8         -2.3910   -2.0340    1.9380 hx        1 1VA      0.125700
     35 H9         -4.3230   -2.7050    0.5970 h1        1 1VA      0.072700
     36 H10        -4.6660   -1.0240    1.2430 h1        1 1VA      0.072700
     37 H11        -5.0380   -0.8550   -0.9260 ho        1 1VA      0.453000
     38 H12        -1.9190   -1.7180   -0.9770 hn        1 1VA      0.473800
     39 H13        -2.3500   -3.9590   -1.9620 hc        1 1VA      0.122200
     40 H14        -0.5450   -3.7360   -1.9350 hc        1 1VA      0.122200
     41 H15        -0.2970   -5.8910   -0.6390 hc        1 1VA      0.087200
     42 H16        -2.1000   -6.1130   -0.6620 hc        1 1VA      0.087200
     43 H17        -1.2230   -4.5440   -6.1210 ha        1 1VA      0.147000
     44 H18        -1.0400   -5.7510   -8.2830 ha        1 1VA      0.148000
     45 H19        -0.7800   -8.2280   -8.3410 ha        1 1VA      0.154000
     46 H20        -0.7000   -9.5320   -6.1970 ha        1 1VA      0.169000
     47 H21        -0.9540   -8.2350   -1.6400 hn        1 1VA      0.339500
     48 HAR2       -0.6700   -1.6380    0.1360 hn        1 1VA      0.473800
@<TRIPOS>BOND
     1    1    2 ar  
     2    1    6 ar  
     3    1   27 1   
     4    2    3 ar  
     5    2   28 1   
     6    3    4 ar  
     7    3   29 1   
     8    4    5 ar  
     9    4   30 1   
    10    5    6 ar  
    11    5   31 1   
    12    6    7 1   
    13    7    8 1   
    14    7   32 1   
    15    7   33 1   
    16    8    9 1   
    17    8   11 1   
    18    8   34 1   
    19    9   10 1   
    20    9   35 1   
    21    9   36 1   
    22   10   37 1   
    23   11   12 1   
    24   11   38 1   
    25   11   48 1   
    26   12   13 2   
    27   12   14 1   
    28   14   15 1   
    29   14   39 1   
    30   14   40 1   
    31   15   16 1   
    32   15   41 1   
    33   15   42 1   
    34   16   17 2   
    35   16   26 1   
    36   17   18 1   
    37   18   19 ar  
    38   18   23 ar  
    39   19   20 ar  
    40   19   43 1   
    41   20   21 ar  
    42   20   44 1   
    43   21   22 ar  
    44   21   45 1   
    45   22   23 ar  
    46   22   46 1   
    47   23   24 1   
    48   24   25 2   
    49   24   26 1   
    50   26   47 1   
@<TRIPOS>SUBSTRUCTURE
     1 1VA         1 TEMP              0 ****  ****    0 ROOT
