@<TRIPOS>MOLECULE
1VA
   48    50     1     0     0
SMALL
bcc


@<TRIPOS>ATOM
      1 CAI         0.0770    0.6860    0.5700 ca        1 1VA     -0.133000
      2 CAE         1.4190    0.9100    0.8730 ca        1 1VA     -0.114500
      3 CAD         1.8910    0.6880    2.1680 ca        1 1VA     -0.100000
      4 CAF         1.0170    0.2450    3.1610 ca        1 1VA     -0.114500
      5 CAJ        -0.3270    0.0220    2.8620 ca        1 1VA     -0.133000
      6 CAU        -0.8030    0.2370    1.5640 ca        1 1VA     -0.157300
      7 CAP        -2.2410    0.0290    1.2480 c3        1 1VA     -0.054100
      8 CAZ        -2.5690   -1.4510    0.9950 c3        1 1VA      0.118500
      9 CAM        -4.0450   -1.6010    0.5740 c3        1 1VA      0.111400
     10 OAC        -4.1650   -1.1470   -0.7630 oh        1 1VA     -0.633800
     11 NAR        -1.6410   -2.0310   -0.0400 n4        1 1VA     -0.678800
     12 CAT        -1.5700   -3.5420   -0.0220 c         1 1VA      0.545100
     13 OAA        -1.6170   -4.0840    1.0710 o         1 1VA     -0.418100
     14 CAN        -1.4410   -4.1790   -1.3750 c3        1 1VA     -0.144400
     15 CAO        -1.2670   -5.6800   -1.2360 c3        1 1VA     -0.117700
     16 CAV        -1.1420   -6.3720   -2.5850 cc        1 1VA      0.478900
     17 NAQ        -1.1630   -5.6620   -3.6970 nd        1 1VA     -0.643100
     18 CAX        -1.0430   -6.3370   -4.9210 ca        1 1VA      0.168400
     19 CAK        -1.0600   -5.6120   -6.1360 ca        1 1VA     -0.120000
     20 CAG        -0.9410   -6.2850   -7.3440 ca        1 1VA     -0.087000
     21 CAH        -0.8030   -7.6780   -7.3850 ca        1 1VA     -0.134000
     22 CAL        -0.7830   -8.4100   -6.2040 ca        1 1VA     -0.055000
     23 CAY        -0.9020   -7.7500   -4.9760 ca        1 1VA     -0.177600
     24 CAW        -0.8820   -8.5170   -3.7180 c         1 1VA      0.711100
     25 OAB        -0.7660   -9.7480   -3.6210 o         1 1VA     -0.589500
     26 NAS        -1.0080   -7.7620   -2.5320 n         1 1VA     -0.499400
     27 H1         -0.2970    0.9070   -0.4410 ha        1 1VA      0.137000
     28 H2          2.1040    1.2780    0.0930 ha        1 1VA      0.155500
     29 H3          2.9500    0.8740    2.4080 ha        1 1VA      0.158000
     30 H4          1.3850    0.0830    4.1870 ha        1 1VA      0.155500
     31 H5         -1.0160   -0.3090    3.6540 ha        1 1VA      0.137000
     32 H6         -2.5470    0.6370    0.3530 hc        1 1VA      0.092200
     33 H7         -2.8760    0.3620    2.1140 hc        1 1VA      0.092200
     34 H8         -2.4060   -2.0370    1.9510 hx        1 1VA      0.125700
     35 H9         -4.3570   -2.6800    0.6220 h1        1 1VA      0.072700
     36 H10        -4.6750   -0.9980    1.2790 h1        1 1VA      0.072700
     37 H11        -5.0660   -0.8210   -0.8880 ho        1 1VA      0.453000
     38 H12        -1.9570   -1.7160   -0.9680 hn        1 1VA      0.473800
     39 H13        -0.5610   -3.7360   -1.9210 hc        1 1VA      0.122200
     40 H14        -2.3660   -3.9500   -1.9780 hc        1 1VA      0.122200
     41 H15        -2.1480   -6.1110   -0.6870 hc        1 1VA      0.087200
     42 H16        -0.3450   -5.8990   -0.6320 hc        1 1VA      0.087200
     43 H17        -1.1690   -4.5170   -6.1220 ha        1 1VA      0.147000
     44 H18        -0.9560   -5.7140   -8.2860 ha        1 1VA      0.148000
     45 H19        -0.7090   -8.1920   -8.3540 ha        1 1VA      0.154000
     46 H20        -0.6750   -9.5080   -6.2150 ha        1 1VA      0.169000
     47 H21        -1.0000   -8.2350   -1.6570 hn        1 1VA      0.339500
     48 HAR2       -0.6960   -1.6520    0.1330 hn        1 1VA      0.473800
@<TRIPOS>BOND
     1    1    2 ar  
     2    1    6 ar  
     3    1   27 1   
     4    2    3 ar  
     5    2   28 1   
     6    3    4 ar  
     7    3   29 1   
     8    4    5 ar  
     9    4   30 1   
    10    5    6 ar  
    11    5   31 1   
    12    6    7 1   
    13    7    8 1   
    14    7   32 1   
    15    7   33 1   
    16    8    9 1   
    17    8   11 1   
    18    8   34 1   
    19    9   10 1   
    20    9   35 1   
    21    9   36 1   
    22   10   37 1   
    23   11   12 1   
    24   11   38 1   
    25   11   48 1   
    26   12   13 2   
    27   12   14 1   
    28   14   15 1   
    29   14   39 1   
    30   14   40 1   
    31   15   16 1   
    32   15   41 1   
    33   15   42 1   
    34   16   17 2   
    35   16   26 1   
    36   17   18 1   
    37   18   19 ar  
    38   18   23 ar  
    39   19   20 ar  
    40   19   43 1   
    41   20   21 ar  
    42   20   44 1   
    43   21   22 ar  
    44   21   45 1   
    45   22   23 ar  
    46   22   46 1   
    47   23   24 1   
    48   24   25 2   
    49   24   26 1   
    50   26   47 1   
@<TRIPOS>SUBSTRUCTURE
     1 1VA         1 TEMP              0 ****  ****    0 ROOT
