@<TRIPOS>MOLECULE
1VB
   50    52     1     0     0
SMALL
bcc


@<TRIPOS>ATOM
      1 CAI        -0.0770    0.3450    0.1550 ca        1 1VB     -0.128500
      2 CAK         1.2430    0.6520   -0.1700 ca        1 1VB      0.018500
      3 CAV         2.2820    0.4820    0.7640 ca        1 1VB     -0.488500
      4 SBB         3.8430    0.7020    0.3340 sy        1 1VB      1.468200
      5 OAE         4.7320    0.1400    1.2200 o         1 1VB     -0.539300
      6 OAF         4.0300    0.7520   -1.0270 o         1 1VB     -0.539300
      7 NAB         4.0270    2.5330    0.7740 n4        1 1VB     -0.798500
      8 CAL         1.9460   -0.0030    2.0440 ca        1 1VB      0.018500
      9 CAJ         0.6300   -0.3120    2.3740 ca        1 1VB     -0.128500
     10 CAU        -0.3900   -0.1410    1.4300 ca        1 1VB     -0.047300
     11 CBA        -1.8310   -0.4320    1.7700 c3        1 1VB      0.166800
     12 CAA        -2.2910    0.4300    2.9410 c3        1 1VB     -0.131100
     13 NAR        -2.0460   -1.9010    2.0420 n4        1 1VB     -0.700800
     14 CAT        -3.5080   -2.3230    1.8090 c         1 1VB      0.555100
     15 OAC        -3.9250   -2.1120    0.6860 o         1 1VB     -0.393100
     16 CAO        -4.1750   -2.9340    3.0020 c3        1 1VB     -0.138400
     17 CAP        -5.5810   -3.3890    2.6470 c3        1 1VB     -0.118700
     18 CAW        -6.2970   -3.9920    3.8480 cc        1 1VB      0.474900
     19 NAQ        -5.6860   -4.0420    5.0180 nd        1 1VB     -0.654100
     20 CAY        -6.3750   -4.6050    6.1030 ca        1 1VB      0.161400
     21 CAM        -5.7580   -4.6830    7.3720 ca        1 1VB     -0.122000
     22 CAG        -6.4440   -5.2420    8.4420 ca        1 1VB     -0.085000
     23 CAH        -7.7450   -5.7340    8.2880 ca        1 1VB     -0.126000
     24 CAN        -8.3720   -5.6680    7.0490 ca        1 1VB     -0.051000
     25 CAZ        -7.6960   -5.1080    5.9590 ca        1 1VB     -0.173600
     26 CAX        -8.3530   -5.0350    4.6410 c         1 1VB      0.711100
     27 OAD        -9.4950   -5.4310    4.3740 o         1 1VB     -0.573500
     28 NAS        -7.5890   -4.4550    3.6020 n         1 1VB     -0.498400
     29 H1         -0.8670    0.4900   -0.6050 ha        1 1VB      0.177000
     30 H2          1.4760    1.0100   -1.1940 ha        1 1VB      0.189500
     31 H3          3.1830    2.9540    1.1510 hn        1 1VB      0.468800
     32 H4          4.7700    2.6600    1.4660 hn        1 1VB      0.468800
     33 H5          2.7450   -0.1650    2.7960 ha        1 1VB      0.189500
     34 H6          0.4040   -0.6790    3.3900 ha        1 1VB      0.177000
     35 H7         -2.4780   -0.1900    0.8640 hx        1 1VB      0.136700
     36 H8         -1.6790    0.2450    3.8580 hc        1 1VB      0.087700
     37 H9         -2.1800    1.5070    2.6540 hc        1 1VB      0.087700
     38 H10        -3.3690    0.2460    3.1770 hc        1 1VB      0.087700
     39 H11        -1.4490   -2.4470    1.4100 hn        1 1VB      0.458800
     40 H12        -3.5710   -3.8120    3.3690 hc        1 1VB      0.126200
     41 H13        -4.2130   -2.1700    3.8300 hc        1 1VB      0.126200
     42 H14        -5.5350   -4.1570    1.8280 hc        1 1VB      0.090200
     43 H15        -6.1790   -2.5150    2.2700 hc        1 1VB      0.090200
     44 H16        -4.7350   -4.3030    7.5130 ha        1 1VB      0.142000
     45 H17        -5.9570   -5.3000    9.4290 ha        1 1VB      0.151000
     46 H18        -8.2730   -6.1740    9.1490 ha        1 1VB      0.160000
     47 H19        -9.3980   -6.0510    6.9070 ha        1 1VB      0.174000
     48 H20        -7.9870   -4.3880    2.6920 hn        1 1VB      0.341500
     49 HAB3        4.2950    3.0720   -0.0540 hn        1 1VB      0.468800
     50 HAR2       -1.7810   -2.1130    3.0090 hn        1 1VB      0.458800
@<TRIPOS>BOND
     1    1    2 ar  
     2    1   10 ar  
     3    1   29 1   
     4    2    3 ar  
     5    2   30 1   
     6    3    4 1   
     7    3    8 ar  
     8    4    5 2   
     9    4    6 2   
    10    4    7 1   
    11    7   31 1   
    12    7   32 1   
    13    7   49 1   
    14    8    9 ar  
    15    8   33 1   
    16    9   10 ar  
    17    9   34 1   
    18   10   11 1   
    19   11   12 1   
    20   11   13 1   
    21   11   35 1   
    22   12   36 1   
    23   12   37 1   
    24   12   38 1   
    25   13   14 1   
    26   13   39 1   
    27   13   50 1   
    28   14   15 2   
    29   14   16 1   
    30   16   17 1   
    31   16   40 1   
    32   16   41 1   
    33   17   18 1   
    34   17   42 1   
    35   17   43 1   
    36   18   19 2   
    37   18   28 1   
    38   19   20 1   
    39   20   21 ar  
    40   20   25 ar  
    41   21   22 ar  
    42   21   44 1   
    43   22   23 ar  
    44   22   45 1   
    45   23   24 ar  
    46   23   46 1   
    47   24   25 ar  
    48   24   47 1   
    49   25   26 1   
    50   26   27 2   
    51   26   28 1   
    52   28   48 1   
@<TRIPOS>SUBSTRUCTURE
     1 1VB         1 TEMP              0 ****  ****    0 ROOT
