@<TRIPOS>MOLECULE
1VB
   50    52     1     0     0
SMALL
bcc


@<TRIPOS>ATOM
      1 CAI        -0.0860    0.3460    0.1460 ca        1 1VB     -0.128500
      2 CAK         1.2330    0.6490   -0.1840 ca        1 1VB      0.018500
      3 CAV         2.2760    0.4770    0.7470 ca        1 1VB     -0.488500
      4 SBB         3.8350    0.6930    0.3100 sy        1 1VB      1.468200
      5 OAE         4.7270    0.1280    1.1930 o         1 1VB     -0.539300
      6 OAF         4.0170    0.7410   -1.0520 o         1 1VB     -0.539300
      7 NAB         4.0260    2.5220    0.7480 n4        1 1VB     -0.798500
      8 CAL         1.9430   -0.0070    2.0270 ca        1 1VB      0.018500
      9 CAJ         0.6280   -0.3120    2.3630 ca        1 1VB     -0.128500
     10 CAU        -0.3950   -0.1390    1.4220 ca        1 1VB     -0.047300
     11 CBA        -1.8370   -0.4260    1.7680 c3        1 1VB      0.166800
     12 CAA        -2.2890    0.4370    2.9410 c3        1 1VB     -0.131100
     13 NAR        -2.0540   -1.8950    2.0410 n4        1 1VB     -0.700800
     14 CAT        -3.5180   -2.3130    1.8150 c         1 1VB      0.555100
     15 OAC        -3.9410   -2.0960    0.6950 o         1 1VB     -0.393100
     16 CAO        -4.1800   -2.9270    3.0090 c3        1 1VB     -0.138400
     17 CAP        -5.5880   -3.3790    2.6600 c3        1 1VB     -0.118700
     18 CAW        -6.2980   -3.9860    3.8620 cc        1 1VB      0.474900
     19 NAQ        -5.6810   -4.0420    5.0280 nd        1 1VB     -0.654100
     20 CAY        -6.3640   -4.6080    6.1150 ca        1 1VB      0.161400
     21 CAM        -5.7400   -4.6910    7.3810 ca        1 1VB     -0.122000
     22 CAG        -6.4220   -5.2530    8.4530 ca        1 1VB     -0.085000
     23 CAH        -7.7250   -5.7420    8.3030 ca        1 1VB     -0.126000
     24 CAN        -8.3580   -5.6710    7.0680 ca        1 1VB     -0.051000
     25 CAZ        -7.6880   -5.1080    5.9760 ca        1 1VB     -0.173600
     26 CAX        -8.3510   -5.0300    4.6630 c         1 1VB      0.711100
     27 OAD        -9.4960   -5.4230    4.4000 o         1 1VB     -0.573500
     28 NAS        -7.5920   -4.4470    3.6210 n         1 1VB     -0.498400
     29 H1         -0.8780    0.4920   -0.6110 ha        1 1VB      0.177000
     30 H2          1.4630    1.0060   -1.2090 ha        1 1VB      0.189500
     31 H3          4.2920    3.0610   -0.0810 hn        1 1VB      0.468800
     32 H4          4.7710    2.6480    1.4380 hn        1 1VB      0.468800
     33 H5          2.7440   -0.1710    2.7770 ha        1 1VB      0.189500
     34 H6          0.4040   -0.6790    3.3790 ha        1 1VB      0.177000
     35 H7         -2.4860   -0.1820    0.8650 hx        1 1VB      0.136700
     36 H8         -2.1770    1.5140    2.6540 hc        1 1VB      0.087700
     37 H9         -3.3660    0.2560    3.1800 hc        1 1VB      0.087700
     38 H10        -1.6750    0.2500    3.8550 hc        1 1VB      0.087700
     39 H11        -1.7860   -2.1070    3.0070 hn        1 1VB      0.458300
     40 H12        -4.2130   -2.1650    3.8400 hc        1 1VB      0.126200
     41 H13        -3.5750   -3.8070    3.3700 hc        1 1VB      0.126200
     42 H14        -5.5470   -4.1450    1.8380 hc        1 1VB      0.090200
     43 H15        -6.1870   -2.5040    2.2880 hc        1 1VB      0.090200
     44 H16        -4.7170   -4.3120    7.5170 ha        1 1VB      0.142000
     45 H17        -5.9290   -5.3150    9.4370 ha        1 1VB      0.151000
     46 H18        -8.2480   -6.1850    9.1660 ha        1 1VB      0.160000
     47 H19        -9.3850   -6.0520    6.9310 ha        1 1VB      0.174000
     48 H20        -7.9950   -4.3750    2.7140 hn        1 1VB      0.341500
     49 HAB3        3.1840    2.9460    1.1290 hn        1 1VB      0.468800
     50 HAR2       -1.4620   -2.4420    1.4070 hn        1 1VB      0.458300
@<TRIPOS>BOND
     1    1    2 ar  
     2    1   10 ar  
     3    1   29 1   
     4    2    3 ar  
     5    2   30 1   
     6    3    4 1   
     7    3    8 ar  
     8    4    5 2   
     9    4    6 2   
    10    4    7 1   
    11    7   31 1   
    12    7   32 1   
    13    7   49 1   
    14    8    9 ar  
    15    8   33 1   
    16    9   10 ar  
    17    9   34 1   
    18   10   11 1   
    19   11   12 1   
    20   11   13 1   
    21   11   35 1   
    22   12   36 1   
    23   12   37 1   
    24   12   38 1   
    25   13   14 1   
    26   13   39 1   
    27   13   50 1   
    28   14   15 2   
    29   14   16 1   
    30   16   17 1   
    31   16   40 1   
    32   16   41 1   
    33   17   18 1   
    34   17   42 1   
    35   17   43 1   
    36   18   19 2   
    37   18   28 1   
    38   19   20 1   
    39   20   21 ar  
    40   20   25 ar  
    41   21   22 ar  
    42   21   44 1   
    43   22   23 ar  
    44   22   45 1   
    45   23   24 ar  
    46   23   46 1   
    47   24   25 ar  
    48   24   47 1   
    49   25   26 1   
    50   26   27 2   
    51   26   28 1   
    52   28   48 1   
@<TRIPOS>SUBSTRUCTURE
     1 1VB         1 TEMP              0 ****  ****    0 ROOT
