@<TRIPOS>MOLECULE
1VB
   50    52     1     0     0
SMALL
bcc


@<TRIPOS>ATOM
      1 CAI        -0.0680    0.3560    0.1690 ca        1 1VB     -0.128500
      2 CAK         1.2530    0.6580   -0.1540 ca        1 1VB      0.018500
      3 CAV         2.2920    0.4760    0.7790 ca        1 1VB     -0.488500
      4 SBB         3.8530    0.6910    0.3500 sy        1 1VB      1.468200
      5 OAE         4.7400    0.1180    1.2310 o         1 1VB     -0.539300
      6 OAF         4.0400    0.7500   -1.0110 o         1 1VB     -0.539300
      7 NAB         4.0480    2.5170    0.8020 nz        1 1VB     -0.798500
      8 CAL         1.9540   -0.0170    2.0550 ca        1 1VB      0.018500
      9 CAJ         0.6360   -0.3210    2.3840 ca        1 1VB     -0.128500
     10 CAU        -0.3830   -0.1370    1.4410 ca        1 1VB     -0.047300
     11 CBA        -1.8260   -0.4230    1.7800 c3        1 1VB      0.166800
     12 CAA        -2.2800    0.4330    2.9570 c3        1 1VB     -0.131100
     13 NAR        -2.0480   -1.8930    2.0420 ny        1 1VB     -0.700800
     14 CAT        -3.5130   -2.3060    1.8070 c         1 1VB      0.555100
     15 OAC        -3.9300   -2.0820    0.6860 o         1 1VB     -0.393100
     16 CAO        -4.1810   -2.9230    2.9950 c3        1 1VB     -0.138400
     17 CAP        -5.5900   -3.3670    2.6390 c3        1 1VB     -0.118700
     18 CAW        -6.3080   -3.9770    3.8360 cc        1 1VB      0.474900
     19 NAQ        -5.6950   -4.0430    5.0030 nd        1 1VB     -0.654100
     20 CAY        -6.3850   -4.6120    6.0850 ca        1 1VB      0.161400
     21 CAM        -5.7660   -4.7050    7.3520 ca        1 1VB     -0.122000
     22 CAG        -6.4540   -5.2700    8.4180 ca        1 1VB     -0.085000
     23 CAH        -7.7580   -5.7530    8.2610 ca        1 1VB     -0.126000
     24 CAN        -8.3870   -5.6710    7.0240 ca        1 1VB     -0.051000
     25 CAZ        -7.7100   -5.1050    5.9380 ca        1 1VB     -0.173600
     26 CAX        -8.3680   -5.0160    4.6230 c         1 1VB      0.711100
     27 OAD        -9.5140   -5.4030    4.3540 o         1 1VB     -0.573500
     28 NAS        -7.6020   -4.4310    3.5870 ns        1 1VB     -0.498400
     29 H1         -0.8570    0.5110   -0.5890 ha        1 1VB      0.177000
     30 H2          1.4870    1.0220   -1.1750 ha        1 1VB      0.189500
     31 H3          3.2060    2.9400    1.1830 hn        1 1VB      0.468800
     32 H4          4.7910    2.6360    1.4960 hn        1 1VB      0.468800
     33 H5          2.7520   -0.1880    2.8060 ha        1 1VB      0.189500
     34 H6          0.4080   -0.6940    3.3970 ha        1 1VB      0.177000
     35 H7         -2.4720   -0.1710    0.8760 hx        1 1VB      0.136700
     36 H8         -2.1640    1.5110    2.6780 hc        1 1VB      0.087700
     37 H9         -1.6690    0.2380    3.8730 hc        1 1VB      0.087700
     38 H10        -3.3590    0.2530    3.1920 hc        1 1VB      0.087700
     39 H11        -1.7840   -2.1130    3.0070 hn        1 1VB      0.458800
     40 H12        -3.5820   -3.8080    3.3540 hc        1 1VB      0.126200
     41 H13        -4.2140   -2.1660    3.8310 hc        1 1VB      0.126200
     42 H14        -6.1850   -2.4880    2.2700 hc        1 1VB      0.090700
     43 H15        -5.5500   -4.1290    1.8130 hc        1 1VB      0.090700
     44 H16        -4.7400   -4.3320    7.4940 ha        1 1VB      0.142000
     45 H17        -5.9640   -5.3410    9.4030 ha        1 1VB      0.151000
     46 H18        -8.2860   -6.1980    9.1190 ha        1 1VB      0.160000
     47 H19        -9.4150   -6.0470    6.8810 ha        1 1VB      0.174000
     48 H20        -8.0020   -4.3530    2.6790 hn        1 1VB      0.341500
     49 HAB3        4.3180    3.0620   -0.0210 hn        1 1VB      0.468800
     50 HAR2       -1.4550   -2.4380    1.4050 hn        1 1VB      0.458800
@<TRIPOS>BOND
     1    1    2 ar  
     2    1   10 ar  
     3    1   29 1   
     4    2    3 ar  
     5    2   30 1   
     6    3    4 1   
     7    3    8 ar  
     8    4    5 2   
     9    4    6 2   
    10    4    7 1   
    11    7   31 1   
    12    7   32 1   
    13    7   49 1   
    14    8    9 ar  
    15    8   33 1   
    16    9   10 ar  
    17    9   34 1   
    18   10   11 1   
    19   11   12 1   
    20   11   13 1   
    21   11   35 1   
    22   12   36 1   
    23   12   37 1   
    24   12   38 1   
    25   13   14 1   
    26   13   39 1   
    27   13   50 1   
    28   14   15 2   
    29   14   16 1   
    30   16   17 1   
    31   16   40 1   
    32   16   41 1   
    33   17   18 1   
    34   17   42 1   
    35   17   43 1   
    36   18   19 2   
    37   18   28 1   
    38   19   20 1   
    39   20   21 ar  
    40   20   25 ar  
    41   21   22 ar  
    42   21   44 1   
    43   22   23 ar  
    44   22   45 1   
    45   23   24 ar  
    46   23   46 1   
    47   24   25 ar  
    48   24   47 1   
    49   25   26 1   
    50   26   27 2   
    51   26   28 1   
    52   28   48 1   
@<TRIPOS>SUBSTRUCTURE
     1 1VB         1 TEMP              0 ****  ****    0 ROOT
