@<TRIPOS>MOLECULE
1VC
   50    52     1     0     0
SMALL
bcc


@<TRIPOS>ATOM
      1 CD1        -0.4970   -0.1460   -0.7330 ca        1 1VC     -0.130500
      2 CE1         0.7440   -0.5200   -1.2470 ca        1 1VC     -0.113000
      3 CZ          1.6930   -1.1200   -0.4200 ca        1 1VC     -0.096000
      4 CE2         1.3990   -1.3510    0.9260 ca        1 1VC     -0.113000
      5 CD2         0.1610   -0.9760    1.4440 ca        1 1VC     -0.130500
      6 CG         -0.7930   -0.3680    0.6170 ca        1 1VC     -0.162300
      7 CB         -2.1250    0.0020    1.1630 c3        1 1VC     -0.045100
      8 CA         -2.1840    1.4960    1.5280 c3        1 1VC      0.069500
      9 C          -3.5450    1.8180    2.1320 c         1 1VC      0.613100
     10 O          -3.7450    2.2320    3.2770 o         1 1VC     -0.532000
     11 OAT        -4.5590    1.6110    1.2680 os        1 1VC     -0.397900
     12 CAA        -5.8890    1.8840    1.7530 c3        1 1VC      0.122700
     13 N          -1.0840    1.8780    2.4800 n4        1 1VC     -0.685800
     14 CAU        -0.8050    3.3750    2.4800 c         1 1VC      0.552100
     15 OAB        -0.4120    3.8370    1.4220 o         1 1VC     -0.413100
     16 CAN        -1.0510    4.0590    3.7910 c3        1 1VC     -0.146400
     17 CAO        -0.7980    5.5490    3.6600 c3        1 1VC     -0.116700
     18 CAX        -1.0120    6.2860    4.9730 cc        1 1VC      0.478900
     19 NAQ        -1.2590    5.6080    6.0790 nd        1 1VC     -0.640100
     20 CAZ        -1.4430    6.3230    7.2710 ca        1 1VC      0.168400
     21 CAL        -1.7110    5.6340    8.4770 ca        1 1VC     -0.119000
     22 CAH        -1.8920    6.3470    9.6540 ca        1 1VC     -0.088000
     23 CAI        -1.8130    7.7440    9.6730 ca        1 1VC     -0.134000
     24 CAM        -1.5510    8.4420    8.5000 ca        1 1VC     -0.055000
     25 CBA        -1.3660    7.7420    7.3030 ca        1 1VC     -0.177600
     26 CAY        -1.0880    8.4720    6.0530 c         1 1VC      0.711100
     27 OAD        -0.9940    9.7030    5.9380 o         1 1VC     -0.590500
     28 NAS        -0.9170    7.6780    4.8990 n         1 1VC     -0.499400
     29 H1         -1.2500    0.3110   -1.3940 ha        1 1VC      0.137000
     30 H2          0.9690   -0.3500   -2.3130 ha        1 1VC      0.156500
     31 H3          2.6700   -1.4230   -0.8300 ha        1 1VC      0.159000
     32 H4          2.1410   -1.8420    1.5750 ha        1 1VC      0.156500
     33 H5         -0.0800   -1.2040    2.4940 ha        1 1VC      0.137000
     34 H6         -2.3760   -0.6240    2.0600 hc        1 1VC      0.100700
     35 H7         -2.9320   -0.1710    0.3950 hc        1 1VC      0.100700
     36 H8         -2.0450    2.1110    0.5840 hx        1 1VC      0.149700
     37 H9         -5.9690    2.9600    2.0360 h1        1 1VC      0.076700
     38 H10        -6.5280    1.6330    0.8690 h1        1 1VC      0.076700
     39 H11        -6.1090    1.2280    2.6280 h1        1 1VC      0.076700
     40 H12        -1.3490    1.5850    3.4290 hn        1 1VC      0.473800
     41 H13        -2.1170    3.8680    4.1170 hc        1 1VC      0.133200
     42 H14        -0.3720    3.6140    4.5720 hc        1 1VC      0.133200
     43 H15        -1.4870    5.9790    2.8820 hc        1 1VC      0.085700
     44 H16         0.2590    5.7270    3.3190 hc        1 1VC      0.085700
     45 H17        -1.7770    4.5350    8.4800 ha        1 1VC      0.148000
     46 H18        -2.1000    5.8030   10.5900 ha        1 1VC      0.148000
     47 H19        -1.9590    8.2900   10.6180 ha        1 1VC      0.153000
     48 H20        -1.4850    9.5430    8.4940 ha        1 1VC      0.169000
     49 H21        -0.7220    8.1240    4.0310 hn        1 1VC      0.339500
     50 H22        -0.2340    1.3670    2.1890 hn        1 1VC      0.473800
@<TRIPOS>BOND
     1    1    2 ar  
     2    1    6 ar  
     3    1   29 1   
     4    2    3 ar  
     5    2   30 1   
     6    3    4 ar  
     7    3   31 1   
     8    4    5 ar  
     9    4   32 1   
    10    5    6 ar  
    11    5   33 1   
    12    6    7 1   
    13    7    8 1   
    14    7   34 1   
    15    7   35 1   
    16    8    9 1   
    17    8   13 1   
    18    8   36 1   
    19    9   10 2   
    20    9   11 1   
    21   11   12 1   
    22   12   37 1   
    23   12   38 1   
    24   12   39 1   
    25   13   14 1   
    26   13   40 1   
    27   13   50 1   
    28   14   15 2   
    29   14   16 1   
    30   16   17 1   
    31   16   41 1   
    32   16   42 1   
    33   17   18 1   
    34   17   43 1   
    35   17   44 1   
    36   18   19 2   
    37   18   28 1   
    38   19   20 1   
    39   20   21 ar  
    40   20   25 ar  
    41   21   22 ar  
    42   21   45 1   
    43   22   23 ar  
    44   22   46 1   
    45   23   24 ar  
    46   23   47 1   
    47   24   25 ar  
    48   24   48 1   
    49   25   26 1   
    50   26   27 2   
    51   26   28 1   
    52   28   49 1   
@<TRIPOS>SUBSTRUCTURE
     1 1VC         1 TEMP              0 ****  ****    0 ROOT
