@<TRIPOS>MOLECULE
1VC
   50    52     1     0     0
SMALL
bcc


@<TRIPOS>ATOM
      1 CD1        -0.5080   -0.1330   -0.7470 ca        1 1VC     -0.130500
      2 CE1         0.7300   -0.4900   -1.2800 ca        1 1VC     -0.113000
      3 CZ          1.7000   -1.0770   -0.4670 ca        1 1VC     -0.096000
      4 CE2         1.4290   -1.3110    0.8830 ca        1 1VC     -0.113000
      5 CD2         0.1940   -0.9540    1.4190 ca        1 1VC     -0.130500
      6 CG         -0.7810   -0.3590    0.6070 ca        1 1VC     -0.162300
      7 CB         -2.1090   -0.0070    1.1710 c3        1 1VC     -0.045100
      8 CA         -2.1840    1.4860    1.5370 c3        1 1VC      0.069500
      9 C          -3.5400    1.7900    2.1620 c         1 1VC      0.613100
     10 O          -3.7290    2.2010    3.3090 o         1 1VC     -0.532000
     11 OAT        -4.5640    1.5680    1.3120 os        1 1VC     -0.397900
     12 CAA        -5.8900    1.8220    1.8160 c3        1 1VC      0.122700
     13 N          -1.0760    1.8830    2.4730 ny        1 1VC     -0.685800
     14 CAU        -0.8180    3.3840    2.4680 c         1 1VC      0.552100
     15 OAB        -0.4470    3.8520    1.4050 o         1 1VC     -0.413100
     16 CAN        -1.0530    4.0650    3.7830 c3        1 1VC     -0.146400
     17 CAO        -0.8230    5.5580    3.6480 c3        1 1VC     -0.116700
     18 CAX        -1.0270    6.2920    4.9650 cc        1 1VC      0.478900
     19 NAQ        -1.2460    5.6110    6.0740 nd        1 1VC     -0.640100
     20 CAZ        -1.4220    6.3240    7.2690 ca        1 1VC      0.168400
     21 CAL        -1.6610    5.6310    8.4790 ca        1 1VC     -0.119000
     22 CAH        -1.8330    6.3410    9.6590 ca        1 1VC     -0.088000
     23 CAI        -1.7750    7.7400    9.6760 ca        1 1VC     -0.134000
     24 CAM        -1.5420    8.4410    8.5000 ca        1 1VC     -0.055000
     25 CBA        -1.3660    7.7430    7.2990 ca        1 1VC     -0.177600
     26 CAY        -1.1180    8.4770    6.0450 c         1 1VC      0.711100
     27 OAD        -1.0450    9.7100    5.9290 o         1 1VC     -0.590500
     28 NAS        -0.9540    7.6850    4.8890 ns        1 1VC     -0.499400
     29 H1         -1.2770    0.3130   -1.3980 ha        1 1VC      0.137000
     30 H2          0.9380   -0.3180   -2.3490 ha        1 1VC      0.156500
     31 H3          2.6750   -1.3670   -0.8910 ha        1 1VC      0.159000
     32 H4          2.1870   -1.7920    1.5210 ha        1 1VC      0.156500
     33 H5         -0.0290   -1.1850    2.4730 ha        1 1VC      0.137000
     34 H6         -2.9250   -0.1910    0.4160 hc        1 1VC      0.100700
     35 H7         -2.3390   -0.6370    2.0720 hc        1 1VC      0.100700
     36 H8         -2.0670    2.1020    0.5910 hx        1 1VC      0.149700
     37 H9         -5.9810    2.8980    2.0990 h1        1 1VC      0.076700
     38 H10        -6.0880    1.1640    2.6950 h1        1 1VC      0.076700
     39 H11        -6.5390    1.5620    0.9420 h1        1 1VC      0.076700
     40 H12        -0.2230    1.3840    2.1700 hn        1 1VC      0.473800
     41 H13        -2.1110    3.8580    4.1250 hc        1 1VC      0.133200
     42 H14        -0.3560    3.6300    4.5540 hc        1 1VC      0.133200
     43 H15         0.2260    5.7510    3.2920 hc        1 1VC      0.085700
     44 H16        -1.5300    5.9780    2.8810 hc        1 1VC      0.085700
     45 H17        -1.7100    4.5320    8.4830 ha        1 1VC      0.148000
     46 H18        -2.0180    5.7950   10.5980 ha        1 1VC      0.148000
     47 H19        -1.9140    8.2840   10.6230 ha        1 1VC      0.153000
     48 H20        -1.4930    9.5430    8.4920 ha        1 1VC      0.169000
     49 H21        -0.7800    8.1350    4.0180 hn        1 1VC      0.339500
     50 H22        -1.3230    1.5870    3.4260 hn        1 1VC      0.473800
@<TRIPOS>BOND
     1    1    2 ar  
     2    1    6 ar  
     3    1   29 1   
     4    2    3 ar  
     5    2   30 1   
     6    3    4 ar  
     7    3   31 1   
     8    4    5 ar  
     9    4   32 1   
    10    5    6 ar  
    11    5   33 1   
    12    6    7 1   
    13    7    8 1   
    14    7   34 1   
    15    7   35 1   
    16    8    9 1   
    17    8   13 1   
    18    8   36 1   
    19    9   10 2   
    20    9   11 1   
    21   11   12 1   
    22   12   37 1   
    23   12   38 1   
    24   12   39 1   
    25   13   14 1   
    26   13   40 1   
    27   13   50 1   
    28   14   15 2   
    29   14   16 1   
    30   16   17 1   
    31   16   41 1   
    32   16   42 1   
    33   17   18 1   
    34   17   43 1   
    35   17   44 1   
    36   18   19 2   
    37   18   28 1   
    38   19   20 1   
    39   20   21 ar  
    40   20   25 ar  
    41   21   22 ar  
    42   21   45 1   
    43   22   23 ar  
    44   22   46 1   
    45   23   24 ar  
    46   23   47 1   
    47   24   25 ar  
    48   24   48 1   
    49   25   26 1   
    50   26   27 2   
    51   26   28 1   
    52   28   49 1   
@<TRIPOS>SUBSTRUCTURE
     1 1VC         1 TEMP              0 ****  ****    0 ROOT
