@<TRIPOS>MOLECULE
1VC
   50    52     1     0     0
SMALL
bcc


@<TRIPOS>ATOM
      1 CD1        -0.4980   -0.1250   -0.7490 ca        1 1VC     -0.130500
      2 CE1         0.7430   -0.4870   -1.2730 ca        1 1VC     -0.113000
      3 CZ          1.7030   -1.0810   -0.4540 ca        1 1VC     -0.096000
      4 CE2         1.4210   -1.3180    0.8930 ca        1 1VC     -0.113000
      5 CD2         0.1830   -0.9560    1.4210 ca        1 1VC     -0.130500
      6 CG         -0.7820   -0.3530    0.6030 ca        1 1VC     -0.162300
      7 CB         -2.1130    0.0030    1.1580 c3        1 1VC     -0.045100
      8 CA         -2.1830    1.4950    1.5280 c3        1 1VC      0.069500
      9 C          -3.5430    1.8040    2.1420 c         1 1VC      0.613100
     10 O          -3.7380    2.2140    3.2890 o         1 1VC     -0.532000
     11 OAT        -4.5610    1.5900    1.2840 os        1 1VC     -0.397900
     12 CAA        -5.8890    1.8500    1.7790 c3        1 1VC      0.122700
     13 N          -1.0810    1.8850    2.4740 n4        1 1VC     -0.685800
     14 CAU        -0.8140    3.3840    2.4750 c         1 1VC      0.552100
     15 OAB        -0.4330    3.8530    1.4160 o         1 1VC     -0.413100
     16 CAN        -1.0570    4.0620    3.7900 c3        1 1VC     -0.146400
     17 CAO        -0.8180    5.5550    3.6610 c3        1 1VC     -0.116700
     18 CAX        -1.0280    6.2860    4.9790 cc        1 1VC      0.478900
     19 NAQ        -1.2620    5.6030    6.0830 nd        1 1VC     -0.640100
     20 CAZ        -1.4420    6.3130    7.2800 ca        1 1VC      0.168400
     21 CAL        -1.6960    5.6190    8.4850 ca        1 1VC     -0.119000
     22 CAH        -1.8730    6.3260    9.6660 ca        1 1VC     -0.088000
     23 CAI        -1.8050    7.7240    9.6880 ca        1 1VC     -0.134000
     24 CAM        -1.5570    8.4280    8.5160 ca        1 1VC     -0.055000
     25 CBA        -1.3760    7.7320    7.3150 ca        1 1VC     -0.177600
     26 CAY        -1.1120    8.4690    6.0650 c         1 1VC      0.711100
     27 OAD        -1.0300    9.7010    5.9530 o         1 1VC     -0.590500
     28 NAS        -0.9440    7.6790    4.9080 n         1 1VC     -0.499400
     29 H1         -1.2590    0.3270   -1.4030 ha        1 1VC      0.137000
     30 H2          0.9590   -0.3120   -2.3390 ha        1 1VC      0.156500
     31 H3          2.6800   -1.3750   -0.8720 ha        1 1VC      0.159000
     32 H4          2.1710   -1.8050    1.5350 ha        1 1VC      0.156500
     33 H5         -0.0490   -1.1890    2.4710 ha        1 1VC      0.137000
     34 H6         -2.9240   -0.1750    0.3960 hc        1 1VC      0.100700
     35 H7         -2.3530   -0.6280    2.0560 hc        1 1VC      0.100700
     36 H8         -2.0550    2.1140    0.5850 hx        1 1VC      0.149700
     37 H9         -6.0980    1.1910    2.6550 h1        1 1VC      0.076700
     38 H10        -6.5330    1.5940    0.8990 h1        1 1VC      0.076700
     39 H11        -5.9780    2.9250    2.0620 h1        1 1VC      0.076700
     40 H12        -1.3360    1.5870    3.4240 hn        1 1VC      0.473800
     41 H13        -2.1190    3.8600    4.1230 hc        1 1VC      0.133200
     42 H14        -0.3680    3.6210    4.5650 hc        1 1VC      0.133200
     43 H15        -1.5170    5.9810    2.8900 hc        1 1VC      0.085700
     44 H16         0.2340    5.7430    3.3130 hc        1 1VC      0.085700
     45 H17        -1.7530    4.5200    8.4850 ha        1 1VC      0.148000
     46 H18        -2.0700    5.7790   10.6020 ha        1 1VC      0.148000
     47 H19        -1.9480    8.2660   10.6360 ha        1 1VC      0.153000
     48 H20        -1.5000    9.5300    8.5120 ha        1 1VC      0.169000
     49 H21        -0.7600    8.1300    4.0400 hn        1 1VC      0.339500
     50 H22        -0.2280    1.3820    2.1750 hn        1 1VC      0.473800
@<TRIPOS>BOND
     1    1    2 ar  
     2    1    6 ar  
     3    1   29 1   
     4    2    3 ar  
     5    2   30 1   
     6    3    4 ar  
     7    3   31 1   
     8    4    5 ar  
     9    4   32 1   
    10    5    6 ar  
    11    5   33 1   
    12    6    7 1   
    13    7    8 1   
    14    7   34 1   
    15    7   35 1   
    16    8    9 1   
    17    8   13 1   
    18    8   36 1   
    19    9   10 2   
    20    9   11 1   
    21   11   12 1   
    22   12   37 1   
    23   12   38 1   
    24   12   39 1   
    25   13   14 1   
    26   13   40 1   
    27   13   50 1   
    28   14   15 2   
    29   14   16 1   
    30   16   17 1   
    31   16   41 1   
    32   16   42 1   
    33   17   18 1   
    34   17   43 1   
    35   17   44 1   
    36   18   19 2   
    37   18   28 1   
    38   19   20 1   
    39   20   21 ar  
    40   20   25 ar  
    41   21   22 ar  
    42   21   45 1   
    43   22   23 ar  
    44   22   46 1   
    45   23   24 ar  
    46   23   47 1   
    47   24   25 ar  
    48   24   48 1   
    49   25   26 1   
    50   26   27 2   
    51   26   28 1   
    52   28   49 1   
@<TRIPOS>SUBSTRUCTURE
     1 1VC         1 TEMP              0 ****  ****    0 ROOT
