@<TRIPOS>MOLECULE
1VD
   51    54     1     0     0
SMALL
bcc


@<TRIPOS>ATOM
      1 CAM        -0.2370    0.9580   -0.4540 cc        1 1VD     -0.242600
      2 CAF         1.1180    1.2450   -0.6330 cd        1 1VD      0.330200
      3 NAQ         1.7920    1.1980    0.5990 nd        1 1VD     -0.630000
      4 CAN         0.8740    0.8840    1.5180 cc        1 1VD      0.420400
      5 NBC        -0.4120    0.7190    0.9290 na        1 1VD     -0.174000
      6 CAW        -1.5990    0.3990    1.5800 ca        1 1VD      0.104800
      7 CAJ        -2.8500    0.5250    0.9230 ca        1 1VD     -0.163000
      8 CAH        -4.0280    0.2000    1.5800 ca        1 1VD     -0.066500
      9 CAI        -1.5910   -0.0630    2.9220 ca        1 1VD     -0.163000
     10 CAG        -2.7790   -0.3750    3.5660 ca        1 1VD     -0.066500
     11 CAV        -4.0080   -0.2500    2.9070 ca        1 1VD     -0.229300
     12 CBB        -5.2960   -0.5550    3.5990 c3        1 1VD      0.211800
     13 CAA        -5.4010    0.1180    4.9580 c3        1 1VD     -0.129100
     14 NAS        -5.4440   -2.0700    3.7140 ny        1 1VD     -0.692800
     15 CAU        -6.8580   -2.4780    4.0600 c         1 1VD      0.541100
     16 OAB        -7.6830   -2.3420    3.1700 o         1 1VD     -0.414100
     17 CAO        -7.0540   -3.0060    5.4510 c3        1 1VD     -0.142400
     18 CAP        -8.5110   -3.3600    5.6820 c3        1 1VD     -0.117700
     19 CAX        -8.7560   -3.8960    7.0850 cc        1 1VD      0.478900
     20 NAR        -7.7570   -3.9770    7.9440 nd        1 1VD     -0.647100
     21 CAZ        -8.0220   -4.4760    9.2280 ca        1 1VD      0.167400
     22 CAK        -6.9800   -4.5810   10.1780 ca        1 1VD     -0.121000
     23 CAD        -7.2480   -5.0750   11.4470 ca        1 1VD     -0.087000
     24 CAE        -8.5400   -5.4740   11.8090 ca        1 1VD     -0.133000
     25 CAL        -9.5800   -5.3800   10.8920 ca        1 1VD     -0.054000
     26 CBA        -9.3290   -4.8850    9.6070 ca        1 1VD     -0.177600
     27 CAY       -10.4250   -4.7820    8.6270 c         1 1VD      0.711100
     28 OAC       -11.6070   -5.1010    8.8240 o         1 1VD     -0.587500
     29 NAT       -10.0730   -4.2710    7.3590 ns        1 1VD     -0.498400
     30 H1         -1.0540    0.8940   -1.1690 h4        1 1VD      0.186000
     31 H2          1.6510    1.4820   -1.5560 h4        1 1VD      0.063100
     32 H3          1.0520    0.7760    2.5940 h5        1 1VD      0.070100
     33 H4         -2.9020    0.8940   -0.1150 ha        1 1VD      0.164000
     34 H5         -4.9860    0.3180    1.0480 ha        1 1VD      0.142000
     35 H6         -0.6410   -0.1790    3.4680 ha        1 1VD      0.164000
     36 H7         -2.7410   -0.7140    4.6130 ha        1 1VD      0.142000
     37 H8         -6.1680   -0.2210    2.9530 hx        1 1VD      0.115700
     38 H9         -5.2580    1.2190    4.8070 hc        1 1VD      0.077367
     39 H10        -4.6150   -0.2380    5.6680 hc        1 1VD      0.077367
     40 H11        -6.4080   -0.0460    5.4140 hc        1 1VD      0.077367
     41 H12        -4.7930   -2.4140    4.4240 hn        1 1VD      0.457800
     42 H13        -6.7200   -2.2250    6.1920 hc        1 1VD      0.119700
     43 H14        -6.4080   -3.9170    5.5980 hc        1 1VD      0.119700
     44 H15        -8.8330   -4.1370    4.9350 hc        1 1VD      0.088200
     45 H16        -9.1520   -2.4490    5.5270 hc        1 1VD      0.088200
     46 H17        -5.9580   -4.2720    9.9100 ha        1 1VD      0.146000
     47 H18        -6.4310   -5.1540   12.1820 ha        1 1VD      0.148000
     48 H19        -8.7310   -5.8640   12.8210 ha        1 1VD      0.154000
     49 H20       -10.6050   -5.6900   11.1580 ha        1 1VD      0.169000
     50 H21       -10.7780   -4.1840    6.6620 hn        1 1VD      0.340500
     51 HAS2       -5.1860   -2.4750    2.8050 hn        1 1VD      0.457800
@<TRIPOS>BOND
     1    1    2 2   
     2    1    5 1   
     3    1   30 1   
     4    2    3 1   
     5    2   31 1   
     6    3    4 2   
     7    4    5 1   
     8    4   32 1   
     9    5    6 1   
    10    6    7 ar  
    11    6    9 ar  
    12    7    8 ar  
    13    7   33 1   
    14    8   11 ar  
    15    8   34 1   
    16    9   10 ar  
    17    9   35 1   
    18   10   11 ar  
    19   10   36 1   
    20   11   12 1   
    21   12   13 1   
    22   12   14 1   
    23   12   37 1   
    24   13   38 1   
    25   13   39 1   
    26   13   40 1   
    27   14   15 1   
    28   14   41 1   
    29   14   51 1   
    30   15   16 2   
    31   15   17 1   
    32   17   18 1   
    33   17   42 1   
    34   17   43 1   
    35   18   19 1   
    36   18   44 1   
    37   18   45 1   
    38   19   20 2   
    39   19   29 1   
    40   20   21 1   
    41   21   22 ar  
    42   21   26 ar  
    43   22   23 ar  
    44   22   46 1   
    45   23   24 ar  
    46   23   47 1   
    47   24   25 ar  
    48   24   48 1   
    49   25   26 ar  
    50   25   49 1   
    51   26   27 1   
    52   27   28 2   
    53   27   29 1   
    54   29   50 1   
@<TRIPOS>SUBSTRUCTURE
     1 1VD         1 TEMP              0 ****  ****    0 ROOT
