@<TRIPOS>MOLECULE
1VD
   51    54     1     0     0
SMALL
bcc


@<TRIPOS>ATOM
      1 CAM        -0.2490    0.9680   -0.4590 cc        1 1VD     -0.242600
      2 CAF         1.1080    1.2440   -0.6430 cd        1 1VD      0.330200
      3 NAQ         1.7890    1.1750    0.5830 nd        1 1VD     -0.630000
      4 CAN         0.8740    0.8600    1.5050 cc        1 1VD      0.420400
      5 NBC        -0.4170    0.7150    0.9230 na        1 1VD     -0.174000
      6 CAW        -1.6030    0.4000    1.5780 ca        1 1VD      0.104800
      7 CAJ        -2.8570    0.5440    0.9310 ca        1 1VD     -0.163000
      8 CAH        -4.0330    0.2240    1.5920 ca        1 1VD     -0.066500
      9 CAI        -1.5910   -0.0770    2.9140 ca        1 1VD     -0.163000
     10 CAG        -2.7770   -0.3840    3.5630 ca        1 1VD     -0.066500
     11 CAV        -4.0090   -0.2400    2.9130 ca        1 1VD     -0.229300
     12 CBB        -5.2960   -0.5410    3.6110 c3        1 1VD      0.211800
     13 CAA        -5.3860    0.1190    4.9770 c3        1 1VD     -0.129100
     14 NAS        -5.4580   -2.0550    3.7110 n4        1 1VD     -0.692800
     15 CAU        -6.8720   -2.4540    4.0640 c         1 1VD      0.542100
     16 OAB        -7.7030   -2.3010    3.1820 o         1 1VD     -0.414100
     17 CAO        -7.0630   -2.9940    5.4510 c3        1 1VD     -0.142400
     18 CAP        -8.5210   -3.3390    5.6900 c3        1 1VD     -0.117700
     19 CAX        -8.7590   -3.8870    7.0890 cc        1 1VD      0.478900
     20 NAR        -7.7550   -3.9840    7.9400 nd        1 1VD     -0.647100
     21 CAZ        -8.0140   -4.4930    9.2210 ca        1 1VD      0.167400
     22 CAK        -6.9660   -4.6150   10.1620 ca        1 1VD     -0.121000
     23 CAD        -7.2290   -5.1200   11.4280 ca        1 1VD     -0.087000
     24 CAE        -8.5210   -5.5130   11.7950 ca        1 1VD     -0.133000
     25 CAL        -9.5660   -5.4020   10.8870 ca        1 1VD     -0.054000
     26 CBA        -9.3220   -4.8960    9.6060 ca        1 1VD     -0.177600
     27 CAY       -10.4240   -4.7760    8.6350 c         1 1VD      0.711100
     28 OAC       -11.6070   -5.0880    8.8370 o         1 1VD     -0.587500
     29 NAT       -10.0770   -4.2550    7.3690 n         1 1VD     -0.498400
     30 H1         -1.0710    0.9220   -1.1690 h4        1 1VD      0.186000
     31 H2          1.6360    1.4860   -1.5670 h4        1 1VD      0.063100
     32 H3          1.0580    0.7380    2.5780 h5        1 1VD      0.070100
     33 H4         -2.9120    0.9240   -0.1030 ha        1 1VD      0.164000
     34 H5         -4.9940    0.3560    1.0670 ha        1 1VD      0.142000
     35 H6         -0.6390   -0.2070    3.4540 ha        1 1VD      0.164000
     36 H7         -2.7370   -0.7350    4.6070 ha        1 1VD      0.142000
     37 H8         -6.1690   -0.1920    2.9740 hx        1 1VD      0.115700
     38 H9         -6.3910   -0.0400    5.4380 hc        1 1VD      0.077367
     39 H10        -5.2340    1.2210    4.8370 hc        1 1VD      0.077367
     40 H11        -4.5990   -0.2510    5.6780 hc        1 1VD      0.077367
     41 H12        -5.2100   -2.4530    2.7960 hn        1 1VD      0.457800
     42 H13        -6.4230   -3.9120    5.5840 hc        1 1VD      0.119700
     43 H14        -6.7160   -2.2240    6.1980 hc        1 1VD      0.119700
     44 H15        -8.8540   -4.1050    4.9370 hc        1 1VD      0.088200
     45 H16        -9.1540   -2.4210    5.5490 hc        1 1VD      0.088200
     46 H17        -5.9440   -4.3110    9.8900 ha        1 1VD      0.146000
     47 H18        -6.4070   -5.2120   12.1570 ha        1 1VD      0.148000
     48 H19        -8.7070   -5.9110   12.8050 ha        1 1VD      0.154000
     49 H20       -10.5920   -5.7080   11.1570 ha        1 1VD      0.169000
     50 H21       -10.7860   -4.1560    6.6780 hn        1 1VD      0.340500
     51 HAS2       -4.8040   -2.4130    4.4130 hn        1 1VD      0.457800
@<TRIPOS>BOND
     1    1    2 2   
     2    1    5 1   
     3    1   30 1   
     4    2    3 1   
     5    2   31 1   
     6    3    4 2   
     7    4    5 1   
     8    4   32 1   
     9    5    6 1   
    10    6    7 ar  
    11    6    9 ar  
    12    7    8 ar  
    13    7   33 1   
    14    8   11 ar  
    15    8   34 1   
    16    9   10 ar  
    17    9   35 1   
    18   10   11 ar  
    19   10   36 1   
    20   11   12 1   
    21   12   13 1   
    22   12   14 1   
    23   12   37 1   
    24   13   38 1   
    25   13   39 1   
    26   13   40 1   
    27   14   15 1   
    28   14   41 1   
    29   14   51 1   
    30   15   16 2   
    31   15   17 1   
    32   17   18 1   
    33   17   42 1   
    34   17   43 1   
    35   18   19 1   
    36   18   44 1   
    37   18   45 1   
    38   19   20 2   
    39   19   29 1   
    40   20   21 1   
    41   21   22 ar  
    42   21   26 ar  
    43   22   23 ar  
    44   22   46 1   
    45   23   24 ar  
    46   23   47 1   
    47   24   25 ar  
    48   24   48 1   
    49   25   26 ar  
    50   25   49 1   
    51   26   27 1   
    52   27   28 2   
    53   27   29 1   
    54   29   50 1   
@<TRIPOS>SUBSTRUCTURE
     1 1VD         1 TEMP              0 ****  ****    0 ROOT
