@<TRIPOS>MOLECULE
1VD
   51    54     1     0     0
SMALL
bcc


@<TRIPOS>ATOM
      1 CAM        -0.2510    0.9900   -0.4480 cc        1 1VD     -0.242600
      2 CAF         1.1020    1.2930   -0.6220 cd        1 1VD      0.330200
      3 NAQ         1.7700    1.2610    0.6130 nd        1 1VD     -0.630000
      4 CAN         0.8510    0.9410    1.5290 cc        1 1VD      0.420400
      5 NBC        -0.4300    0.7560    0.9350 na        1 1VD     -0.174000
      6 CAW        -1.6160    0.4260    1.5820 ca        1 1VD      0.104800
      7 CAJ        -2.8650    0.5320    0.9190 ca        1 1VD     -0.163000
      8 CAH        -4.0420    0.1970    1.5720 ca        1 1VD     -0.066500
      9 CAI        -1.6090   -0.0280    2.9260 ca        1 1VD     -0.163000
     10 CAG        -2.7950   -0.3510    3.5670 ca        1 1VD     -0.066500
     11 CAV        -4.0220   -0.2450    2.9010 ca        1 1VD     -0.229300
     12 CBB        -5.3100   -0.5630    3.5890 c3        1 1VD      0.211800
     13 CAA        -5.4300    0.1170    4.9440 c3        1 1VD     -0.129100
     14 NAS        -5.4410   -2.0780    3.7110 n4        1 1VD     -0.692800
     15 CAU        -6.8500   -2.5020    4.0560 c         1 1VD      0.542100
     16 OAB        -7.6740   -2.3810    3.1630 o         1 1VD     -0.414100
     17 CAO        -7.0440   -3.0250    5.4490 c3        1 1VD     -0.142400
     18 CAP        -8.4970   -3.3950    5.6790 c3        1 1VD     -0.117700
     19 CAX        -8.7390   -3.9260    7.0840 cc        1 1VD      0.478900
     20 NAR        -7.7410   -3.9920    7.9450 nd        1 1VD     -0.647100
     21 CAZ        -8.0040   -4.4860    9.2320 ca        1 1VD      0.167400
     22 CAK        -6.9620   -4.5750   10.1840 ca        1 1VD     -0.121000
     23 CAD        -7.2280   -5.0660   11.4550 ca        1 1VD     -0.087000
     24 CAE        -8.5160   -5.4770   11.8160 ca        1 1VD     -0.133000
     25 CAL        -9.5550   -5.3990   10.8970 ca        1 1VD     -0.054000
     26 CBA        -9.3070   -4.9070    9.6100 ca        1 1VD     -0.177600
     27 CAY       -10.4020   -4.8210    8.6280 c         1 1VD      0.711100
     28 OAC       -11.5810   -5.1510    8.8240 o         1 1VD     -0.587500
     29 NAT       -10.0520   -4.3130    7.3570 n         1 1VD     -0.498400
     30 H1         -1.0630    0.9130   -1.1670 h4        1 1VD      0.186000
     31 H2          1.6360    1.5320   -1.5440 h4        1 1VD      0.063100
     32 H3          1.0250    0.8410    2.6060 h5        1 1VD      0.070100
     33 H4         -2.9160    0.8950   -0.1210 ha        1 1VD      0.164000
     34 H5         -4.9990    0.3000    1.0340 ha        1 1VD      0.142000
     35 H6         -0.6600   -0.1300    3.4780 ha        1 1VD      0.164000
     36 H7         -2.7590   -0.6850    4.6160 ha        1 1VD      0.142000
     37 H8         -6.1830   -0.2430    2.9370 hx        1 1VD      0.115700
     38 H9         -6.4370   -0.0570    5.3960 hc        1 1VD      0.077367
     39 H10        -5.2990    1.2190    4.7880 hc        1 1VD      0.077367
     40 H11        -4.6430   -0.2260    5.6590 hc        1 1VD      0.077367
     41 H12        -4.7870   -2.4110    4.4250 hn        1 1VD      0.457800
     42 H13        -6.7200   -2.2360    6.1870 hc        1 1VD      0.119700
     43 H14        -6.3880   -3.9280    5.6030 hc        1 1VD      0.119700
     44 H15        -9.1470   -2.4920    5.5170 hc        1 1VD      0.088200
     45 H16        -8.8080   -4.1790    4.9350 hc        1 1VD      0.088200
     46 H17        -5.9430   -4.2570    9.9170 ha        1 1VD      0.146000
     47 H18        -6.4110   -5.1330   12.1920 ha        1 1VD      0.148000
     48 H19        -8.7050   -5.8630   12.8300 ha        1 1VD      0.154000
     49 H20       -10.5770   -5.7180   11.1620 ha        1 1VD      0.169000
     50 H21       -10.7570   -4.2370    6.6580 hn        1 1VD      0.340500
     51 HAS2       -5.1740   -2.4850    2.8050 hn        1 1VD      0.457800
@<TRIPOS>BOND
     1    1    2 2   
     2    1    5 1   
     3    1   30 1   
     4    2    3 1   
     5    2   31 1   
     6    3    4 2   
     7    4    5 1   
     8    4   32 1   
     9    5    6 1   
    10    6    7 ar  
    11    6    9 ar  
    12    7    8 ar  
    13    7   33 1   
    14    8   11 ar  
    15    8   34 1   
    16    9   10 ar  
    17    9   35 1   
    18   10   11 ar  
    19   10   36 1   
    20   11   12 1   
    21   12   13 1   
    22   12   14 1   
    23   12   37 1   
    24   13   38 1   
    25   13   39 1   
    26   13   40 1   
    27   14   15 1   
    28   14   41 1   
    29   14   51 1   
    30   15   16 2   
    31   15   17 1   
    32   17   18 1   
    33   17   42 1   
    34   17   43 1   
    35   18   19 1   
    36   18   44 1   
    37   18   45 1   
    38   19   20 2   
    39   19   29 1   
    40   20   21 1   
    41   21   22 ar  
    42   21   26 ar  
    43   22   23 ar  
    44   22   46 1   
    45   23   24 ar  
    46   23   47 1   
    47   24   25 ar  
    48   24   48 1   
    49   25   26 ar  
    50   25   49 1   
    51   26   27 1   
    52   27   28 2   
    53   27   29 1   
    54   29   50 1   
@<TRIPOS>SUBSTRUCTURE
     1 1VD         1 TEMP              0 ****  ****    0 ROOT
