@<TRIPOS>MOLECULE
1VE
   38    39     1     0     0
SMALL
bcc


@<TRIPOS>ATOM
      1 C2          0.3090   -0.1640    0.1990 c2        1 1VE      0.040000
      2 C6          1.8040   -0.3370    0.1170 c2        1 1VE     -0.238000
      3 C7          2.6030   -0.1380   -1.1040 c2        1 1VE      0.351000
      4 C10         4.5570    0.8230    0.2420 c3        1 1VE     -0.120000
      5 C11         5.8570    1.5000   -0.0890 c2        1 1VE     -0.059000
      6 C12         6.6270    0.7880   -0.8990 c1        1 1VE     -0.285000
      7 C13         6.3260   -0.2400   -1.7060 c2        1 1VE      0.131000
      8 C15         8.4930   -1.1690   -1.8920 c3        1 1VE      0.039000
      9 C16         9.3180   -0.3060   -2.8600 c2        1 1VE      0.019000
     10 C19        13.0280   -0.6570   -3.2170 c2        1 1VE     -0.463000
     11 C21        11.0000    0.2500   -7.5020 c3        1 1VE     -0.131000
     12 C22        11.2110    0.0100   -6.1130 c1        1 1VE     -0.055000
     13 C23        11.3880   -0.1900   -4.9440 c1        1 1VE     -0.247000
     14 C26         4.8780   -0.3660   -1.9640 c2        1 1VE     -0.043000
     15 N1         -0.4810    0.3350   -0.8000 nv        1 1VE     -0.314000
     16 N3         -0.0250   -0.5010    1.4800 n2        1 1VE     -0.099000
     17 O4          1.1180   -0.8320    2.0990 os        1 1VE     -0.012000
     18 N5          2.1900   -0.7480    1.3360 n2        1 1VE      0.052000
     19 O8          2.0350   -0.1640   -2.2060 o         1 1VE     -0.295000
     20 C9          4.0540    0.0840   -0.9790 c2        1 1VE     -0.157000
     21 N17        10.7170   -0.5150   -2.6230 n2        1 1VE     -0.210000
     22 C18        11.6130   -0.4440   -3.5590 c2        1 1VE      0.239000
     23 C20        14.0680   -0.6700   -4.0250 c1        1 1VE      0.257000
     24 N24         8.7360    0.5150   -3.6670 n2        1 1VE     -0.225000
     25 H29         4.6620    0.1000    1.0950 hc        1 1VE      0.124500
     26 H30         3.8140    1.6080    0.5420 hc        1 1VE      0.124500
     27 H31         6.0450    2.5200    0.2580 ha        1 1VE      0.153000
     28 H33         8.6340   -0.7800   -0.8490 h1        1 1VE      0.126500
     29 H32         8.8130   -2.2440   -1.9720 h1        1 1VE      0.126500
     30 H34        13.2450   -0.8290   -2.1350 ha        1 1VE      0.219000
     31 H36        11.6160    1.1220   -7.8460 hc        1 1VE      0.110000
     32 H37         9.9200    0.4740   -7.7020 hc        1 1VE      0.110000
     33 H38         4.5260   -0.8870   -2.8640 ha        1 1VE      0.169000
     34 H28        -0.1030    0.2590   -1.7210 hn        1 1VE      0.236000
     35 H27        -1.4640    0.2170   -0.7090 hn        1 1VE      0.236000
     36 H35        11.2940   -0.6510   -8.1020 hc        1 1VE      0.110000
     37 H25         9.3240    1.0600   -4.2630 hn        1 1VE      0.150000
     38 O14         7.1090   -1.2190   -2.2450 os        1 1VE     -0.171000
@<TRIPOS>BOND
     1    1    2 1   
     2    1   15 1   
     3    1   16 1   
     4    2    3 1   
     5    2   18 1   
     6    3   19 1   
     7    3   20 1   
     8    4    5 1   
     9    4   20 1   
    10    4   25 1   
    11    4   26 1   
    12    5    6 1   
    13    5   27 1   
    14    6    7 1   
    15    7   14 1   
    16    7   38 1   
    17    8    9 1   
    18    8   28 1   
    19    8   29 1   
    20    8   38 1   
    21    9   21 1   
    22    9   24 1   
    23   10   22 1   
    24   10   23 1   
    25   10   30 1   
    26   11   12 1   
    27   11   31 1   
    28   11   32 1   
    29   11   36 1   
    30   12   13 1   
    31   13   22 1   
    32   14   20 1   
    33   14   33 1   
    34   15   34 1   
    35   15   35 1   
    36   16   17 1   
    37   17   18 1   
    38   21   22 1   
    39   24   37 1   
@<TRIPOS>SUBSTRUCTURE
     1 1VE         1 TEMP              0 ****  ****    0 ROOT
