@<TRIPOS>MOLECULE
1VE
   39    40     1     0     0
SMALL
bcc


@<TRIPOS>ATOM
      1 C2          0.3110   -0.0160   -0.4630 c2        1 1VE     -0.201000
      2 C6          1.7690    0.0580   -0.1380 c2        1 1VE     -0.157000
      3 C7          2.8640   -0.1230   -1.1340 c2        1 1VE      0.378000
      4 C10         4.6810    0.8490    0.2580 c2        1 1VE     -0.054000
      5 C11         6.1010    0.8820    0.6670 c3        1 1VE     -0.216000
      6 C12         7.0190   -0.0450    0.0320 c1        1 1VE     -0.044000
      7 C13         6.5170   -0.8460   -1.0480 c2        1 1VE      0.038000
      8 C15         8.7570   -1.3720   -1.6380 c3        1 1VE      0.027000
      9 C16         9.1640   -0.1360   -2.4550 c2        1 1VE      0.045000
     10 C19        12.3690   -0.1510   -4.3980 c2        1 1VE     -0.454000
     11 C21        11.4170    0.1370   -7.5230 c2        1 1VE     -0.087000
     12 C22        10.6710    0.0730   -6.4550 c1        1 1VE     -0.144000
     13 C23        10.0770   -0.0030   -5.2940 c2        1 1VE     -0.163000
     14 C26         5.1890   -0.8830   -1.3880 c2        1 1VE     -0.113000
     15 N1         -0.2540   -0.2350   -1.7710 n4        1 1VE      0.011000
     16 N3         -0.3580    0.1550    0.7120 n2        1 1VE      0.101000
     17 O4          0.5590    0.3110    1.6390 os        1 1VE      0.058000
     18 N5          1.8160    0.2570    1.1880 n2        1 1VE      0.102000
     19 O8          2.5070   -0.3940   -2.2920 o         1 1VE     -0.314000
     20 C9          4.2540   -0.0260   -0.6930 c2        1 1VE     -0.163000
     21 N17        10.5330   -0.1940   -2.8520 n2        1 1VE     -0.224000
     22 C18        10.9310   -0.1140   -4.0790 c2        1 1VE      0.164000
     23 C20        12.9100   -0.0740   -5.6040 c1        1 1VE      0.187000
     24 N24         8.3350    0.8510   -2.5750 n2        1 1VE     -0.289000
     25 H29         6.5320    1.9210    0.4940 hc        1 1VE      0.194500
     26 H30         4.0150    1.5800    0.7410 ha        1 1VE      0.141000
     27 H31         6.1700    0.7180    1.7880 hc        1 1VE      0.194500
     28 H33         9.0460   -1.2020   -0.5660 h1        1 1VE      0.141000
     29 H32         9.2370   -2.3040   -2.0480 h1        1 1VE      0.141000
     30 H34        13.0680   -0.2480   -3.5380 ha        1 1VE      0.213000
     31 H36        11.7190   -0.7640   -8.0820 ha        1 1VE      0.161500
     32 H37        11.7570    1.0960   -7.9460 ha        1 1VE      0.161500
     33 H38         4.8120   -1.5390   -2.1880 ha        1 1VE      0.166000
     34 H28         0.5280   -0.4290   -2.4370 hn        1 1VE      0.290333
     35 H27        -0.7670    0.6040   -2.0780 hn        1 1VE      0.290333
     36 H35         8.9830   -0.0020   -5.1710 ha        1 1VE      0.165000
     37 H25         8.6490    1.6430   -3.0940 hn        1 1VE      0.151000
     38 H13        -0.8980   -1.0390   -1.7520 hn        1 1VE      0.290333
     39 O14         7.3640   -1.6690   -1.7570 os        1 1VE     -0.188000
@<TRIPOS>BOND
     1    1    2 1   
     2    1   15 1   
     3    1   16 1   
     4    2    3 1   
     5    2   18 1   
     6    3   19 1   
     7    3   20 1   
     8    4    5 1   
     9    4   20 1   
    10    4   26 1   
    11    5    6 1   
    12    5   25 1   
    13    5   27 1   
    14    6    7 1   
    15    7   14 1   
    16    7   39 1   
    17    8    9 1   
    18    8   28 1   
    19    8   29 1   
    20    8   39 1   
    21    9   21 1   
    22    9   24 1   
    23   10   22 1   
    24   10   23 1   
    25   10   30 1   
    26   11   12 1   
    27   11   31 1   
    28   11   32 1   
    29   12   13 1   
    30   13   22 1   
    31   13   36 1   
    32   14   20 1   
    33   14   33 1   
    34   15   34 1   
    35   15   35 1   
    36   15   38 1   
    37   16   17 1   
    38   17   18 1   
    39   21   22 1   
    40   24   37 1   
@<TRIPOS>SUBSTRUCTURE
     1 1VE         1 TEMP              0 ****  ****    0 ROOT
