@<TRIPOS>MOLECULE
1VF
   46    49     1     0     0
SMALL
bcc


@<TRIPOS>ATOM
      1 CAD        -0.0510   -0.0600    0.0460 c3        1 1VF      0.078000
      2 CAC         1.4840    0.0270   -0.0770 c3        1 1VF      0.142800
      3 NAB         2.1560    0.0690    1.2140 n3        1 1VF     -0.732600
      4 CAA         3.5920    0.1780    1.0870 c3        1 1VF      0.157100
      5 CAG         1.5990    1.0760    2.1040 c3        1 1VF      0.142800
      6 CAF         0.0610    0.9820    2.2280 c3        1 1VF      0.078000
      7 NAE        -0.6220    0.9120    0.9570 n         1 1VF     -0.451800
      8 CAH        -1.3540    1.9830    0.4470 c         1 1VF      0.659700
      9 OAI        -1.6200    2.0520   -0.7700 o         1 1VF     -0.589100
     10 CAJ        -1.8930    3.0070    1.3910 ca        1 1VF     -0.113600
     11 CAO        -1.6600    4.3590    1.1200 ca        1 1VF     -0.101500
     12 CAN        -2.1930    5.3380    1.9550 ca        1 1VF     -0.101000
     13 CAK        -2.6780    2.6380    2.4870 ca        1 1VF     -0.101500
     14 CAL        -3.2180    3.6160    3.3190 ca        1 1VF     -0.101000
     15 CAM        -2.9690    4.9720    3.0640 ca        1 1VF     -0.059800
     16 CAP        -3.5170    5.9940    3.9580 cc        1 1VF      0.190900
     17 OAZ        -3.7390    7.1870    3.2850 os        1 1VF     -0.223200
     18 CAY        -4.2580    8.2400    4.0240 ca        1 1VF      0.142100
     19 CAX        -4.4740    9.4280    3.3030 ca        1 1VF     -0.158000
     20 CAW        -4.9920   10.5280    3.9740 ca        1 1VF     -0.077000
     21 CAV        -5.2930   10.4560    5.3400 ca        1 1VF     -0.165000
     22 CAU        -5.0760    9.2790    6.0430 ca        1 1VF     -0.046000
     23 CAT        -4.5540    8.1500    5.3930 ca        1 1VF     -0.214600
     24 CAR        -4.3160    6.8900    6.1120 c         1 1VF      0.589900
     25 OAS        -4.5530    6.7410    7.3190 o         1 1VF     -0.543100
     26 CAQ        -3.7690    5.8210    5.2760 cd        1 1VF     -0.314200
     27 H1         -0.4940    0.0700   -0.9810 h1        1 1VF      0.067950
     28 H2         -0.3310   -1.0810    0.4340 h1        1 1VF      0.067950
     29 H3          1.8370   -0.8960   -0.6160 h1        1 1VF      0.040700
     30 H4          1.7480    0.9210   -0.7150 h1        1 1VF      0.040700
     31 H6          4.0500    0.1100    2.1080 h1        1 1VF      0.034367
     32 H7          3.9640   -0.6780    0.4660 h1        1 1VF      0.034367
     33 H8          3.9260    1.1400    0.6090 h1        1 1VF      0.034367
     34 H9          1.8750    2.1220    1.7810 h1        1 1VF      0.040700
     35 H10         2.0340    0.9060    3.1290 h1        1 1VF      0.040700
     36 H11        -0.2910    1.8700    2.8230 h1        1 1VF      0.067950
     37 H12        -0.2000    0.0460    2.8010 h1        1 1VF      0.067950
     38 H13        -1.0680    4.6450    0.2360 ha        1 1VF      0.153000
     39 H14        -2.0140    6.4040    1.7430 ha        1 1VF      0.151000
     40 H15        -2.8780    1.5740    2.6890 ha        1 1VF      0.153000
     41 H16        -3.8470    3.3210    4.1730 ha        1 1VF      0.151000
     42 H17        -4.2350    9.4660    2.2310 ha        1 1VF      0.155000
     43 H18        -5.1680   11.4660    3.4240 ha        1 1VF      0.141000
     44 H19        -5.7020   11.3380    5.8550 ha        1 1VF      0.142000
     45 H20        -5.3080    9.2050    7.1190 ha        1 1VF      0.161000
     46 H21        -3.5630    4.8620    5.7730 ha        1 1VF      0.168000
@<TRIPOS>BOND
     1    1    2 1   
     2    1    7 1   
     3    1   27 1   
     4    1   28 1   
     5    2    3 1   
     6    2   29 1   
     7    2   30 1   
     8    3    4 1   
     9    3    5 1   
    10    4   31 1   
    11    4   32 1   
    12    4   33 1   
    13    5    6 1   
    14    5   34 1   
    15    5   35 1   
    16    6    7 1   
    17    6   36 1   
    18    6   37 1   
    19    7    8 1   
    20    8    9 2   
    21    8   10 1   
    22   10   11 ar  
    23   10   13 ar  
    24   11   12 ar  
    25   11   38 1   
    26   12   15 ar  
    27   12   39 1   
    28   13   14 ar  
    29   13   40 1   
    30   14   15 ar  
    31   14   41 1   
    32   15   16 1   
    33   16   17 1   
    34   16   26 2   
    35   17   18 1   
    36   18   19 ar  
    37   18   23 ar  
    38   19   20 ar  
    39   19   42 1   
    40   20   21 ar  
    41   20   43 1   
    42   21   22 ar  
    43   21   44 1   
    44   22   23 ar  
    45   22   45 1   
    46   23   24 1   
    47   24   25 2   
    48   24   26 1   
    49   26   46 1   
@<TRIPOS>SUBSTRUCTURE
     1 1VF         1 TEMP              0 ****  ****    0 ROOT
