@<TRIPOS>MOLECULE
1VF
   46    49     1     0     0
SMALL
bcc


@<TRIPOS>ATOM
      1 CAD        -0.0460   -0.0540    0.0400 c3        1 1VF      0.078000
      2 CAC         1.4900    0.0320   -0.0790 c3        1 1VF      0.142800
      3 NAB         2.1590    0.0700    1.2140 n3        1 1VF     -0.732600
      4 CAA         3.5940    0.1780    1.0920 c3        1 1VF      0.157100
      5 CAG         1.5990    1.0750    2.1060 c3        1 1VF      0.142800
      6 CAF         0.0620    0.9830    2.2260 c3        1 1VF      0.078000
      7 NAE        -0.6190    0.9160    0.9520 n         1 1VF     -0.451800
      8 CAH        -1.3480    1.9890    0.4420 c         1 1VF      0.659700
      9 OAI        -1.6110    2.0610   -0.7750 o         1 1VF     -0.589100
     10 CAJ        -1.8890    3.0110    1.3880 ca        1 1VF     -0.113600
     11 CAO        -1.6560    4.3630    1.1200 ca        1 1VF     -0.101500
     12 CAN        -2.1910    5.3400    1.9560 ca        1 1VF     -0.101000
     13 CAK        -2.6770    2.6390    2.4820 ca        1 1VF     -0.101500
     14 CAL        -3.2190    3.6150    3.3140 ca        1 1VF     -0.101000
     15 CAM        -2.9690    4.9720    3.0620 ca        1 1VF     -0.059800
     16 CAP        -3.5190    5.9920    3.9580 cc        1 1VF      0.190900
     17 OAZ        -3.7400    7.1870    3.2870 os        1 1VF     -0.223200
     18 CAY        -4.2610    8.2380    4.0270 ca        1 1VF      0.142100
     19 CAX        -4.4760    9.4270    3.3070 ca        1 1VF     -0.158000
     20 CAW        -4.9960   10.5260    3.9800 ca        1 1VF     -0.077000
     21 CAV        -5.2990   10.4510    5.3450 ca        1 1VF     -0.165000
     22 CAU        -5.0840    9.2720    6.0470 ca        1 1VF     -0.046000
     23 CAT        -4.5600    8.1450    5.3950 ca        1 1VF     -0.214600
     24 CAR        -4.3230    6.8830    6.1120 c         1 1VF      0.589900
     25 OAS        -4.5630    6.7310    7.3180 o         1 1VF     -0.543100
     26 CAQ        -3.7750    5.8170    5.2740 cd        1 1VF     -0.314200
     27 H1         -0.3280   -1.0760    0.4250 h1        1 1VF      0.067950
     28 H2         -0.4860    0.0780   -0.9880 h1        1 1VF      0.067950
     29 H3          1.7560    0.9270   -0.7140 h1        1 1VF      0.040700
     30 H4          1.8430   -0.8910   -0.6180 h1        1 1VF      0.040700
     31 H6          3.9670   -0.6770    0.4690 h1        1 1VF      0.034367
     32 H7          4.0500    0.1070    2.1140 h1        1 1VF      0.034367
     33 H8          3.9310    1.1400    0.6160 h1        1 1VF      0.034367
     34 H9          1.8770    2.1220    1.7860 h1        1 1VF      0.040700
     35 H10         2.0320    0.9030    3.1310 h1        1 1VF      0.040700
     36 H11        -0.2910    1.8690    2.8210 h1        1 1VF      0.067950
     37 H12        -0.2020    0.0450    2.7950 h1        1 1VF      0.067950
     38 H13        -1.0620    4.6510    0.2380 ha        1 1VF      0.153000
     39 H14        -2.0110    6.4070    1.7470 ha        1 1VF      0.151000
     40 H15        -2.8780    1.5740    2.6810 ha        1 1VF      0.153000
     41 H16        -3.8500    3.3180    4.1660 ha        1 1VF      0.151000
     42 H17        -4.2350    9.4680    2.2360 ha        1 1VF      0.155000
     43 H18        -5.1710   11.4640    3.4320 ha        1 1VF      0.141000
     44 H19        -5.7100   11.3310    5.8610 ha        1 1VF      0.142000
     45 H20        -5.3180    9.1960    7.1220 ha        1 1VF      0.161000
     46 H21        -3.5690    4.8560    5.7710 ha        1 1VF      0.168000
@<TRIPOS>BOND
     1    1    2 1   
     2    1    7 1   
     3    1   27 1   
     4    1   28 1   
     5    2    3 1   
     6    2   29 1   
     7    2   30 1   
     8    3    4 1   
     9    3    5 1   
    10    4   31 1   
    11    4   32 1   
    12    4   33 1   
    13    5    6 1   
    14    5   34 1   
    15    5   35 1   
    16    6    7 1   
    17    6   36 1   
    18    6   37 1   
    19    7    8 1   
    20    8    9 2   
    21    8   10 1   
    22   10   11 ar  
    23   10   13 ar  
    24   11   12 ar  
    25   11   38 1   
    26   12   15 ar  
    27   12   39 1   
    28   13   14 ar  
    29   13   40 1   
    30   14   15 ar  
    31   14   41 1   
    32   15   16 1   
    33   16   17 1   
    34   16   26 2   
    35   17   18 1   
    36   18   19 ar  
    37   18   23 ar  
    38   19   20 ar  
    39   19   42 1   
    40   20   21 ar  
    41   20   43 1   
    42   21   22 ar  
    43   21   44 1   
    44   22   23 ar  
    45   22   45 1   
    46   23   24 1   
    47   24   25 2   
    48   24   26 1   
    49   26   46 1   
@<TRIPOS>SUBSTRUCTURE
     1 1VF         1 TEMP              0 ****  ****    0 ROOT
