@<TRIPOS>MOLECULE
1VF
   46    49     1     0     0
SMALL
bcc


@<TRIPOS>ATOM
      1 CAD        -0.0510   -0.0500    0.0300 c3        1 1VF      0.078000
      2 CAC         1.4860    0.0300   -0.0820 c3        1 1VF      0.142800
      3 NAB         2.1490    0.0600    1.2140 n3        1 1VF     -0.732600
      4 CAA         3.5860    0.1620    1.0990 c3        1 1VF      0.157100
      5 CAG         1.5900    1.0640    2.1080 c3        1 1VF      0.142800
      6 CAF         0.0510    0.9780    2.2200 c3        1 1VF      0.078000
      7 NAE        -0.6230    0.9190    0.9440 n         1 1VF     -0.451800
      8 CAH        -1.3470    1.9970    0.4350 c         1 1VF      0.659700
      9 OAI        -1.6040    2.0750   -0.7820 o         1 1VF     -0.589100
     10 CAJ        -1.8870    3.0170    1.3830 ca        1 1VF     -0.113600
     11 CAO        -1.6470    4.3700    1.1210 ca        1 1VF     -0.101500
     12 CAN        -2.1820    5.3460    1.9590 ca        1 1VF     -0.101000
     13 CAK        -2.6810    2.6440    2.4720 ca        1 1VF     -0.101500
     14 CAL        -3.2220    3.6190    3.3060 ca        1 1VF     -0.101000
     15 CAM        -2.9660    4.9760    3.0610 ca        1 1VF     -0.059800
     16 CAP        -3.5170    5.9950    3.9580 cc        1 1VF      0.190900
     17 OAZ        -3.7310    7.1930    3.2900 os        1 1VF     -0.223200
     18 CAY        -4.2510    8.2420    4.0320 ca        1 1VF      0.142100
     19 CAX        -4.4600    9.4350    3.3160 ca        1 1VF     -0.158000
     20 CAW        -4.9790   10.5330    3.9900 ca        1 1VF     -0.077000
     21 CAV        -5.2880   10.4540    5.3540 ca        1 1VF     -0.165000
     22 CAU        -5.0790    9.2720    6.0520 ca        1 1VF     -0.046000
     23 CAT        -4.5560    8.1450    5.3980 ca        1 1VF     -0.214600
     24 CAR        -4.3260    6.8810    6.1120 c         1 1VF      0.589900
     25 OAS        -4.5710    6.7250    7.3160 o         1 1VF     -0.543100
     26 CAQ        -3.7780    5.8150    5.2730 cd        1 1VF     -0.314200
     27 H1         -0.3390   -1.0720    0.4090 h1        1 1VF      0.067950
     28 H2         -0.4860    0.0890   -0.9990 h1        1 1VF      0.067950
     29 H3          1.7580    0.9260   -0.7120 h1        1 1VF      0.040700
     30 H4          1.8370   -0.8920   -0.6240 h1        1 1VF      0.040700
     31 H6          3.9280    1.1250    0.6290 h1        1 1VF      0.034367
     32 H7          3.9580   -0.6910    0.4740 h1        1 1VF      0.034367
     33 H8          4.0370    0.0850    2.1230 h1        1 1VF      0.034367
     34 H9          2.0180    0.8850    3.1340 h1        1 1VF      0.040700
     35 H10         1.8740    2.1110    1.7930 h1        1 1VF      0.040700
     36 H11        -0.3000    1.8630    2.8180 h1        1 1VF      0.067950
     37 H12        -0.2190    0.0390    2.7850 h1        1 1VF      0.067950
     38 H13        -1.0490    4.6590    0.2430 ha        1 1VF      0.153000
     39 H14        -1.9970    6.4120    1.7550 ha        1 1VF      0.151000
     40 H15        -2.8870    1.5800    2.6660 ha        1 1VF      0.153000
     41 H16        -3.8590    3.3220    4.1540 ha        1 1VF      0.151000
     42 H17        -4.2140    9.4790    2.2460 ha        1 1VF      0.155000
     43 H18        -5.1490   11.4740    3.4450 ha        1 1VF      0.141000
     44 H19        -5.6990   11.3340    5.8710 ha        1 1VF      0.142000
     45 H20        -5.3180    9.1930    7.1260 ha        1 1VF      0.161000
     46 H21        -3.5780    4.8530    5.7660 ha        1 1VF      0.168000
@<TRIPOS>BOND
     1    1    2 1   
     2    1    7 1   
     3    1   27 1   
     4    1   28 1   
     5    2    3 1   
     6    2   29 1   
     7    2   30 1   
     8    3    4 1   
     9    3    5 1   
    10    4   31 1   
    11    4   32 1   
    12    4   33 1   
    13    5    6 1   
    14    5   34 1   
    15    5   35 1   
    16    6    7 1   
    17    6   36 1   
    18    6   37 1   
    19    7    8 1   
    20    8    9 2   
    21    8   10 1   
    22   10   11 ar  
    23   10   13 ar  
    24   11   12 ar  
    25   11   38 1   
    26   12   15 ar  
    27   12   39 1   
    28   13   14 ar  
    29   13   40 1   
    30   14   15 ar  
    31   14   41 1   
    32   15   16 1   
    33   16   17 1   
    34   16   26 2   
    35   17   18 1   
    36   18   19 ar  
    37   18   23 ar  
    38   19   20 ar  
    39   19   42 1   
    40   20   21 ar  
    41   20   43 1   
    42   21   22 ar  
    43   21   44 1   
    44   22   23 ar  
    45   22   45 1   
    46   23   24 1   
    47   24   25 2   
    48   24   26 1   
    49   26   46 1   
@<TRIPOS>SUBSTRUCTURE
     1 1VF         1 TEMP              0 ****  ****    0 ROOT
