@<TRIPOS>MOLECULE
1VF
   46    40     1     0     0
SMALL
bcc


@<TRIPOS>ATOM
      1 CAD         1.9940    3.8200   -2.8600 c3        1 1VF     -0.067500
      2 CAC         3.5000    3.8370   -2.8600 c3        1 1VF     -0.096000
      3 NAB         4.0430    3.8740   -1.5320 n3        1 1VF     -0.245000
      4 CAA         3.7920    5.1750   -0.9380 c3        1 1VF     -0.128000
      5 CAG         3.4990    2.8390   -0.6830 c3        1 1VF     -0.096000
      6 CAF         1.9900    2.8260   -0.6950 c3        1 1VF     -0.067500
      7 NAE         1.4660    2.8030   -2.0100 n3        1 1VF     -0.315000
      8 CAH         0.4960    1.8480   -2.4500 c1        1 1VF      0.337000
      9 OAI         0.0710    1.8820   -3.6340 o         1 1VF     -0.352000
     10 CAJ        -0.0370    0.8030   -1.4830 c1        1 1VF     -0.070000
     11 CAO        -1.0110    1.1490   -0.5610 c1        1 1VF     -0.110333
     12 CAN        -1.5360    0.1910    0.2820 c1        1 1VF     -0.110333
     13 CAK         0.4220   -0.5330   -1.5610 c1        1 1VF     -0.095000
     14 CAL        -0.1020   -1.4960   -0.7170 c1        1 1VF     -0.095000
     15 CAM        -1.0770   -1.1510    0.2050 c1        1 1VF     -0.070000
     16 CAP        -1.6260   -2.1900    1.1430 c1        1 1VF      0.135000
     17 OAZ        -2.7830   -2.9580    0.7690 o         1 1VF     -0.134000
     18 CAY        -3.2700   -4.0700    1.6610 c1        1 1VF      0.097000
     19 CAX        -4.3850   -4.8480    1.2740 c1        1 1VF     -0.110333
     20 CAW        -4.8840   -5.8350    2.1370 c1        1 1VF     -0.110333
     21 CAV        -4.2770   -6.0500    3.3830 c1        1 1VF     -0.110333
     22 CAU        -3.1740   -5.2810    3.7670 c1        1 1VF     -0.110333
     23 CAT        -2.6690   -4.2860    2.8990 c1        1 1VF     -0.194000
     24 CAR        -1.4800   -3.4550    3.3170 c2        1 1VF      0.311000
     25 OAS        -0.9470   -3.6580    4.3750 o         1 1VF     -0.304000
     26 CAQ        -0.9710   -2.4330    2.4370 c2        1 1VF     -0.295000
     27 H1          1.6490    4.7390   -2.5390 h1        1 1VF      0.102250
     28 H2          1.6760    3.6620   -3.7840 h1        1 1VF      0.102250
     29 H3          3.8180    4.6520   -3.3670 h1        1 1VF      0.101000
     30 H4          3.8380    3.0040   -3.3310 h1        1 1VF      0.101000
     31 H6          4.2250    5.2220   -0.0570 h1        1 1VF      0.072667
     32 H7          2.8560    5.3030   -0.8380 h1        1 1VF      0.072667
     33 H8          4.1820    5.9240   -1.5610 h1        1 1VF      0.072667
     34 H9          3.8300    1.9600   -0.9940 h1        1 1VF      0.101000
     35 H10         3.8250    2.9960    0.2810 h1        1 1VF      0.101000
     36 H11         1.6540    3.6410   -0.2270 h1        1 1VF      0.102250
     37 H12         1.6780    2.0370   -0.2160 h1        1 1VF      0.102250
     38 H13        -1.3290    2.0790   -0.5060 ha        1 1VF      0.149167
     39 H14        -2.2330    0.4400    0.9410 ha        1 1VF      0.149167
     40 H15         1.1400   -0.7860   -2.2380 ha        1 1VF      0.155000
     41 H16         0.2240   -2.4470   -0.7720 ha        1 1VF      0.155000
     42 H17        -4.8170   -4.6960    0.3900 ha        1 1VF      0.149167
     43 H18        -5.6760   -6.3880    1.8620 ha        1 1VF      0.149167
     44 H19        -4.6310   -6.7500    3.9950 ha        1 1VF      0.149167
     45 H20        -2.7540   -5.4300    4.6320 ha        1 1VF      0.149167
     46 H21        -0.1990   -1.9660    2.6630 ha        1 1VF      0.168000
@<TRIPOS>BOND
     1    1    2 1   
     2    1    7 1   
     3    1   27 1   
     4    1   28 1   
     5    2    3 1   
     6    2   29 1   
     7    2   30 1   
     8    3    4 1   
     9    3    5 1   
    10    4   31 1   
    11    4   32 1   
    12    4   33 1   
    13    5    6 1   
    14    5   34 1   
    15    5   35 1   
    16    6    7 1   
    17    6   36 1   
    18    6   37 1   
    19    7    8 1   
    20    8    9 1   
    21   10   13 1   
    22   11   12 1   
    23   11   38 1   
    24   12   39 1   
    25   13   40 1   
    26   14   15 1   
    27   14   41 1   
    28   16   26 1   
    29   17   18 1   
    30   18   23 1   
    31   19   20 1   
    32   19   42 1   
    33   20   43 1   
    34   21   22 1   
    35   21   44 1   
    36   22   45 1   
    37   23   24 1   
    38   24   25 1   
    39   24   26 1   
    40   26   46 1   
@<TRIPOS>SUBSTRUCTURE
     1 1VF         1 TEMP              0 ****  ****    0 ROOT
