@<TRIPOS>MOLECULE
1VF
   46    49     1     0     0
SMALL
bcc


@<TRIPOS>ATOM
      1 CAD         5.6420   -0.5870    0.8290 c3        1 1VF      0.078000
      2 CAC         6.4260   -0.2690   -0.4620 c3        1 1VF      0.142800
      3 NAB         6.2230    1.0960   -0.9280 n3        1 1VF     -0.732600
      4 CAA         6.9390    1.3750   -2.1520 c3        1 1VF      0.157100
      5 CAG         4.8160    1.4570   -1.0120 c3        1 1VF      0.142800
      6 CAF         4.0360    1.1410    0.2830 c3        1 1VF      0.078000
      7 NAE         4.2460   -0.2010    0.7770 n         1 1VF     -0.451800
      8 CAH         3.2650   -1.1880    0.6880 c         1 1VF      0.659700
      9 OAI         3.5660   -2.3960    0.7690 o         1 1VF     -0.589100
     10 CAJ         1.8330   -0.7770    0.5820 ca        1 1VF     -0.113600
     11 CAO         1.0460   -1.3400   -0.4280 ca        1 1VF     -0.101500
     12 CAN        -0.3050   -1.0140   -0.5200 ca        1 1VF     -0.101000
     13 CAK         1.2600    0.0950    1.5130 ca        1 1VF     -0.101500
     14 CAL        -0.0920    0.4160    1.4270 ca        1 1VF     -0.101000
     15 CAM        -0.8800   -0.1290    0.4030 ca        1 1VF     -0.059800
     16 CAP        -2.2960    0.2340    0.3020 cc        1 1VF      0.190900
     17 OAZ        -3.0380   -0.7850   -0.2790 os        1 1VF     -0.223200
     18 CAY        -4.3990   -0.5630   -0.4330 ca        1 1VF      0.142100
     19 CAX        -5.1140   -1.6230   -1.0200 ca        1 1VF     -0.158000
     20 CAW        -6.4820   -1.4770   -1.2080 ca        1 1VF     -0.077000
     21 CAV        -7.1360   -0.3000   -0.8220 ca        1 1VF     -0.165000
     22 CAU        -6.4210    0.7410   -0.2430 ca        1 1VF     -0.046000
     23 CAT        -5.0370    0.6230   -0.0400 ca        1 1VF     -0.214600
     24 CAR        -4.2550    1.7070    0.5720 c         1 1VF      0.589900
     25 OAS        -4.7530    2.7800    0.9410 o         1 1VF     -0.543100
     26 CAQ        -2.8290    1.4100    0.7060 cd        1 1VF     -0.314200
     27 H1          5.7290   -1.6920    1.0290 h1        1 1VF      0.067950
     28 H2          6.1090   -0.0260    1.6880 h1        1 1VF      0.067950
     29 H3          7.5210   -0.3930   -0.2370 h1        1 1VF      0.040700
     30 H4          6.1480   -1.0260   -1.2520 h1        1 1VF      0.040700
     31 H6          6.5820    0.7640   -3.0270 h1        1 1VF      0.034367
     32 H7          6.8160    2.4610   -2.4020 h1        1 1VF      0.034367
     33 H8          8.0270    1.1620   -1.9880 h1        1 1VF      0.034367
     34 H9          4.7560    2.5680   -1.1840 h1        1 1VF      0.040700
     35 H10         4.3020    0.9470   -1.8790 h1        1 1VF      0.040700
     36 H11         4.3740    1.8510    1.0920 h1        1 1VF      0.067950
     37 H12         2.9450    1.3260    0.0830 h1        1 1VF      0.067950
     38 H13         1.4950   -2.0510   -1.1380 ha        1 1VF      0.153000
     39 H14        -0.9290   -1.4570   -1.3120 ha        1 1VF      0.151000
     40 H15         1.8750    0.5220    2.3210 ha        1 1VF      0.153000
     41 H16        -0.5430    1.0920    2.1710 ha        1 1VF      0.151000
     42 H17        -4.5860   -2.5410   -1.3140 ha        1 1VF      0.155000
     43 H18        -7.0580   -2.2970   -1.6640 ha        1 1VF      0.141000
     44 H19        -8.2200   -0.2020   -0.9780 ha        1 1VF      0.142000
     45 H20        -6.9200    1.6740    0.0670 ha        1 1VF      0.161000
     46 H21        -2.2010    2.1970    1.1480 ha        1 1VF      0.168000
@<TRIPOS>BOND
     1    1    2 1   
     2    1    7 1   
     3    1   27 1   
     4    1   28 1   
     5    2    3 1   
     6    2   29 1   
     7    2   30 1   
     8    3    4 1   
     9    3    5 1   
    10    4   31 1   
    11    4   32 1   
    12    4   33 1   
    13    5    6 1   
    14    5   34 1   
    15    5   35 1   
    16    6    7 1   
    17    6   36 1   
    18    6   37 1   
    19    7    8 1   
    20    8    9 2   
    21    8   10 1   
    22   10   11 ar  
    23   10   13 ar  
    24   11   12 ar  
    25   11   38 1   
    26   12   15 ar  
    27   12   39 1   
    28   13   14 ar  
    29   13   40 1   
    30   14   15 ar  
    31   14   41 1   
    32   15   16 1   
    33   16   17 1   
    34   16   26 2   
    35   17   18 1   
    36   18   19 ar  
    37   18   23 ar  
    38   19   20 ar  
    39   19   42 1   
    40   20   21 ar  
    41   20   43 1   
    42   21   22 ar  
    43   21   44 1   
    44   22   23 ar  
    45   22   45 1   
    46   23   24 1   
    47   24   25 2   
    48   24   26 1   
    49   26   46 1   
@<TRIPOS>SUBSTRUCTURE
     1 1VF         1 TEMP              0 ****  ****    0 ROOT
