@<TRIPOS>MOLECULE
1VG
   32    35     1     0     0
SMALL
bcc


@<TRIPOS>ATOM
      1 CAC        -1.8300    1.6090    0.2730 cc        1 1VG     -0.304200
      2 CAB        -3.2910    1.6950    0.2940 c         1 1VG      0.588900
      3 OAA        -3.8960    2.7620    0.4680 o         1 1VG     -0.537100
      4 CAK        -3.9700    0.4060    0.0920 ca        1 1VG     -0.214600
      5 CAJ        -5.3700    0.3070    0.0880 ca        1 1VG     -0.045000
      6 CAI        -5.9850   -0.9230   -0.1050 ca        1 1VG     -0.163000
      7 CAH        -5.2140   -2.0750   -0.2980 ca        1 1VG     -0.076000
      8 CAG        -3.8270   -2.0100   -0.2990 ca        1 1VG     -0.159000
      9 CAF        -3.2130   -0.7590   -0.1020 ca        1 1VG      0.141100
     10 OAE        -1.8260   -0.7750   -0.1160 os        1 1VG     -0.227200
     11 CAD        -1.1810    0.4400    0.0740 cd        1 1VG      0.183900
     12 CAL         0.2750    0.2790    0.0420 ca        1 1VG     -0.050800
     13 CAQ         0.8650   -0.9320    0.4330 ca        1 1VG     -0.098000
     14 CAP         2.2490   -1.0760    0.4170 ca        1 1VG     -0.102000
     15 CAM         1.0880    1.3420   -0.3720 ca        1 1VG     -0.098000
     16 CAN         2.4740    1.2010   -0.3900 ca        1 1VG     -0.102000
     17 CAO         3.0610   -0.0110    0.0030 ca        1 1VG     -0.121500
     18 CAR         4.5090   -0.1390   -0.0200 cc        1 1VG      0.444000
     19 NAV         5.2370   -1.3490   -0.0470 na        1 1VG     -0.179400
     20 NAU         6.5420   -1.0490   -0.0690 nc        1 1VG     -0.189800
     21 NAT         6.6470    0.2310   -0.0560 nd        1 1VG     -0.044000
     22 NAS         5.4680    0.8440   -0.0270 nd        1 1VG     -0.364000
     23 H1         -1.2790    2.5470    0.4360 ha        1 1VG      0.170000
     24 H3         -5.9620    1.2250    0.2410 ha        1 1VG      0.162000
     25 H4         -7.0830   -0.9940   -0.1080 ha        1 1VG      0.144000
     26 H5         -5.7120   -3.0460   -0.4520 ha        1 1VG      0.141000
     27 H6         -3.2080   -2.9040   -0.4510 ha        1 1VG      0.154000
     28 H8          0.2260   -1.7700    0.7550 ha        1 1VG      0.154500
     29 H9          2.6900   -2.0290    0.7450 ha        1 1VG      0.151000
     30 H10         0.6350    2.2940   -0.6920 ha        1 1VG      0.154500
     31 H11         3.1050    2.0450   -0.7140 ha        1 1VG      0.151000
     32 H12         4.8990   -2.2820   -0.0610 hn        1 1VG      0.334700
@<TRIPOS>BOND
     1    1    2 1   
     2    1   11 2   
     3    1   23 1   
     4    2    3 2   
     5    2    4 1   
     6    4    5 ar  
     7    4    9 ar  
     8    5    6 ar  
     9    5   24 1   
    10    6    7 ar  
    11    6   25 1   
    12    7    8 ar  
    13    7   26 1   
    14    8    9 ar  
    15    8   27 1   
    16    9   10 1   
    17   10   11 1   
    18   11   12 1   
    19   12   13 ar  
    20   12   15 ar  
    21   13   14 ar  
    22   13   28 1   
    23   14   17 ar  
    24   14   29 1   
    25   15   16 ar  
    26   15   30 1   
    27   16   17 ar  
    28   16   31 1   
    29   17   18 1   
    30   18   19 1   
    31   18   22 2   
    32   19   20 1   
    33   19   32 1   
    34   20   21 2   
    35   21   22 1   
@<TRIPOS>SUBSTRUCTURE
     1 1VG         1 TEMP              0 ****  ****    0 ROOT
