@<TRIPOS>MOLECULE
1VG
   32    25     1     0     0
SMALL
bcc


@<TRIPOS>ATOM
      1 CAC         1.4910   -0.7060   -1.3210 c1        1 1VG     -0.289000
      2 CAB         2.9360   -0.6780   -1.3170 c1        1 1VG      0.310000
      3 OAA         3.5570   -1.2280   -2.2040 o         1 1VG     -0.300000
      4 CAK         3.6680   -0.0710   -0.1500 c2        1 1VG     -0.194000
      5 CAJ         5.0640   -0.0040   -0.1570 c2        1 1VG     -0.046000
      6 CAI         5.7380    0.6210    0.8920 c1        1 1VG     -0.163000
      7 CAH         5.0150    1.1850    1.9560 c1        1 1VG     -0.102750
      8 CAG         3.6210    1.1190    1.9650 c1        1 1VG     -0.102750
      9 CAF         2.9430    0.4930    0.9150 c1        1 1VG      0.096000
     10 OAE         1.4540    0.3720    0.9550 o         1 1VG     -0.135000
     11 CAD         0.7440   -0.1370   -0.1830 c1        1 1VG      0.130000
     12 CAL        -0.7690   -0.1440   -0.1910 c1        1 1VG     -0.026500
     13 CAQ        -1.4610   -1.1470    0.4690 c1        1 1VG     -0.102750
     14 CAP        -2.8470   -1.1540    0.4600 c1        1 1VG     -0.102750
     15 CAM        -1.4630    0.8530   -0.8590 c1        1 1VG     -0.110500
     16 CAN        -2.8490    0.8460   -0.8670 c1        1 1VG     -0.110500
     17 CAO        -3.5410   -0.1570   -0.2070 c1        1 1VG     -0.026500
     18 CAR        -5.0530   -0.1410   -0.1820 c1        1 1VG     -0.015000
     19 NAV        -5.8640   -0.7430   -1.0680 n2        1 1VG     -0.156500
     20 NAU        -7.1350   -0.4740   -0.7170 n2        1 1VG     -0.032000
     21 NAT        -7.1080    0.2920    0.3850 n2        1 1VG     -0.032000
     22 NAS        -5.8210    0.4980    0.7170 n2        1 1VG     -0.156500
     23 H1          1.0100   -1.0530   -2.0970 ha        1 1VG      0.168000
     24 H3          5.5670   -0.3960   -0.8970 ha        1 1VG      0.162000
     25 H4          6.7130    0.6670    0.8860 ha        1 1VG      0.143000
     26 H5          5.4880    1.6220    2.6890 ha        1 1VG      0.156000
     27 H6          3.1190    1.5110    2.7050 ha        1 1VG      0.156000
     28 H8         -0.9720   -1.8490    0.9390 ha        1 1VG      0.156000
     29 H9         -3.3340   -1.8610    0.9250 ha        1 1VG      0.156000
     30 H10        -0.9750    1.5600   -1.3230 ha        1 1VG      0.142500
     31 H11        -3.3370    1.5490   -1.3370 ha        1 1VG      0.142500
     32 H12        -5.6000   -1.2450   -1.7820 DU        1 1VG      0.285000
@<TRIPOS>BOND
     1    1   11 1   
     2    1   23 1   
     3    2    3 1   
     4    2    4 1   
     5    4    5 1   
     6    4    9 1   
     7    5    6 1   
     8    5   24 1   
     9    6   25 1   
    10    7    8 1   
    11    7   26 1   
    12    8   27 1   
    13   10   11 1   
    14   12   15 1   
    15   13   14 1   
    16   13   28 1   
    17   14   29 1   
    18   15   30 1   
    19   16   17 1   
    20   16   31 1   
    21   18   19 1   
    22   18   22 1   
    23   19   20 1   
    24   20   21 1   
    25   21   22 1   
@<TRIPOS>SUBSTRUCTURE
     1 1VG         1 TEMP              0 ****  ****    0 ROOT
