@<TRIPOS>MOLECULE
1VG
   32    35     1     0     0
SMALL
bcc


@<TRIPOS>ATOM
      1 CAC         0.0880   -0.2660   -0.0940 cc        1 1VG     -0.304200
      2 CAB         1.5510   -0.2870   -0.0650 c         1 1VG      0.588900
      3 OAA         2.2370   -0.4570   -1.0820 o         1 1VG     -0.537100
      4 CAK         2.1260   -0.0900    1.2730 ca        1 1VG     -0.214600
      5 CAJ         3.5140   -0.0870    1.4810 ca        1 1VG     -0.045000
      6 CAI         4.0320    0.1020    2.7560 ca        1 1VG     -0.163000
      7 CAH         3.1730    0.2910    3.8460 ca        1 1VG     -0.076000
      8 CAG         1.7950    0.2920    3.6720 ca        1 1VG     -0.159000
      9 CAF         1.2810    0.1000    2.3770 ca        1 1VG      0.141100
     10 OAE        -0.1030    0.1140    2.2840 os        1 1VG     -0.227200
     11 CAD        -0.6510   -0.0710    1.0220 cd        1 1VG      0.183900
     12 CAL        -2.1150   -0.0390    1.0690 ca        1 1VG     -0.050800
     13 CAQ        -2.7980   -0.4350    2.2280 ca        1 1VG     -0.098000
     14 CAP        -4.1890   -0.4180    2.2630 ca        1 1VG     -0.102000
     15 CAM        -2.8420    0.3800   -0.0530 ca        1 1VG     -0.098000
     16 CAN        -4.2350    0.3970   -0.0210 ca        1 1VG     -0.102000
     17 CAO        -4.9150   -0.0000    1.1390 ca        1 1VG     -0.121500
     18 CAR        -6.3690    0.0230    1.1540 cc        1 1VG      0.444000
     19 NAV        -7.1890    0.0460    2.3030 na        1 1VG     -0.179400
     20 NAU        -8.4670    0.0690    1.9020 nc        1 1VG     -0.189800
     21 NAT        -8.4710    0.0610    0.6170 nd        1 1VG     -0.044000
     22 NAS        -7.2480    0.0340    0.0990 nd        1 1VG     -0.364000
     23 H1         -0.3890   -0.4250   -1.0730 ha        1 1VG      0.170000
     24 H3          4.1770   -0.2370    0.6120 ha        1 1VG      0.162000
     25 H4          5.1210    0.1040    2.9130 ha        1 1VG      0.144000
     26 H5          3.5930    0.4410    4.8530 ha        1 1VG      0.141000
     27 H6          1.1080    0.4410    4.5160 ha        1 1VG      0.154000
     28 H8         -2.2270   -0.7590    3.1120 ha        1 1VG      0.154500
     29 H9         -4.7030   -0.7500    3.1770 ha        1 1VG      0.151000
     30 H10        -2.3160    0.7020   -0.9660 ha        1 1VG      0.154500
     31 H11        -4.7980    0.7240   -0.9110 ha        1 1VG      0.151000
     32 H12        -6.9250    0.0570    3.2600 hn        1 1VG      0.334700
@<TRIPOS>BOND
     1    1    2 1   
     2    1   11 2   
     3    1   23 1   
     4    2    3 2   
     5    2    4 1   
     6    4    5 ar  
     7    4    9 ar  
     8    5    6 ar  
     9    5   24 1   
    10    6    7 ar  
    11    6   25 1   
    12    7    8 ar  
    13    7   26 1   
    14    8    9 ar  
    15    8   27 1   
    16    9   10 1   
    17   10   11 1   
    18   11   12 1   
    19   12   13 ar  
    20   12   15 ar  
    21   13   14 ar  
    22   13   28 1   
    23   14   17 ar  
    24   14   29 1   
    25   15   16 ar  
    26   15   30 1   
    27   16   17 ar  
    28   16   31 1   
    29   17   18 1   
    30   18   19 1   
    31   18   22 2   
    32   19   20 1   
    33   19   32 1   
    34   20   21 2   
    35   21   22 1   
@<TRIPOS>SUBSTRUCTURE
     1 1VG         1 TEMP              0 ****  ****    0 ROOT
