@<TRIPOS>MOLECULE
1VJ
   34    35     1     0     0
SMALL
bcc


@<TRIPOS>ATOM
      1 C1          2.1870   -0.4500   -0.6180 c3        1 1VJ     -0.101100
      2 C2          3.3740    0.0430    0.1720 c3        1 1VJ      0.139400
      3 C6          3.2540    0.7160    3.8250 c3        1 1VJ      0.086400
      4 C8          5.0480    0.6290    5.3750 ca        1 1VJ      0.061100
      5 C10         5.7220   -0.5030    7.3900 ca        1 1VJ     -0.133000
      6 C11         6.9840   -0.7270    6.8380 ca        1 1VJ     -0.078000
      7 C12         7.2760   -0.2720    5.5480 ca        1 1VJ     -0.156600
      8 C13         6.3030    0.4020    4.8000 ca        1 1VJ     -0.080000
      9 C14         8.5990   -0.5060    4.9350 c         1 1VJ      0.529200
     10 C16         9.7850   -0.0850    5.6990 cc        1 1VJ      0.104500
     11 O3          2.9230    0.1750    1.5340 os        1 1VJ     -0.446900
     12 C4          3.8440    0.6150    2.4420 c         1 1VJ      0.604100
     13 O5          4.9840    0.8670    2.0510 o         1 1VJ     -0.530000
     14 O7          4.1130    1.4220    4.7110 os        1 1VJ     -0.318900
     15 C9          4.7450    0.1780    6.6660 ca        1 1VJ     -0.110000
     16 O15         8.7350   -1.0170    3.8170 o         1 1VJ     -0.523100
     17 N17         9.8610    0.3730    6.9600 nd        1 1VJ     -0.275300
     18 O18        11.1250    0.6270    7.2290 os        1 1VJ      0.133600
     19 N19        11.9660    0.3770    6.2130 nd        1 1VJ     -0.444300
     20 C20        11.1990   -0.0770    5.1760 cc        1 1VJ      0.508900
     21 N21        11.5700   -0.3820    3.9000 nv        1 1VJ     -0.931500
     22 H22         1.8340   -1.4330   -0.2260 hc        1 1VJ      0.049033
     23 H24         2.4880   -0.5680   -1.6870 hc        1 1VJ      0.049033
     24 H23         1.3430    0.2780   -0.5540 hc        1 1VJ      0.049033
     25 H25         3.7330    1.0430   -0.1840 h1        1 1VJ      0.054200
     26 H26         4.2280   -0.6840    0.1470 h1        1 1VJ      0.054200
     27 H28         2.3230    1.3470    3.7820 h1        1 1VJ      0.091200
     28 H27         3.0130   -0.3130    4.2000 h1        1 1VJ      0.091200
     29 H30         5.5000   -0.8630    8.4060 ha        1 1VJ      0.143000
     30 H31         7.7430   -1.2690    7.4230 ha        1 1VJ      0.147000
     31 H32         6.5100    0.7490    3.7720 ha        1 1VJ      0.186000
     32 H29         3.7540    0.3750    7.0990 ha        1 1VJ      0.148000
     33 H34        12.5310   -0.5280    3.7070 hn        1 1VJ      0.448800
     34 H33        10.8960   -0.8600    3.3430 hn        1 1VJ      0.448800
@<TRIPOS>BOND
     1    1    2 1   
     2    1   22 1   
     3    1   23 1   
     4    1   24 1   
     5    2   11 1   
     6    2   25 1   
     7    2   26 1   
     8    3   12 1   
     9    3   14 1   
    10    3   27 1   
    11    3   28 1   
    12    4    8 ar  
    13    4   14 1   
    14    4   15 ar  
    15    5    6 ar  
    16    5   15 ar  
    17    5   29 1   
    18    6    7 ar  
    19    6   30 1   
    20    7    8 ar  
    21    7    9 1   
    22    8   31 1   
    23    9   10 1   
    24    9   16 2   
    25   10   17 2   
    26   10   20 1   
    27   11   12 1   
    28   12   13 2   
    29   15   32 1   
    30   17   18 1   
    31   18   19 1   
    32   19   20 2   
    33   20   21 1   
    34   21   33 1   
    35   21   34 1   
@<TRIPOS>SUBSTRUCTURE
     1 1VJ         1 TEMP              0 ****  ****    0 ROOT
