@<TRIPOS>MOLECULE
1VJ
   35    36     1     0     0
SMALL
bcc


@<TRIPOS>ATOM
      1 C1          2.2000    0.2560   -0.6660 c3        1 1VJ     -0.104100
      2 C2          3.4120   -0.0300    0.1860 c3        1 1VJ      0.141400
      3 C6          3.2180   -0.5750    3.8610 c3        1 1VJ      0.081400
      4 C8          5.0260   -0.5380    5.4060 ca        1 1VJ      0.072100
      5 C10         5.7520    0.6560    7.3720 ca        1 1VJ     -0.128000
      6 C11         7.0450    0.7180    6.8600 ca        1 1VJ     -0.070000
      7 C12         7.3330    0.1460    5.6110 ca        1 1VJ     -0.193600
      8 C13         6.3140   -0.4670    4.8640 ca        1 1VJ     -0.051000
      9 C14         8.6660    0.1800    5.0210 c         1 1VJ      0.551200
     10 C16         9.8580   -0.0040    5.9000 cc        1 1VJ      0.197500
     11 O3          2.9250   -0.1640    1.5380 os        1 1VJ     -0.431900
     12 C4          3.8470   -0.4490    2.4960 c         1 1VJ      0.610100
     13 O5          5.0330   -0.5610    2.1750 o         1 1VJ     -0.556000
     14 O7          4.0560   -1.2950    4.7590 os        1 1VJ     -0.314900
     15 C9          4.7340    0.0220    6.6570 ca        1 1VJ     -0.073000
     16 O15         8.9000    0.3080    3.8080 o         1 1VJ     -0.553100
     17 N17         9.9470   -0.2440    7.2170 nd        1 1VJ     -0.226300
     18 O18        11.2430   -0.3780    7.5210 os        1 1VJ      0.199600
     19 N19        12.0560   -0.2530    6.4980 nd        1 1VJ     -0.237300
     20 C20        11.2710   -0.0130    5.4110 cc        1 1VJ      0.253900
     21 N21        11.6960    0.1870    4.0480 n4        1 1VJ     -0.797300
     22 H22         2.5240    0.3680   -1.7280 hc        1 1VJ      0.055367
     23 H24         1.6990    1.1970   -0.3350 hc        1 1VJ      0.055367
     24 H23         1.4630   -0.5790   -0.5940 hc        1 1VJ      0.055367
     25 H25         3.9190   -0.9860   -0.1060 h1        1 1VJ      0.053200
     26 H26         4.1560    0.8080    0.1590 h1        1 1VJ      0.053200
     27 H28         2.2920   -1.2130    3.7920 h1        1 1VJ      0.101200
     28 H27         2.9650    0.4450    4.2490 h1        1 1VJ      0.101200
     29 H30         5.5300    1.1090    8.3520 ha        1 1VJ      0.161000
     30 H31         7.8220    1.2410    7.4380 ha        1 1VJ      0.144000
     31 H32         6.5100   -0.8850    3.8590 ha        1 1VJ      0.196000
     32 H29         3.7140   -0.0490    7.0680 ha        1 1VJ      0.167000
     33 H34        12.2360    1.0610    3.9720 hn        1 1VJ      0.494800
     34 H33        10.8430    0.2510    3.4450 hn        1 1VJ      0.494800
     35 H213       12.2800   -0.6020    3.7360 hn        1 1VJ      0.494800
@<TRIPOS>BOND
     1    1    2 1   
     2    1   22 1   
     3    1   23 1   
     4    1   24 1   
     5    2   11 1   
     6    2   25 1   
     7    2   26 1   
     8    3   12 1   
     9    3   14 1   
    10    3   27 1   
    11    3   28 1   
    12    4    8 ar  
    13    4   14 1   
    14    4   15 ar  
    15    5    6 ar  
    16    5   15 ar  
    17    5   29 1   
    18    6    7 ar  
    19    6   30 1   
    20    7    8 ar  
    21    7    9 1   
    22    8   31 1   
    23    9   10 1   
    24    9   16 2   
    25   10   17 2   
    26   10   20 1   
    27   11   12 1   
    28   12   13 2   
    29   15   32 1   
    30   17   18 1   
    31   18   19 1   
    32   19   20 2   
    33   20   21 1   
    34   21   33 1   
    35   21   34 1   
    36   21   35 1   
@<TRIPOS>SUBSTRUCTURE
     1 1VJ         1 TEMP              0 ****  ****    0 ROOT
