@<TRIPOS>MOLECULE
1VK
   21    22     1     0     0
SMALL
bcc


@<TRIPOS>ATOM
      1 C2         -0.0210    0.2320   -0.1040 cc        1 1VK      0.507900
      2 C6          1.4840    0.2040   -0.0210 cc        1 1VK      0.105500
      3 C7          2.3850   -0.2920   -1.0740 c         1 1VK      0.528200
      4 C10         4.6460    0.3060   -1.8750 ca        1 1VK     -0.076000
      5 C11         6.0220    0.4120   -1.6930 ca        1 1VK     -0.139000
      6 C12         6.6020    0.0050   -0.4910 ca        1 1VK     -0.100000
      7 C13         5.8030   -0.5110    0.5290 ca        1 1VK     -0.139000
      8 C14         4.4230   -0.6110    0.3580 ca        1 1VK     -0.076000
      9 N1         -0.7590   -0.1230   -1.1940 nv        1 1VK     -0.931500
     10 N3         -0.4410    0.7640    1.0840 nd        1 1VK     -0.444300
     11 O4          0.6660    1.0390    1.7900 os        1 1VK      0.133600
     12 N5          1.7900    0.7290    1.1780 nd        1 1VK     -0.275300
     13 O8          1.9110   -0.7480   -2.1230 o         1 1VK     -0.534100
     14 C9          3.8380   -0.1940   -0.8430 ca        1 1VK     -0.165600
     15 H18         6.6520    0.8140   -2.5010 ha        1 1VK      0.140000
     16 H19         7.6900    0.0880   -0.3490 ha        1 1VK      0.137000
     17 H20         6.2600   -0.8400    1.4740 ha        1 1VK      0.140000
     18 H21         3.8050   -1.0280    1.1680 ha        1 1VK      0.146000
     19 H15        -1.7360   -0.2560   -1.0840 hn        1 1VK      0.448800
     20 H16        -0.2870   -0.6390   -1.9030 hn        1 1VK      0.448800
     21 H17         4.1830    0.6090   -2.8270 ha        1 1VK      0.146000
@<TRIPOS>BOND
     1    1    2 1   
     2    1    9 1   
     3    1   10 2   
     4    2    3 1   
     5    2   12 2   
     6    3   13 2   
     7    3   14 1   
     8    4    5 ar  
     9    4   14 ar  
    10    4   21 1   
    11    5    6 ar  
    12    5   15 1   
    13    6    7 ar  
    14    6   16 1   
    15    7    8 ar  
    16    7   17 1   
    17    8   14 ar  
    18    8   18 1   
    19    9   19 1   
    20    9   20 1   
    21   10   11 1   
    22   11   12 1   
@<TRIPOS>SUBSTRUCTURE
     1 1VK         1 TEMP              0 ****  ****    0 ROOT
