@<TRIPOS>MOLECULE
1VK
   22    23     1     0     0
SMALL
bcc


@<TRIPOS>ATOM
      1 C2         -0.0170    0.2000   -0.0070 cc        1 1VK      0.252900
      2 C6          1.4760    0.2730    0.0710 cc        1 1VK      0.199500
      3 C7          2.3920   -0.0920   -1.0470 c         1 1VK      0.550200
      4 C10         4.6550    0.2170   -1.9310 ca        1 1VK     -0.055500
      5 C11         6.0380    0.2340   -1.7830 ca        1 1VK     -0.135500
      6 C12         6.6140   -0.0810   -0.5510 ca        1 1VK     -0.055000
      7 C13         5.8020   -0.4190    0.5340 ca        1 1VK     -0.135500
      8 C14         4.4160   -0.4290    0.4000 ca        1 1VK     -0.055500
      9 N1         -0.7810   -0.2650   -1.1380 n4        1 1VK     -0.796300
     10 N3         -0.4910    0.6620    1.1830 nd        1 1VK     -0.236300
     11 O4          0.5600    0.9840    1.9000 os        1 1VK      0.200600
     12 N5          1.7320    0.7760    1.2880 nd        1 1VK     -0.227300
     13 O8          1.8440   -0.3430   -2.1350 o         1 1VK     -0.570100
     14 C9          3.8310   -0.0970   -0.8320 ca        1 1VK     -0.203600
     15 H19         7.7100   -0.0680   -0.4350 ha        1 1VK      0.161000
     16 H20         6.2590   -0.6820    1.5020 ha        1 1VK      0.161000
     17 H21         3.8030   -0.7270    1.2630 ha        1 1VK      0.149000
     18 H15        -0.1330   -0.3580   -1.9530 hn        1 1VK      0.494800
     19 H16        -1.5290    0.4050   -1.3670 hn        1 1VK      0.494800
     20 H17         4.1950    0.4510   -2.9050 ha        1 1VK      0.149000
     21 H13        -1.1980   -1.1820   -0.9240 hn        1 1VK      0.494800
     22 H18         6.6780    0.4910   -2.6430 ha        1 1VK      0.161000
@<TRIPOS>BOND
     1    1    2 1   
     2    1    9 1   
     3    1   10 2   
     4    2    3 1   
     5    2   12 2   
     6    3   13 2   
     7    3   14 1   
     8    4    5 ar  
     9    4   14 ar  
    10    4   20 1   
    11    5    6 ar  
    12    5   22 1   
    13    6    7 ar  
    14    6   15 1   
    15    7    8 ar  
    16    7   16 1   
    17    8   14 ar  
    18    8   17 1   
    19    9   18 1   
    20    9   19 1   
    21    9   21 1   
    22   10   11 1   
    23   11   12 1   
@<TRIPOS>SUBSTRUCTURE
     1 1VK         1 TEMP              0 ****  ****    0 ROOT
