@<TRIPOS>MOLECULE
1VL
   51    48     1     0     0
SMALL
bcc


@<TRIPOS>ATOM
      1 O10         1.6190    0.6770    1.2470 o         1 1VL     -0.302000
      2 C8          2.3680    0.3100    0.3390 c2        1 1VL      0.266000
      3 C7          3.8470   -0.1550    0.4740 c3        1 1VL      0.039000
      4 O11         3.9240   -1.4550    0.9900 oh        1 1VL     -0.279000
      5 N9          1.9770    0.2690   -1.0180 n         1 1VL     -0.304000
      6 C5          3.0580   -0.1010   -1.8500 c2        1 1VL     -0.022000
      7 C4          2.9940   -0.6480   -3.0890 c2        1 1VL     -0.207000
      8 C3          4.1490   -1.3700   -3.7790 c3        1 1VL      0.012000
      9 C2          5.1690   -1.3780   -2.7520 c1        1 1VL     -0.142000
     10 C1          5.2280   -0.9080   -1.6280 c1        1 1VL     -0.197000
     11 C6          4.3670    0.0240   -0.9590 c3        1 1VL      0.025000
     12 C12         0.7000    0.7360   -1.4840 c3        1 1VL      0.083000
     13 N13         0.5430    2.1980   -1.5540 n3        1 1VL     -0.228000
     14 C14         0.3880    2.7860   -2.7040 c1        1 1VL     -0.068000
     15 C15         0.2020    6.0370   -4.5090 c1        1 1VL     -0.204000
     16 N16        -0.4090    6.5220   -3.4750 n3        1 1VL     -0.102000
     17 C17        -0.2340    6.1780   -2.1060 c2        1 1VL     -0.403000
     18 C18         0.0620    5.0180   -1.5260 c1        1 1VL      0.036000
     19 H1          4.3780    0.4950    1.2210 h1        1 1VL      0.157000
     20 H2          3.7310   -2.0750    0.2720 ho        1 1VL      0.219000
     21 H3          2.0640   -0.6410   -3.6890 ha        1 1VL      0.186000
     22 H4          3.8140   -2.3990   -4.0760 hc        1 1VL      0.124000
     23 H5          4.4750   -0.8220   -4.7010 hc        1 1VL      0.124000
     24 H6          4.7770    1.0690   -1.0590 hc        1 1VL      0.136000
     25 H7          0.5100    0.3160   -2.5230 h2        1 1VL      0.144500
     26 H8         -0.0810    0.3640   -0.7490 h2        1 1VL      0.144500
     27 H10         2.3970    3.2680   -4.0870 ha        1 1VL      0.007750
     28 H11         2.5820    3.7250   -3.6220 ha        1 1VL      0.007750
     29 H12         0.9710    5.2530   -4.3540 ha        1 1VL      0.067000
     30 H13         0.2380    3.9310   -2.6490 ha        1 1VL      0.046000
     31 H16        -1.2240    1.2320   -3.8410 ha        1 1VL      0.007750
     32 H17        -0.3710    7.0350   -1.4050 h4        1 1VL      0.184000
     33 H18        -1.3780    0.5970   -4.0390 ha        1 1VL      0.007750
     34 H19         0.5570    2.6790   -0.6670 hn        1 1VL      0.218000
     35 C19         0.6280    0.6260   -5.0460 c1        1 1VL     -0.065000
     36 C20         0.0870    0.6520   -6.3510 c2        1 1VL     -0.146000
     37 C21         0.4320    4.8080   -7.4350 c1        1 1VL     -0.131000
     38 C22         0.7580    3.9480   -8.2010 c1        1 1VL     -0.264000
     39 C23         1.1950    2.9300   -9.1250 c3        1 1VL      0.194000
     40 C24         1.3190    1.5820   -8.4600 c2        1 1VL     -0.108000
     41 C25         0.6740    1.1680   -7.4070 c1        1 1VL     -0.115000
     42 O27         2.3000    0.7010   -9.0450 os        1 1VL     -0.019000
     43 O28         0.3650    2.8270  -10.2760 oh        1 1VL     -0.321000
     44 C26         2.4790    0.5820  -10.2940 c1        1 1VL     -0.030000
     45 H9          1.0010    1.5510   -4.5800 ha        1 1VL      0.115000
     46 H14        -1.0960    7.2360   -3.6200 hn        1 1VL      0.242000
     47 H15         0.1510    5.5650   -6.7300 ha        1 1VL      0.264000
     48 H20         2.2080    3.2130   -9.5550 h1        1 1VL      0.138000
     49 H21        -0.8720    0.1040   -6.4780 ha        1 1VL      0.173000
     50 H22         1.8950    1.1540  -11.0430 ha        1 1VL      0.071000
     51 H23        -0.5530    2.7870   -9.9820 ho        1 1VL      0.215000
@<TRIPOS>BOND
     1    1    2 1   
     2    2    3 1   
     3    2    5 1   
     4    3    4 1   
     5    3   11 1   
     6    3   19 1   
     7    4   20 1   
     8    5    6 1   
     9    5   12 1   
    10    6    7 1   
    11    6   11 1   
    12    7    8 1   
    13    7   21 1   
    14    8    9 1   
    15    8   22 1   
    16    8   23 1   
    17    9   10 1   
    18   10   11 1   
    19   11   24 1   
    20   12   13 1   
    21   12   25 1   
    22   12   26 1   
    23   13   14 1   
    24   13   34 1   
    25   14   30 1   
    26   15   16 1   
    27   15   29 1   
    28   16   17 1   
    29   16   46 1   
    30   17   18 1   
    31   17   32 1   
    32   27   28 1   
    33   31   33 1   
    34   35   36 1   
    35   35   45 1   
    36   36   41 1   
    37   36   49 1   
    38   37   38 1   
    39   37   47 1   
    40   38   39 1   
    41   39   40 1   
    42   39   43 1   
    43   39   48 1   
    44   40   41 1   
    45   40   42 1   
    46   42   44 1   
    47   43   51 1   
    48   44   50 1   
@<TRIPOS>SUBSTRUCTURE
     1 1VL         1 TEMP              0 ****  ****    0 ROOT
