@<TRIPOS>MOLECULE
1VL
   51    50     1     0     0
SMALL
bcc


@<TRIPOS>ATOM
      1 O10         0.2700    0.1430    0.6920 o         1 1VL     -0.267000
      2 C8          1.4670    0.3060    0.4650 c2        1 1VL      0.288000
      3 C7          2.6160   -0.1970    1.3870 c3        1 1VL      0.055000
      4 O11         2.7300   -1.5950    1.2740 oh        1 1VL     -0.281000
      5 N9          2.0280    0.9680   -0.6790 n         1 1VL     -0.243000
      6 C5          3.4340    0.8490   -0.6150 c2        1 1VL      0.027000
      7 C4          4.3540    0.8580   -1.6210 c2        1 1VL     -0.236000
      8 C3          5.6880    0.4040   -1.3500 c2        1 1VL      0.015000
      9 C2          6.0480   -0.1160   -0.1380 c2        1 1VL     -0.265000
     10 C1          5.1670   -0.1570    0.9720 c1        1 1VL     -0.037000
     11 C6          3.8650    0.4830    0.7980 c3        1 1VL     -0.144000
     12 C12         1.1710    1.5440   -1.5930 c1        1 1VL      0.027000
     13 N13         1.4660    2.4240   -2.5510 n7        1 1VL     -0.214000
     14 C14         2.6690    3.0560   -2.9050 c2        1 1VL     -0.231000
     15 C15         3.0310    3.4190   -4.1650 c2        1 1VL     -0.041000
     16 N16         2.3740    3.1070   -5.3440 n7        1 1VL     -0.302000
     17 C17        -0.5700    1.6720   -4.7490 c1        1 1VL      0.088000
     18 C18        -1.2050    0.5510   -4.5930 c2        1 1VL     -0.509000
     19 H1          2.4210    0.1170    2.4450 h1        1 1VL      0.120000
     20 H2          1.9720   -1.9720    1.7420 ho        1 1VL      0.217000
     21 H3          4.1020    1.1300   -2.6580 ha        1 1VL      0.156000
     22 H4          6.4050    0.4480   -2.1880 ha        1 1VL      0.132000
     23 H5          7.0570   -0.5350    0.0090 ha        1 1VL      0.151000
     24 H6          4.0220    1.4620    1.3650 hc        1 1VL      0.174000
     25 H7         -1.0250    0.1770   -1.2790 ha        1 1VL      0.001000
     26 H8         -1.5840   -0.1620   -1.4640 ha        1 1VL      0.001000
     27 H10        -2.0430   -0.2540    1.5150 ha        1 1VL      0.001000
     28 H11        -2.0850   -0.1880    0.8420 ha        1 1VL      0.001000
     29 H12         3.9800    3.9760   -4.3010 h4        1 1VL      0.146000
     30 H13         3.3480    3.2700   -2.0610 h4        1 1VL      0.153000
     31 H16        -1.5530   -0.1130   -5.4000 ha        1 1VL      0.213000
     32 H17         1.4690    2.6840   -5.2580 hn        1 1VL      0.219000
     33 H18         0.6690    2.6630   -3.1150 hn        1 1VL      0.253000
     34 H19        -1.4390    0.1550   -3.5820 ha        1 1VL      0.213000
     35 C19         2.4930    4.0500   -6.4350 c3        1 1VL     -0.006000
     36 C20         1.5520    3.7810   -7.5740 ca        1 1VL     -0.051000
     37 C21         2.0560    3.7040   -8.8770 ca        1 1VL     -0.139000
     38 C22         1.1960    3.5080   -9.9560 ca        1 1VL     -0.082000
     39 C23        -0.1770    3.3880   -9.7340 ca        1 1VL     -0.094000
     40 C24        -0.6890    3.4590   -8.4260 ca        1 1VL      0.059000
     41 C25         0.1800    3.6520   -7.3440 ca        1 1VL     -0.195000
     42 O27        -2.0510    3.3370   -8.2700 oh        1 1VL     -0.261000
     43 O28        -0.9850    3.1260  -10.8720 os        1 1VL     -0.013000
     44 C26        -2.1750    3.5440  -11.0370 c1        1 1VL     -0.016000
     45 H9          2.3040    5.1100   -6.0840 h1        1 1VL      0.086500
     46 H14         3.5590    4.0060   -6.8050 h1        1 1VL      0.086500
     47 H15         3.1380    3.7950   -9.0560 ha        1 1VL      0.144000
     48 H20         1.5850    3.4380  -10.9840 ha        1 1VL      0.158000
     49 H21        -0.2280    3.6890   -6.3200 ha        1 1VL      0.154000
     50 H22        -2.2480    3.3530   -7.3220 ho        1 1VL      0.231000
     51 H23        -2.7000    4.1610  -10.2810 ha        1 1VL      0.057000
@<TRIPOS>BOND
     1    1    2 1   
     2    2    3 1   
     3    2    5 1   
     4    3    4 1   
     5    3   11 1   
     6    3   19 1   
     7    4   20 1   
     8    5    6 1   
     9    5   12 1   
    10    6    7 1   
    11    6   11 1   
    12    7    8 1   
    13    7   21 1   
    14    8    9 1   
    15    8   22 1   
    16    9   10 1   
    17    9   23 1   
    18   10   11 1   
    19   11   24 1   
    20   12   13 1   
    21   13   14 1   
    22   13   33 1   
    23   14   15 1   
    24   14   30 1   
    25   15   16 1   
    26   15   29 1   
    27   16   32 1   
    28   16   35 1   
    29   17   18 1   
    30   18   31 1   
    31   18   34 1   
    32   25   26 1   
    33   27   28 1   
    34   35   36 1   
    35   35   45 1   
    36   35   46 1   
    37   36   37 1   
    38   36   41 1   
    39   37   38 1   
    40   37   47 1   
    41   38   39 1   
    42   38   48 1   
    43   39   40 1   
    44   39   43 1   
    45   40   41 1   
    46   40   42 1   
    47   41   49 1   
    48   42   50 1   
    49   43   44 1   
    50   44   51 1   
@<TRIPOS>SUBSTRUCTURE
     1 1VL         1 TEMP              0 ****  ****    0 ROOT
