@<TRIPOS>MOLECULE
1VL
   51    49     1     0     0
SMALL
bcc


@<TRIPOS>ATOM
      1 O10         1.7120   -2.9340   -0.5300 o         1 1VL     -0.252000
      2 C8          2.1620   -1.7990   -0.6480 c2        1 1VL      0.289000
      3 C7          2.8260   -0.9830    0.4990 c3        1 1VL      0.058000
      4 O11         4.1080   -1.5000    0.7590 oh        1 1VL     -0.280000
      5 N9          2.1630   -1.0120   -1.8570 n         1 1VL     -0.244000
      6 C5          2.8490    0.1980   -1.5930 c2        1 1VL      0.022000
      7 C4          3.5240    1.0170   -2.4470 c2        1 1VL     -0.220000
      8 C3          4.4050    2.0150   -1.9070 c2        1 1VL      0.013000
      9 C2          4.6590    2.1130   -0.5680 c2        1 1VL     -0.261000
     10 C1          3.9930    1.3170    0.3990 c1        1 1VL     -0.035000
     11 C6          2.9390    0.4320   -0.0930 c3        1 1VL     -0.146000
     12 C12         1.5630   -1.5320   -2.9730 c1        1 1VL      0.086000
     13 N13         1.2320   -0.9140   -4.1200 n3        1 1VL     -0.163000
     14 C14         1.3100    0.3760   -4.5190 c1        1 1VL     -0.120000
     15 C15         1.3280    1.5130   -4.9050 c1        1 1VL     -0.195000
     16 N16         0.4440    3.8030   -4.7270 n3        1 1VL     -0.332000
     17 C17        -1.1120    3.1500   -2.1000 c1        1 1VL      0.135000
     18 C18        -1.8990    2.9760   -1.0750 c2        1 1VL     -0.535000
     19 H1          2.1750   -1.0120    1.4110 h1        1 1VL      0.121000
     20 H2          3.9810   -2.3360    1.2280 ho        1 1VL      0.218000
     21 H3          3.4740    0.9110   -3.5410 ha        1 1VL      0.154000
     22 H4          4.9110    2.6730   -2.6350 ha        1 1VL      0.135000
     23 H5          5.4100    2.8280   -0.1940 ha        1 1VL      0.153000
     24 H6          2.0030    1.0130    0.2140 hc        1 1VL      0.176000
     25 H7          0.3330    2.6230    0.6590 ha        1 1VL      0.003333
     26 H8          0.6020    2.5110    1.2700 ha        1 1VL      0.003333
     27 H10         0.8540    4.3410   -1.5550 ha        1 1VL      0.003333
     28 H11         0.6040    4.1930   -0.9390 ha        1 1VL      0.003333
     29 H12         2.6720    4.6160   -2.9360 ha        1 1VL      0.003333
     30 H13         2.9810    4.0220   -2.8290 ha        1 1VL      0.003333
     31 H16        -2.8600    2.4380   -1.1470 ha        1 1VL      0.194500
     32 H17        -0.4890    3.6100   -5.0350 hn        1 1VL      0.162000
     33 H18         0.8270   -1.5380   -4.7960 hn        1 1VL      0.273000
     34 H19        -1.6930    3.3420   -0.0570 ha        1 1VL      0.194500
     35 C19         1.3990    2.9000   -5.3440 c3        1 1VL      0.129000
     36 C20         1.3140    2.9380   -6.8580 ca        1 1VL     -0.028000
     37 C21         2.4170    3.3750   -7.5990 ca        1 1VL     -0.136000
     38 C22         2.3590    3.4170   -8.9910 ca        1 1VL     -0.082000
     39 C23         1.1900    3.0260   -9.6460 ca        1 1VL     -0.094000
     40 C24         0.0770    2.5900   -8.9060 ca        1 1VL      0.059000
     41 C25         0.1420    2.5460   -7.5070 ca        1 1VL     -0.185000
     42 O27        -1.0500    2.2280   -9.6090 oh        1 1VL     -0.260000
     43 O28         1.2230    3.0320  -11.0660 os        1 1VL     -0.014000
     44 C26         0.2350    3.3100  -11.8180 c1        1 1VL     -0.017000
     45 H9          0.4780    3.7240   -3.7260 hn        1 1VL      0.162000
     46 H14         2.4270    3.2840   -5.0330 h1        1 1VL      0.119000
     47 H15         3.3370    3.6920   -7.0850 ha        1 1VL      0.143000
     48 H20         3.2240    3.7510   -9.5830 ha        1 1VL      0.157000
     49 H21        -0.7260    2.1970   -6.9300 ha        1 1VL      0.139000
     50 H22        -1.6860    1.8510   -8.9840 ho        1 1VL      0.228000
     51 H23        -0.7640    3.5720  -11.4160 ha        1 1VL      0.057000
@<TRIPOS>BOND
     1    1    2 1   
     2    2    3 1   
     3    2    5 1   
     4    3    4 1   
     5    3   11 1   
     6    3   19 1   
     7    4   20 1   
     8    5    6 1   
     9    5   12 1   
    10    6    7 1   
    11    6   11 1   
    12    7    8 1   
    13    7   21 1   
    14    8    9 1   
    15    8   22 1   
    16    9   10 1   
    17    9   23 1   
    18   10   11 1   
    19   11   24 1   
    20   12   13 1   
    21   13   14 1   
    22   13   33 1   
    23   14   15 1   
    24   15   35 1   
    25   16   32 1   
    26   16   35 1   
    27   16   45 1   
    28   17   18 1   
    29   18   31 1   
    30   18   34 1   
    31   25   26 1   
    32   27   28 1   
    33   29   30 1   
    34   35   36 1   
    35   35   46 1   
    36   36   37 1   
    37   36   41 1   
    38   37   38 1   
    39   37   47 1   
    40   38   39 1   
    41   38   48 1   
    42   39   40 1   
    43   39   43 1   
    44   40   41 1   
    45   40   42 1   
    46   41   49 1   
    47   42   50 1   
    48   43   44 1   
    49   44   51 1   
@<TRIPOS>SUBSTRUCTURE
     1 1VL         1 TEMP              0 ****  ****    0 ROOT
