@<TRIPOS>MOLECULE
1VM
   45    49     1     0     0
SMALL
bcc


@<TRIPOS>ATOM
      1 N11        -0.0790    0.1150    0.0180 nv        1 1VM     -0.948500
      2 C1          1.3010   -0.0020    0.0380 ca        1 1VM      0.736200
      3 N2          1.9190   -0.0550    1.2370 nb        1 1VM     -0.825000
      4 C6          2.0530   -0.0020   -1.2160 ca        1 1VM     -0.340600
      5 C5          3.4750   -0.0420   -1.0950 ca        1 1VM      0.497600
      6 N4          4.1170   -0.0770    0.1170 nb        1 1VM     -0.798000
      7 C3          3.3220   -0.0990    1.2300 ca        1 1VM      0.918900
      8 N12         3.9410   -0.2390    2.4740 nv        1 1VM     -0.929500
      9 C7          1.4650    0.0560   -2.4970 ca        1 1VM     -0.061000
     10 C8          2.2330    0.0550   -3.6350 ca        1 1VM     -0.168000
     11 C9          3.6580   -0.0010   -3.5380 ca        1 1VM      0.052800
     12 C10         4.2670   -0.0360   -2.2900 ca        1 1VM     -0.217300
     13 N13         4.4310   -0.0060   -4.7160 na        1 1VM     -0.118400
     14 C14         4.4210    0.9900   -5.7070 ca        1 1VM     -0.055200
     15 C18         3.7600    2.2180   -5.8110 ca        1 1VM     -0.132000
     16 C19         3.9940    2.9920   -6.9440 ca        1 1VM     -0.055300
     17 C22         3.3080    4.2980   -7.0860 c3        1 1VM     -0.053800
     18 C20         4.8780    2.5550   -7.9640 ca        1 1VM     -0.099300
     19 C23         5.0960    3.4140   -9.1530 c3        1 1VM     -0.048800
     20 C21         5.5420    1.3360   -7.8690 ca        1 1VM     -0.063000
     21 C15         5.3270    0.5330   -6.7420 ca        1 1VM      0.062400
     22 N16         5.8550   -0.7240   -6.3900 nc        1 1VM     -0.510100
     23 C17         5.3070   -1.0310   -5.1970 cd        1 1VM      0.387800
     24 C24         5.5390   -2.2720   -4.4680 cd        1 1VM      0.343100
     25 N25         5.7380   -3.4500   -5.0840 nc        1 1VM     -0.582000
     26 C26         5.9740   -4.4230   -4.1350 cc        1 1VM      0.323200
     27 C27         5.9520   -3.9800   -2.8150 cd        1 1VM     -0.273400
     28 S28         5.6310   -2.3520   -2.7520 ss        1 1VM     -0.007300
     29 H1         -0.5780   -0.0040    0.8690 hn        1 1VM      0.430800
     30 H2         -0.5450   -0.1540   -0.8140 hn        1 1VM      0.430800
     31 H3          4.9130   -0.0420    2.5170 hn        1 1VM      0.431800
     32 H4          3.4020   -0.0100    3.2760 hn        1 1VM      0.431800
     33 H5          0.3710    0.1080   -2.6100 ha        1 1VM      0.130000
     34 H6          1.7590    0.0980   -4.6280 ha        1 1VM      0.155000
     35 H7          5.3680   -0.0050   -2.1850 ha        1 1VM      0.169000
     36 H8          3.0770    2.5580   -5.0210 ha        1 1VM      0.141000
     37 H9          2.6820    4.3080   -8.0140 hc        1 1VM      0.045033
     38 H10         4.0600    5.1230   -7.1670 hc        1 1VM      0.045033
     39 H11         2.6450    4.5100   -6.2120 hc        1 1VM      0.045033
     40 H12         5.8150    2.9450   -9.8680 hc        1 1VM      0.043367
     41 H13         5.5060    4.4080   -8.8430 hc        1 1VM      0.043367
     42 H14         4.1290    3.5890   -9.6880 hc        1 1VM      0.043367
     43 H15         6.2280    1.0000   -8.6610 ha        1 1VM      0.151000
     44 H16         6.1570   -5.4490   -4.4710 h4        1 1VM      0.047100
     45 H17         6.1140   -4.6120   -1.9440 h4        1 1VM      0.183000
@<TRIPOS>BOND
     1    1    2 1   
     2    1   29 1   
     3    1   30 1   
     4    2    3 ar  
     5    2    4 ar  
     6    3    7 ar  
     7    4    5 ar  
     8    4    9 ar  
     9    5    6 ar  
    10    5   12 ar  
    11    6    7 ar  
    12    7    8 1   
    13    8   31 1   
    14    8   32 1   
    15    9   10 ar  
    16    9   33 1   
    17   10   11 ar  
    18   10   34 1   
    19   11   12 ar  
    20   11   13 1   
    21   12   35 1   
    22   13   14 1   
    23   13   23 1   
    24   14   15 ar  
    25   14   21 ar  
    26   15   16 ar  
    27   15   36 1   
    28   16   17 1   
    29   16   18 ar  
    30   17   37 1   
    31   17   38 1   
    32   17   39 1   
    33   18   19 1   
    34   18   20 ar  
    35   19   40 1   
    36   19   41 1   
    37   19   42 1   
    38   20   21 ar  
    39   20   43 1   
    40   21   22 1   
    41   22   23 2   
    42   23   24 1   
    43   24   25 2   
    44   24   28 1   
    45   25   26 1   
    46   26   27 2   
    47   26   44 1   
    48   27   28 1   
    49   27   45 1   
@<TRIPOS>SUBSTRUCTURE
     1 1VM         1 TEMP              0 ****  ****    0 ROOT
