@<TRIPOS>MOLECULE
1VM
   45    49     1     0     0
SMALL
bcc


@<TRIPOS>ATOM
      1 N11        -0.0640    0.1270    0.0340 nh        1 1VM     -0.948500
      2 C1          1.3150    0.0060    0.0490 ca        1 1VM      0.736200
      3 N2          1.9390   -0.0490    1.2450 nb        1 1VM     -0.825000
      4 C6          2.0620    0.0040   -1.2080 ca        1 1VM     -0.340600
      5 C5          3.4850   -0.0410   -1.0930 ca        1 1VM      0.497600
      6 N4          4.1310   -0.0780    0.1160 nb        1 1VM     -0.798000
      7 C3          3.3410   -0.0970    1.2320 ca        1 1VM      0.918900
      8 N12         3.9650   -0.2390    2.4740 nh        1 1VM     -0.929500
      9 C7          1.4700    0.0630   -2.4870 ca        1 1VM     -0.061000
     10 C8          2.2330    0.0600   -3.6280 ca        1 1VM     -0.168000
     11 C9          3.6590    0.0000   -3.5370 ca        1 1VM      0.052800
     12 C10         4.2730   -0.0360   -2.2920 ca        1 1VM     -0.217300
     13 N13         4.4270   -0.0070   -4.7180 na        1 1VM     -0.118400
     14 C14         4.4160    0.9890   -5.7100 ca        1 1VM     -0.055200
     15 C18         3.7580    2.2180   -5.8110 ca        1 1VM     -0.132000
     16 C19         3.9900    2.9920   -6.9440 ca        1 1VM     -0.055300
     17 C22         3.3070    4.3010   -7.0840 c3        1 1VM     -0.053800
     18 C20         4.8680    2.5520   -7.9680 ca        1 1VM     -0.099300
     19 C23         5.0840    3.4110   -9.1580 c3        1 1VM     -0.048800
     20 C21         5.5290    1.3320   -7.8760 ca        1 1VM     -0.063000
     21 C15         5.3150    0.5290   -6.7480 ca        1 1VM      0.062400
     22 N16         5.8420   -0.7300   -6.3980 nc        1 1VM     -0.510100
     23 C17         5.2970   -1.0350   -5.2030 cd        1 1VM      0.387800
     24 C24         5.5290   -2.2770   -4.4740 cd        1 1VM      0.343100
     25 N25         5.7220   -3.4550   -5.0910 nc        1 1VM     -0.582000
     26 C26         5.9590   -4.4280   -4.1430 cc        1 1VM      0.323200
     27 C27         5.9440   -3.9850   -2.8230 cd        1 1VM     -0.273400
     28 S28         5.6270   -2.3560   -2.7590 ss        1 1VM     -0.007300
     29 H1         -0.5340   -0.1410   -0.7960 hn        1 1VM      0.430800
     30 H2         -0.5600    0.0090    0.8870 hn        1 1VM      0.430800
     31 H3          3.4300   -0.0080    3.2780 hn        1 1VM      0.431800
     32 H4          4.9380   -0.0440    2.5130 hn        1 1VM      0.431800
     33 H5          0.3750    0.1180   -2.5960 ha        1 1VM      0.130000
     34 H6          1.7550    0.1050   -4.6190 ha        1 1VM      0.155000
     35 H7          5.3740   -0.0090   -2.1910 ha        1 1VM      0.169000
     36 H8          3.0790    2.5610   -5.0180 ha        1 1VM      0.141000
     37 H9          2.6770    4.3110   -8.0100 hc        1 1VM      0.045033
     38 H10         4.0610    5.1230   -7.1680 hc        1 1VM      0.045033
     39 H11         2.6480    4.5140   -6.2070 hc        1 1VM      0.045033
     40 H12         5.4980    4.4040   -8.8500 hc        1 1VM      0.043367
     41 H13         5.7980    2.9390   -9.8770 hc        1 1VM      0.043367
     42 H14         4.1150    3.5890   -9.6890 hc        1 1VM      0.043367
     43 H15         6.2100    0.9930   -8.6710 ha        1 1VM      0.151000
     44 H16         6.1380   -5.4560   -4.4800 h4        1 1VM      0.047100
     45 H17         6.1070   -4.6180   -1.9530 h4        1 1VM      0.183000
@<TRIPOS>BOND
     1    1    2 1   
     2    1   29 1   
     3    1   30 1   
     4    2    3 ar  
     5    2    4 ar  
     6    3    7 ar  
     7    4    5 ar  
     8    4    9 ar  
     9    5    6 ar  
    10    5   12 ar  
    11    6    7 ar  
    12    7    8 1   
    13    8   31 1   
    14    8   32 1   
    15    9   10 ar  
    16    9   33 1   
    17   10   11 ar  
    18   10   34 1   
    19   11   12 ar  
    20   11   13 1   
    21   12   35 1   
    22   13   14 1   
    23   13   23 1   
    24   14   15 ar  
    25   14   21 ar  
    26   15   16 ar  
    27   15   36 1   
    28   16   17 1   
    29   16   18 ar  
    30   17   37 1   
    31   17   38 1   
    32   17   39 1   
    33   18   19 1   
    34   18   20 ar  
    35   19   40 1   
    36   19   41 1   
    37   19   42 1   
    38   20   21 ar  
    39   20   43 1   
    40   21   22 1   
    41   22   23 2   
    42   23   24 1   
    43   24   25 2   
    44   24   28 1   
    45   25   26 1   
    46   26   27 2   
    47   26   44 1   
    48   27   28 1   
    49   27   45 1   
@<TRIPOS>SUBSTRUCTURE
     1 1VM         1 TEMP              0 ****  ****    0 ROOT
