@<TRIPOS>MOLECULE
1VM
   47    51     1     0     0
SMALL
bcc


@<TRIPOS>ATOM
      1 N11         0.1200    0.5750    0.2770 n4        1 1VM     -0.832300
      2 C1          1.5650    0.2570    0.2030 ca        1 1VM      0.567200
      3 N2          2.1810   -0.0180    1.3650 nb        1 1VM     -0.706000
      4 C6          2.2110    0.2540   -1.0720 ca        1 1VM     -0.254600
      5 C5          3.6200   -0.1060   -1.0630 ca        1 1VM      0.466600
      6 N4          4.2690   -0.3810    0.1230 nb        1 1VM     -0.589000
      7 C3          3.5360   -0.3200    1.2470 ca        1 1VM      0.713900
      8 N12         4.2390   -0.6160    2.5300 n4        1 1VM     -0.811300
      9 C7          1.6040    0.5670   -2.3080 ca        1 1VM     -0.124000
     10 C8          2.3110    0.5050   -3.4810 ca        1 1VM     -0.063000
     11 C9          3.6950    0.0990   -3.5050 ca        1 1VM      0.164800
     12 C10         4.3370   -0.1620   -2.2780 ca        1 1VM     -0.164300
     13 N13         4.3550    0.0040   -4.7100 na        1 1VM     -0.114400
     14 C14         4.3050    0.9640   -5.7600 ca        1 1VM     -0.084200
     15 C18         3.6150    2.1630   -5.9130 ca        1 1VM     -0.141000
     16 C19         3.8260    2.8970   -7.0860 ca        1 1VM     -0.029300
     17 C22         3.0990    4.1740   -7.2810 c3        1 1VM     -0.066800
     18 C20         4.7190    2.4440   -8.0840 ca        1 1VM     -0.061300
     19 C23         4.9130    3.2500   -9.3140 c3        1 1VM     -0.067800
     20 C21         5.4280    1.2500   -7.9300 ca        1 1VM     -0.044000
     21 C15         5.2310    0.5000   -6.7690 ca        1 1VM      0.085400
     22 N16         5.8020   -0.7290   -6.3640 nc        1 1VM     -0.503100
     23 C17         5.2850   -1.0140   -5.1630 cd        1 1VM      0.406800
     24 C24         5.5210   -2.2700   -4.4690 cd        1 1VM      0.253100
     25 N25         4.7900   -2.7240   -3.4220 nc        1 1VM     -0.672000
     26 C26         5.2370   -3.9740   -3.0840 cc        1 1VM      0.325200
     27 C27         6.2940   -4.4520   -3.8720 cd        1 1VM     -0.287400
     28 S28         6.7110   -3.3540   -5.0190 ss        1 1VM      0.208700
     29 H1         -0.3940   -0.0960   -0.3130 hn        1 1VM      0.489800
     30 H2         -0.0270    1.5290   -0.0810 hn        1 1VM      0.489800
     31 H3          5.2320   -0.8340    2.3450 hn        1 1VM      0.493133
     32 H4          4.1800    0.2050    3.1490 hn        1 1VM      0.493133
     33 H5          0.5420    0.8580   -2.3550 ha        1 1VM      0.144000
     34 H6          1.8080    0.7420   -4.4400 ha        1 1VM      0.199000
     35 H7          5.4120   -0.4270   -2.2590 ha        1 1VM      0.207000
     36 H8          2.9290    2.5400   -5.1430 ha        1 1VM      0.127000
     37 H9          2.4700    4.1210   -8.2070 hc        1 1VM      0.060033
     38 H10         2.4340    4.4080   -6.4150 hc        1 1VM      0.060033
     39 H11         3.8270    5.0160   -7.4070 hc        1 1VM      0.060033
     40 H12         5.6440    2.7670  -10.0080 hc        1 1VM      0.063700
     41 H13         5.2950    4.2700   -9.0530 hc        1 1VM      0.063700
     42 H14         3.9400    3.3710   -9.8540 hc        1 1VM      0.063700
     43 H15         6.1300    0.9030   -8.7060 ha        1 1VM      0.176000
     44 H16         4.7570   -4.5190   -2.2640 h4        1 1VM      0.047100
     45 H17         6.7610   -5.4300   -3.7370 h4        1 1VM      0.208000
     46 H113       -0.2360    0.5180    1.2440 hn        1 1VM      0.489800
     47 H123        3.7920   -1.4230    2.9860 hn        1 1VM      0.493133
@<TRIPOS>BOND
     1    1    2 1   
     2    1   29 1   
     3    1   30 1   
     4    1   46 1   
     5    2    3 ar  
     6    2    4 ar  
     7    3    7 ar  
     8    4    5 ar  
     9    4    9 ar  
    10    5    6 ar  
    11    5   12 ar  
    12    6    7 ar  
    13    7    8 1   
    14    8   31 1   
    15    8   32 1   
    16    8   47 1   
    17    9   10 ar  
    18    9   33 1   
    19   10   11 ar  
    20   10   34 1   
    21   11   12 ar  
    22   11   13 1   
    23   12   35 1   
    24   13   14 1   
    25   13   23 1   
    26   14   15 ar  
    27   14   21 ar  
    28   15   16 ar  
    29   15   36 1   
    30   16   17 1   
    31   16   18 ar  
    32   17   37 1   
    33   17   38 1   
    34   17   39 1   
    35   18   19 1   
    36   18   20 ar  
    37   19   40 1   
    38   19   41 1   
    39   19   42 1   
    40   20   21 ar  
    41   20   43 1   
    42   21   22 1   
    43   22   23 2   
    44   23   24 1   
    45   24   25 2   
    46   24   28 1   
    47   25   26 1   
    48   26   27 2   
    49   26   44 1   
    50   27   28 1   
    51   27   45 1   
@<TRIPOS>SUBSTRUCTURE
     1 1VM         1 TEMP              0 ****  ****    0 ROOT
