@<TRIPOS>MOLECULE
1VN
   45    49     1     0     0
SMALL
bcc


@<TRIPOS>ATOM
      1 CL1        -0.1000    0.4110   -0.2250 cl        1 1VN     -0.074400
      2 C8          1.5850    0.2380   -0.0890 ca        1 1VN     -0.007600
      3 C7          2.1650    0.2610    1.1610 ca        1 1VN     -0.069000
      4 C6          3.5580    0.1100    1.3150 ca        1 1VN     -0.328600
      5 C1          4.2450    0.1020    2.6070 ca        1 1VN      0.739200
      6 N11         3.5260    0.2760    3.7750 nh        1 1VN     -0.954500
      7 C9          2.3940    0.0750   -1.2620 ca        1 1VN      0.062800
      8 C10         3.7670   -0.0570   -1.1290 ca        1 1VN     -0.167300
      9 C5          4.3870   -0.0400    0.1640 ca        1 1VN      0.490600
     10 N4          5.7500   -0.1720    0.2400 nb        1 1VN     -0.792000
     11 C3          6.2990   -0.1310    1.4920 ca        1 1VN      0.917900
     12 N12         7.6910   -0.1400    1.5990 nh        1 1VN     -0.931500
     13 N2          5.5840   -0.0380    2.6970 nb        1 1VN     -0.828000
     14 N14         1.7970    0.0410   -2.5410 na        1 1VN     -0.089400
     15 C18         1.4340    1.1400   -3.3670 cc        1 1VN      0.395800
     16 C25         1.6850    2.5310   -3.0240 cc        1 1VN      0.336100
     17 N29         2.3610    2.9440   -1.9350 nd        1 1VN     -0.618000
     18 C28         2.4080    4.3200   -1.9340 cd        1 1VN      0.333200
     19 C27         1.7730    4.9330   -3.0150 cc        1 1VN     -0.289400
     20 S26         1.1180    3.7970   -4.0300 ss        1 1VN      0.054700
     21 N17         0.8370    0.7500   -4.5190 nd        1 1VN     -0.570100
     22 C16         0.7890   -0.6530   -4.4650 ca        1 1VN      0.072400
     23 C22         0.2850   -1.5920   -5.3760 ca        1 1VN     -0.071000
     24 C21         0.3710   -2.9430   -5.0640 ca        1 1VN     -0.096300
     25 C24        -0.1590   -3.9480   -6.0180 c3        1 1VN     -0.048800
     26 C20         0.9570   -3.3830   -3.8480 ca        1 1VN     -0.058300
     27 C23         1.0260   -4.8360   -3.5570 c3        1 1VN     -0.052800
     28 C19         1.4660   -2.4780   -2.9240 ca        1 1VN     -0.124000
     29 C15         1.3860   -1.1140   -3.2260 ca        1 1VN     -0.055200
     30 H1          1.5150    0.4100    2.0370 ha        1 1VN      0.140000
     31 H2          3.9890    0.1660    4.6460 hn        1 1VN      0.433300
     32 H3          2.5530    0.0960    3.7510 hn        1 1VN      0.433300
     33 H4          4.4130   -0.1680   -2.0170 ha        1 1VN      0.171000
     34 H5          8.0780   -0.3540    2.4880 hn        1 1VN      0.431300
     35 H6          8.2020   -0.4360    0.8010 hn        1 1VN      0.431300
     36 H7          2.9260    4.8290   -1.1130 h4        1 1VN      0.047100
     37 H8          1.7160    6.0080   -3.1700 h4        1 1VN      0.184000
     38 H9         -0.1690   -1.2540   -6.3190 ha        1 1VN      0.148000
     39 H10        -0.5920   -3.4600   -6.9250 hc        1 1VN      0.043033
     40 H11         0.6580   -4.6390   -6.3460 hc        1 1VN      0.043033
     41 H12        -0.9580   -4.5620   -5.5320 hc        1 1VN      0.043033
     42 H13        -0.0040   -5.2750   -3.5350 hc        1 1VN      0.044700
     43 H14         1.5150   -5.0330   -2.5720 hc        1 1VN      0.044700
     44 H15         1.6110   -5.3620   -4.3540 hc        1 1VN      0.044700
     45 H16         1.9190   -2.8210   -1.9830 ha        1 1VN      0.143000
@<TRIPOS>BOND
     1    1    2 1   
     2    2    3 ar  
     3    2    7 ar  
     4    3    4 ar  
     5    3   30 1   
     6    4    5 ar  
     7    4    9 ar  
     8    5    6 1   
     9    5   13 ar  
    10    6   31 1   
    11    6   32 1   
    12    7    8 ar  
    13    7   14 1   
    14    8    9 ar  
    15    8   33 1   
    16    9   10 ar  
    17   10   11 ar  
    18   11   12 1   
    19   11   13 ar  
    20   12   34 1   
    21   12   35 1   
    22   14   15 1   
    23   14   29 1   
    24   15   16 1   
    25   15   21 2   
    26   16   17 2   
    27   16   20 1   
    28   17   18 1   
    29   18   19 2   
    30   18   36 1   
    31   19   20 1   
    32   19   37 1   
    33   21   22 1   
    34   22   23 ar  
    35   22   29 ar  
    36   23   24 ar  
    37   23   38 1   
    38   24   25 1   
    39   24   26 ar  
    40   25   39 1   
    41   25   40 1   
    42   25   41 1   
    43   26   27 1   
    44   26   28 ar  
    45   27   42 1   
    46   27   43 1   
    47   27   44 1   
    48   28   29 ar  
    49   28   45 1   
@<TRIPOS>SUBSTRUCTURE
     1 1VN         1 TEMP              0 ****  ****    0 ROOT
