@<TRIPOS>MOLECULE
1VN
   47    51     1     0     0
SMALL
bcc


@<TRIPOS>ATOM
      1 CL1         0.0510   -0.8750   -0.1020 cl        1 1VN      0.061600
      2 C8          1.6790   -0.4820   -0.0370 ca        1 1VN      0.093400
      3 C7          2.3160   -0.4830    1.1950 ca        1 1VN     -0.165000
      4 C6          3.6670   -0.1200    1.3170 ca        1 1VN     -0.211600
      5 C1          4.4070   -0.0600    2.5450 ca        1 1VN      0.545200
      6 N11         3.7200   -0.3870    3.8140 n4        1 1VN     -0.830300
      7 C9          2.3970   -0.1110   -1.2390 ca        1 1VN      0.143800
      8 C10         3.7510    0.2270   -1.1330 ca        1 1VN     -0.126300
      9 C5          4.4110    0.2430    0.1250 ca        1 1VN      0.448600
     10 N4          5.7370    0.5890    0.1910 nb        1 1VN     -0.574000
     11 C3          6.3080    0.5880    1.4130 ca        1 1VN      0.694900
     12 N12         7.7490    0.9650    1.4870 n4        1 1VN     -0.808300
     13 N2          5.7030    0.2810    2.6270 nb        1 1VN     -0.680000
     14 N14         1.7400   -0.0750   -2.4600 na        1 1VN     -0.135400
     15 C18         1.7160    1.0270   -3.3980 cc        1 1VN      0.396800
     16 C25         2.0710    2.3900   -3.0400 cc        1 1VN      0.262100
     17 N29         2.6370    2.7560   -1.8630 nd        1 1VN     -0.688000
     18 C28         2.7980    4.1170   -1.8590 cd        1 1VN      0.325200
     19 C27         2.3570    4.7640   -3.0220 cc        1 1VN     -0.289400
     20 S26         1.7490    3.6810   -4.0970 ss        1 1VN      0.212700
     21 N17         1.2210    0.6690   -4.5900 nd        1 1VN     -0.507100
     22 C16         0.9220   -0.7090   -4.5020 ca        1 1VN      0.081400
     23 C22         0.3960   -1.5850   -5.4550 ca        1 1VN     -0.047000
     24 C21         0.2020   -2.9220   -5.1030 ca        1 1VN     -0.066300
     25 C24        -0.3580   -3.8630   -6.1020 c3        1 1VN     -0.065800
     26 C20         0.5310   -3.3920   -3.8090 ca        1 1VN     -0.029300
     27 C23         0.3140   -4.8190   -3.4740 c3        1 1VN     -0.066800
     28 C19         1.0560   -2.5340   -2.8370 ca        1 1VN     -0.142000
     29 C15         1.2420   -1.1980   -3.1780 ca        1 1VN     -0.071200
     30 H1          1.7240   -0.7620    2.0820 ha        1 1VN      0.154000
     31 H2          2.9220    0.2550    3.9300 hn        1 1VN      0.490467
     32 H3          3.3750   -1.3570    3.7630 hn        1 1VN      0.490467
     33 H4          4.3200    0.5150   -2.0410 ha        1 1VN      0.212000
     34 H5          8.2880    0.1810    1.8810 hn        1 1VN      0.493467
     35 H6          8.1040    1.1810    0.5400 hn        1 1VN      0.493467
     36 H7          3.2350    4.6090   -0.9840 h4        1 1VN      0.043100
     37 H8          2.4130    5.8430   -3.1780 h4        1 1VN      0.207000
     38 H9          0.1410   -1.2220   -6.4640 ha        1 1VN      0.174000
     39 H10        -1.3130   -4.3070   -5.7220 hc        1 1VN      0.061700
     40 H11        -0.5700   -3.3510   -7.0730 hc        1 1VN      0.061700
     41 H12         0.3620   -4.6990   -6.2930 hc        1 1VN      0.061700
     42 H13         0.6210   -5.0500   -2.4250 hc        1 1VN      0.059367
     43 H14         0.9030   -5.4720   -4.1680 hc        1 1VN      0.059367
     44 H15        -0.7690   -5.0820   -3.5920 hc        1 1VN      0.059367
     45 H16         1.3050   -2.9150   -1.8380 ha        1 1VN      0.128000
     46 H113        4.3490   -0.2940    4.6270 hn        1 1VN      0.490467
     47 H123        7.8570    1.7930    2.0880 hn        1 1VN      0.493467
@<TRIPOS>BOND
     1    1    2 1   
     2    2    3 ar  
     3    2    7 ar  
     4    3    4 ar  
     5    3   30 1   
     6    4    5 ar  
     7    4    9 ar  
     8    5    6 1   
     9    5   13 ar  
    10    6   31 1   
    11    6   32 1   
    12    6   46 1   
    13    7    8 ar  
    14    7   14 1   
    15    8    9 ar  
    16    8   33 1   
    17    9   10 ar  
    18   10   11 ar  
    19   11   12 1   
    20   11   13 ar  
    21   12   34 1   
    22   12   35 1   
    23   12   47 1   
    24   14   15 1   
    25   14   29 1   
    26   15   16 1   
    27   15   21 2   
    28   16   17 2   
    29   16   20 1   
    30   17   18 1   
    31   18   19 2   
    32   18   36 1   
    33   19   20 1   
    34   19   37 1   
    35   21   22 1   
    36   22   23 ar  
    37   22   29 ar  
    38   23   24 ar  
    39   23   38 1   
    40   24   25 1   
    41   24   26 ar  
    42   25   39 1   
    43   25   40 1   
    44   25   41 1   
    45   26   27 1   
    46   26   28 ar  
    47   27   42 1   
    48   27   43 1   
    49   27   44 1   
    50   28   29 ar  
    51   28   45 1   
@<TRIPOS>SUBSTRUCTURE
     1 1VN         1 TEMP              0 ****  ****    0 ROOT
