@<TRIPOS>MOLECULE
1VN
   45    49     1     0     0
SMALL
bcc


@<TRIPOS>ATOM
      1 Cl1        -0.0740    0.3690   -0.1500 cl        1 1VN     -0.074400
      2 C8          1.6150    0.2130   -0.0590 ca        1 1VN     -0.007600
      3 C7          2.2270    0.2310    1.1750 ca        1 1VN     -0.069000
      4 C6          3.6250    0.0940    1.2930 ca        1 1VN     -0.328600
      5 C1          4.3450    0.0820    2.5670 ca        1 1VN      0.739200
      6 N11         3.6540    0.2370    3.7540 nv        1 1VN     -0.954500
      7 C9          2.3970    0.0700   -1.2540 ca        1 1VN      0.062800
      8 C10         3.7730   -0.0480   -1.1570 ca        1 1VN     -0.167300
      9 C5          4.4260   -0.0360    0.1190 ca        1 1VN      0.490600
     10 N4          5.7920   -0.1530    0.1600 nb        1 1VN     -0.792000
     11 C3          6.3720   -0.1180    1.3980 ca        1 1VN      0.917900
     12 N12         7.7660   -0.1130    1.4700 nv        1 1VN     -0.931500
     13 N2          5.6880   -0.0450    2.6220 nb        1 1VN     -0.828000
     14 N14         1.7670    0.0420   -2.5180 na        1 1VN     -0.089400
     15 C18         1.3690    1.1440   -3.3230 cc        1 1VN      0.395800
     16 C25         1.6120    2.5350   -2.9720 cc        1 1VN      0.336100
     17 N29         2.3080    2.9450   -1.8950 nd        1 1VN     -0.618000
     18 C28         2.3390    4.3220   -1.8810 cd        1 1VN      0.333200
     19 C27         1.6700    4.9370   -2.9390 cc        1 1VN     -0.289400
     20 S26         1.0040    3.8030   -3.9500 ss        1 1VN      0.054700
     21 N17         0.7480    0.7580   -4.4630 nd        1 1VN     -0.570100
     22 C16         0.7190   -0.6460   -4.4230 ca        1 1VN      0.072400
     23 C22         0.2040   -1.5820   -5.3300 ca        1 1VN     -0.071000
     24 C21         0.3150   -2.9360   -5.0350 ca        1 1VN     -0.096300
     25 C24        -0.2260   -3.9370   -5.9860 c3        1 1VN     -0.048800
     26 C20         0.9370   -3.3800   -3.8380 ca        1 1VN     -0.058300
     27 C23         1.0320   -4.8340   -3.5650 c3        1 1VN     -0.052800
     28 C19         1.4580   -2.4770   -2.9180 ca        1 1VN     -0.124000
     29 C15         1.3530   -1.1120   -3.2040 ca        1 1VN     -0.055200
     30 H1          1.5980    0.3650    2.0700 ha        1 1VN      0.140000
     31 H2          2.6830    0.0470    3.7530 hn        1 1VN      0.433300
     32 H3          4.1400    0.1240    4.6130 hn        1 1VN      0.433300
     33 H4          4.3970   -0.1440   -2.0620 ha        1 1VN      0.171000
     34 H5          8.1780   -0.3310    2.3460 hn        1 1VN      0.431300
     35 H6          8.2600   -0.3970    0.6560 hn        1 1VN      0.431300
     36 H7          2.8700    4.8290   -1.0680 h4        1 1VN      0.047100
     37 H8          1.5960    6.0130   -3.0820 h4        1 1VN      0.184000
     38 H9         -0.2780   -1.2410   -6.2580 ha        1 1VN      0.148000
     39 H10        -0.6860   -3.4450   -6.8770 hc        1 1VN      0.043033
     40 H11        -1.0070   -4.5640   -5.4860 hc        1 1VN      0.043033
     41 H12         0.5910   -4.6160   -6.3400 hc        1 1VN      0.043033
     42 H13         0.0090   -5.2870   -3.5250 hc        1 1VN      0.044700
     43 H14         1.5460   -5.0350   -2.5930 hc        1 1VN      0.044700
     44 H15         1.6050   -5.3440   -4.3800 hc        1 1VN      0.044700
     45 H16         1.9390   -2.8240   -1.9920 ha        1 1VN      0.143000
@<TRIPOS>BOND
     1    1    2 1   
     2    2    3 ar  
     3    2    7 ar  
     4    3    4 ar  
     5    3   30 1   
     6    4    5 ar  
     7    4    9 ar  
     8    5    6 1   
     9    5   13 ar  
    10    6   31 1   
    11    6   32 1   
    12    7    8 ar  
    13    7   14 1   
    14    8    9 ar  
    15    8   33 1   
    16    9   10 ar  
    17   10   11 ar  
    18   11   12 1   
    19   11   13 ar  
    20   12   34 1   
    21   12   35 1   
    22   14   15 1   
    23   14   29 1   
    24   15   16 1   
    25   15   21 2   
    26   16   17 2   
    27   16   20 1   
    28   17   18 1   
    29   18   19 2   
    30   18   36 1   
    31   19   20 1   
    32   19   37 1   
    33   21   22 1   
    34   22   23 ar  
    35   22   29 ar  
    36   23   24 ar  
    37   23   38 1   
    38   24   25 1   
    39   24   26 ar  
    40   25   39 1   
    41   25   40 1   
    42   25   41 1   
    43   26   27 1   
    44   26   28 ar  
    45   27   42 1   
    46   27   43 1   
    47   27   44 1   
    48   28   29 ar  
    49   28   45 1   
@<TRIPOS>SUBSTRUCTURE
     1 1VN         1 TEMP              0 ****  ****    0 ROOT
