@<TRIPOS>MOLECULE
1VO
   47    51     1     0     0
SMALL
bcc


@<TRIPOS>ATOM
      1 N12        -0.1430   -0.5820    0.1280 n4        1 1VO     -0.812300
      2 C3          1.3250   -0.3100    0.0960 ca        1 1VO      0.717900
      3 N2          1.9010   -0.0090    1.3270 nb        1 1VO     -0.713000
      4 N4          1.9310   -0.3880   -1.1000 nb        1 1VO     -0.597000
      5 C5          3.2870   -0.1270   -1.1320 ca        1 1VO      0.470600
      6 C10         3.9780   -0.1840   -2.3590 ca        1 1VO     -0.181300
      7 C9          5.3620    0.0830   -2.4230 ca        1 1VO      0.171800
      8 C8          6.0400    0.4660   -1.2060 ca        1 1VO     -0.068000
      9 C7          5.3800    0.5240   -0.0070 ca        1 1VO     -0.120000
     10 C6          4.0010    0.2290    0.0850 ca        1 1VO     -0.260600
     11 C1          3.2200    0.2480    1.2790 ca        1 1VO      0.568200
     12 N11         3.8800    0.5660    2.5670 n4        1 1VO     -0.832300
     13 N13         6.0660    0.0140   -3.6000 na        1 1VO     -0.114400
     14 C17         5.9350   -0.9420   -4.6910 cc        1 1VO      0.413800
     15 C22         5.1880   -2.1910   -4.5840 cc        1 1VO      0.264000
     16 N26         4.7980   -2.7410   -3.3630 nc        1 1VO     -0.660000
     17 C25         4.2530   -3.9350   -3.5930 cd        1 1VO      0.327300
     18 S24         4.1960   -4.4110   -5.2230 ss        1 1VO      0.083700
     19 C23         4.9110   -2.9960   -5.6970 cd        1 1VO     -0.201400
     20 N16         6.6940   -0.6170   -5.7400 nd        1 1VO     -0.489100
     21 C15         7.3750    0.5770   -5.3960 ca        1 1VO      0.083400
     22 C21         8.2820    1.3400   -6.1310 ca        1 1VO     -0.044000
     23 C20         8.8200    2.4900   -5.5450 ca        1 1VO     -0.059300
     24 C28         9.7900    3.3090   -6.3110 c3        1 1VO     -0.067800
     25 C19         8.4500    2.8840   -4.2390 ca        1 1VO     -0.033300
     26 C27         9.0330    4.1140   -3.6540 c3        1 1VO     -0.066800
     27 C18         7.5390    2.1320   -3.4860 ca        1 1VO     -0.138000
     28 C14         7.0150    0.9770   -4.0550 ca        1 1VO     -0.088200
     29 H1         -0.4810   -0.8030   -0.8230 hn        1 1VO      0.492467
     30 H2         -0.6360    0.2500    0.4810 hn        1 1VO      0.492467
     31 H3          3.4240   -0.4470   -3.2810 ha        1 1VO      0.205000
     32 H4          7.1260    0.6850   -1.2480 ha        1 1VO      0.198000
     33 H5          5.9570    0.7960    0.8920 ha        1 1VO      0.143000
     34 H6          4.6370   -0.1150    2.7250 hn        1 1VO      0.489133
     35 H7          4.2780    1.5140    2.5090 hn        1 1VO      0.489133
     36 H8          3.8930   -4.5590   -2.7690 h5        1 1VO      0.061100
     37 H9          5.1580   -2.7310   -6.7290 h4        1 1VO      0.221000
     38 H10         8.5650    1.0400   -7.1540 ha        1 1VO      0.176000
     39 H11        10.7630    3.3730   -5.7590 hc        1 1VO      0.063367
     40 H12         9.9860    2.8740   -7.3210 hc        1 1VO      0.063367
     41 H13         9.3980    4.3500   -6.4440 hc        1 1VO      0.063367
     42 H14         8.6470    4.3040   -2.6230 hc        1 1VO      0.059700
     43 H15         8.7860    5.0000   -4.2940 hc        1 1VO      0.059700
     44 H16        10.1480    4.0260   -3.6040 hc        1 1VO      0.059700
     45 H17         7.2520    2.4680   -2.4800 ha        1 1VO      0.126000
     46 H123       -0.3290   -1.3810    0.7510 hn        1 1VO      0.492467
     47 H113        3.2170    0.5260    3.3570 hn        1 1VO      0.489133
@<TRIPOS>BOND
     1    1    2 1   
     2    1   29 1   
     3    1   30 1   
     4    1   46 1   
     5    2    3 ar  
     6    2    4 ar  
     7    3   11 ar  
     8    4    5 ar  
     9    5    6 ar  
    10    5   10 ar  
    11    6    7 ar  
    12    6   31 1   
    13    7    8 ar  
    14    7   13 1   
    15    8    9 ar  
    16    8   32 1   
    17    9   10 ar  
    18    9   33 1   
    19   10   11 ar  
    20   11   12 1   
    21   12   34 1   
    22   12   35 1   
    23   12   47 1   
    24   13   14 1   
    25   13   28 1   
    26   14   15 1   
    27   14   20 2   
    28   15   16 1   
    29   15   19 2   
    30   16   17 2   
    31   17   18 1   
    32   17   36 1   
    33   18   19 1   
    34   19   37 1   
    35   20   21 1   
    36   21   22 ar  
    37   21   28 ar  
    38   22   23 ar  
    39   22   38 1   
    40   23   24 1   
    41   23   25 ar  
    42   24   39 1   
    43   24   40 1   
    44   24   41 1   
    45   25   26 1   
    46   25   27 ar  
    47   26   42 1   
    48   26   43 1   
    49   26   44 1   
    50   27   28 ar  
    51   27   45 1   
@<TRIPOS>SUBSTRUCTURE
     1 1VO         1 TEMP              0 ****  ****    0 ROOT
