@<TRIPOS>MOLECULE
1VO
   45    49     1     0     0
SMALL
bcc


@<TRIPOS>ATOM
      1 N12        -0.0950   -0.2470    0.0110 nh        1 1VO     -0.926500
      2 C3          1.3050   -0.1940    0.0210 ca        1 1VO      0.907900
      3 N2          1.9060    0.0120    1.2730 nb        1 1VO     -0.825000
      4 N4          1.9600   -0.2830   -1.1740 nb        1 1VO     -0.792000
      5 C5          3.3220   -0.1100   -1.1430 ca        1 1VO      0.495600
      6 C10         4.0480   -0.1620   -2.3770 ca        1 1VO     -0.192300
      7 C9          5.4260   -0.0040   -2.3900 ca        1 1VO      0.066800
      8 C8          6.1290    0.2280   -1.1670 ca        1 1VO     -0.164000
      9 C7          5.4440    0.2830    0.0210 ca        1 1VO     -0.067000
     10 C6          4.0420    0.1220    0.0680 ca        1 1VO     -0.337600
     11 C1          3.2470    0.1580    1.2930 ca        1 1VO      0.730200
     12 N11         3.8760    0.2820    2.5230 nh        1 1VO     -0.947500
     13 N13         6.1520   -0.0430   -3.5990 na        1 1VO     -0.091400
     14 C17         6.0920   -1.0130   -4.6410 cc        1 1VO      0.400800
     15 C22         5.3330   -2.2560   -4.5470 cc        1 1VO      0.306000
     16 N26         5.0620   -2.8730   -3.3210 nc        1 1VO     -0.602000
     17 C25         4.3950   -3.9960   -3.5440 cd        1 1VO      0.368300
     18 S24         4.0770   -4.3440   -5.1910 ss        1 1VO     -0.072300
     19 C23         4.8570   -2.9460   -5.6620 cd        1 1VO     -0.200400
     20 N16         6.8490   -0.6760   -5.7100 nd        1 1VO     -0.559100
     21 C15         7.4380    0.5600   -5.3860 ca        1 1VO      0.068400
     22 C21         8.3130    1.3790   -6.1100 ca        1 1VO     -0.070000
     23 C20         8.7490    2.5690   -5.5380 ca        1 1VO     -0.097300
     24 C28         9.6760    3.4460   -6.2940 c3        1 1VO     -0.048800
     25 C19         8.3220    2.9630   -4.2430 ca        1 1VO     -0.060300
     26 C27         8.8080    4.2420   -3.6740 c3        1 1VO     -0.052800
     27 C18         7.4540    2.1700   -3.4980 ca        1 1VO     -0.128000
     28 C14         7.0110    0.9690   -4.0620 ca        1 1VO     -0.062200
     29 H1         -0.5380   -0.4580    0.8740 hn        1 1VO      0.424800
     30 H2         -0.5140   -0.6320   -0.8030 hn        1 1VO      0.424800
     31 H3          3.4860   -0.3420   -3.3090 ha        1 1VO      0.163000
     32 H4          7.2230    0.3500   -1.1840 ha        1 1VO      0.149000
     33 H5          6.0200    0.4470    0.9450 ha        1 1VO      0.127000
     34 H6          3.3110    0.4330    3.3260 hn        1 1VO      0.426300
     35 H7          4.7720    0.7040    2.5280 hn        1 1VO      0.426300
     36 H8          4.0760   -4.6430   -2.7220 h5        1 1VO      0.060100
     37 H9          4.9860   -2.6220   -6.6950 h4        1 1VO      0.202000
     38 H10         8.6460    1.0770   -7.1140 ha        1 1VO      0.148000
     39 H11        10.6290    3.5860   -5.7230 hc        1 1VO      0.042367
     40 H12         9.2140    4.4540   -6.4520 hc        1 1VO      0.042367
     41 H13         9.9240    3.0110   -7.2930 hc        1 1VO      0.042367
     42 H14         9.9250    4.2340   -3.6030 hc        1 1VO      0.044033
     43 H15         8.5080    5.0970   -4.3310 hc        1 1VO      0.044033
     44 H16         8.3910    4.4200   -2.6520 hc        1 1VO      0.044033
     45 H17         7.1220    2.4760   -2.4960 ha        1 1VO      0.141000
@<TRIPOS>BOND
     1    1    2 1   
     2    1   29 1   
     3    1   30 1   
     4    2    3 ar  
     5    2    4 ar  
     6    3   11 ar  
     7    4    5 ar  
     8    5    6 ar  
     9    5   10 ar  
    10    6    7 ar  
    11    6   31 1   
    12    7    8 ar  
    13    7   13 1   
    14    8    9 ar  
    15    8   32 1   
    16    9   10 ar  
    17    9   33 1   
    18   10   11 ar  
    19   11   12 1   
    20   12   34 1   
    21   12   35 1   
    22   13   14 1   
    23   13   28 1   
    24   14   15 1   
    25   14   20 2   
    26   15   16 1   
    27   15   19 2   
    28   16   17 2   
    29   17   18 1   
    30   17   36 1   
    31   18   19 1   
    32   19   37 1   
    33   20   21 1   
    34   21   22 ar  
    35   21   28 ar  
    36   22   23 ar  
    37   22   38 1   
    38   23   24 1   
    39   23   25 ar  
    40   24   39 1   
    41   24   40 1   
    42   24   41 1   
    43   25   26 1   
    44   25   27 ar  
    45   26   42 1   
    46   26   43 1   
    47   26   44 1   
    48   27   28 ar  
    49   27   45 1   
@<TRIPOS>SUBSTRUCTURE
     1 1VO         1 TEMP              0 ****  ****    0 ROOT
