@<TRIPOS>MOLECULE
1VO
   45    49     1     0     0
SMALL
bcc


@<TRIPOS>ATOM
      1 N12        -0.0990   -0.2630   -0.0060 nv        1 1VO     -0.926500
      2 C3          1.3010   -0.2040    0.0090 ca        1 1VO      0.907900
      3 N2          1.8960    0.0090    1.2620 nb        1 1VO     -0.825000
      4 N4          1.9600   -0.2950   -1.1830 nb        1 1VO     -0.792000
      5 C5          3.3210   -0.1160   -1.1490 ca        1 1VO      0.495600
      6 C10         4.0510   -0.1690   -2.3800 ca        1 1VO     -0.192300
      7 C9          5.4290   -0.0050   -2.3890 ca        1 1VO      0.066800
      8 C8          6.1270    0.2340   -1.1630 ca        1 1VO     -0.164000
      9 C7          5.4370    0.2910    0.0220 ca        1 1VO     -0.067000
     10 C6          4.0360    0.1240    0.0640 ca        1 1VO     -0.337600
     11 C1          3.2360    0.1610    1.2860 ca        1 1VO      0.730200
     12 N11         3.8600    0.2920    2.5180 nv        1 1VO     -0.947500
     13 N13         6.1600   -0.0460   -3.5940 na        1 1VO     -0.091400
     14 C17         6.1070   -1.0190   -4.6340 cc        1 1VO      0.400800
     15 C22         5.3510   -2.2650   -4.5380 cc        1 1VO      0.306000
     16 N26         5.0790   -2.8790   -3.3120 nc        1 1VO     -0.602000
     17 C25         4.4160   -4.0050   -3.5330 cd        1 1VO      0.368300
     18 S24         4.1040   -4.3580   -5.1810 ss        1 1VO     -0.072300
     19 C23         4.8800   -2.9580   -5.6530 cd        1 1VO     -0.200400
     20 N16         6.8660   -0.6830   -5.7010 nd        1 1VO     -0.559100
     21 C15         7.4490    0.5560   -5.3790 ca        1 1VO      0.068400
     22 C21         8.3250    1.3750   -6.1020 ca        1 1VO     -0.069000
     23 C20         8.7550    2.5690   -5.5320 ca        1 1VO     -0.097300
     24 C28         9.6810    3.4460   -6.2880 c3        1 1VO     -0.048800
     25 C19         8.3220    2.9650   -4.2400 ca        1 1VO     -0.060300
     26 C27         8.8020    4.2480   -3.6730 c3        1 1VO     -0.052800
     27 C18         7.4540    2.1720   -3.4960 ca        1 1VO     -0.128000
     28 C14         7.0170    0.9680   -4.0580 ca        1 1VO     -0.062200
     29 H1         -0.5140   -0.6530   -0.8210 hn        1 1VO      0.424800
     30 H2         -0.5440   -0.4730    0.8560 hn        1 1VO      0.424800
     31 H3          3.4940   -0.3540   -3.3130 ha        1 1VO      0.163000
     32 H4          7.2210    0.3600   -1.1770 ha        1 1VO      0.149000
     33 H5          6.0090    0.4600    0.9470 ha        1 1VO      0.127000
     34 H6          4.7540    0.7180    2.5250 hn        1 1VO      0.426300
     35 H7          3.2910    0.4440    3.3190 hn        1 1VO      0.426300
     36 H8          4.0970   -4.6510   -2.7110 h5        1 1VO      0.060100
     37 H9          5.0110   -2.6360   -6.6860 h4        1 1VO      0.202000
     38 H10         8.6620    1.0720   -7.1040 ha        1 1VO      0.148000
     39 H11         9.9340    3.0100   -7.2850 hc        1 1VO      0.042367
     40 H12         9.2180    4.4520   -6.4500 hc        1 1VO      0.042367
     41 H13        10.6320    3.5910   -5.7150 hc        1 1VO      0.042367
     42 H14         8.5000    5.0990   -4.3350 hc        1 1VO      0.044033
     43 H15         8.3820    4.4270   -2.6540 hc        1 1VO      0.044033
     44 H16         9.9190    4.2450   -3.6000 hc        1 1VO      0.044033
     45 H17         7.1170    2.4800   -2.4960 ha        1 1VO      0.141000
@<TRIPOS>BOND
     1    1    2 1   
     2    1   29 1   
     3    1   30 1   
     4    2    3 ar  
     5    2    4 ar  
     6    3   11 ar  
     7    4    5 ar  
     8    5    6 ar  
     9    5   10 ar  
    10    6    7 ar  
    11    6   31 1   
    12    7    8 ar  
    13    7   13 1   
    14    8    9 ar  
    15    8   32 1   
    16    9   10 ar  
    17    9   33 1   
    18   10   11 ar  
    19   11   12 1   
    20   12   34 1   
    21   12   35 1   
    22   13   14 1   
    23   13   28 1   
    24   14   15 1   
    25   14   20 2   
    26   15   16 1   
    27   15   19 2   
    28   16   17 2   
    29   17   18 1   
    30   17   36 1   
    31   18   19 1   
    32   19   37 1   
    33   20   21 1   
    34   21   22 ar  
    35   21   28 ar  
    36   22   23 ar  
    37   22   38 1   
    38   23   24 1   
    39   23   25 ar  
    40   24   39 1   
    41   24   40 1   
    42   24   41 1   
    43   25   26 1   
    44   25   27 ar  
    45   26   42 1   
    46   26   43 1   
    47   26   44 1   
    48   27   28 ar  
    49   27   45 1   
@<TRIPOS>SUBSTRUCTURE
     1 1VO         1 TEMP              0 ****  ****    0 ROOT
