@<TRIPOS>MOLECULE
1VP
   50    46     1     0     0
SMALL
bcc


@<TRIPOS>ATOM
      1 C5          3.4600    0.4980    2.8560 c1        1 1VP      0.306000
      2 C4          4.7200    1.2330    2.4270 c3        1 1VP     -0.146000
      3 C3          4.8440    2.5470    3.2210 c2        1 1VP     -0.078000
      4 C16         5.6050    2.5830    4.3930 c2        1 1VP     -0.126000
      5 C17         5.8230    3.7840    5.0360 c1        1 1VP     -0.149000
      6 C           5.2840    4.9580    4.5180 c1        1 1VP     -0.136000
      7 C1          4.5290    4.9230    3.3560 c1        1 1VP     -0.136000
      8 C2          4.3090    3.7180    2.7080 c1        1 1VP     -0.111000
      9 O           2.8110    0.9030    3.8070 o         1 1VP     -0.407000
     10 N           3.0730   -0.7110    2.1870 n2        1 1VP     -0.366000
     11 C6          1.7530   -1.2620    2.4010 c3        1 1VP     -0.063000
     12 C7          1.2190   -1.8210    1.1000 c2        1 1VP      0.266000
     13 O1          1.9860   -2.2900    0.2760 o         1 1VP     -0.360000
     14 O2         -4.9530   -1.4650   -6.2920 o         1 1VP     -0.395000
     15 C13        -5.6410   -0.9200   -5.4600 c1        1 1VP      0.292000
     16 C14        -6.7020    0.0890   -5.8910 c2        1 1VP     -0.244000
     17 N2         -5.4450   -1.2080   -4.0650 n3        1 1VP     -0.360000
     18 C12        -4.3190   -2.0110   -3.6480 c3        1 1VP     -0.033000
     19 C11        -4.0340   -1.7630   -2.1910 c3        1 1VP     -0.209000
     20 C10        -2.7900   -2.5190   -1.7860 c3        1 1VP     -0.143000
     21 C9         -2.2290   -1.9210   -0.4300 c3        1 1VP     -0.138000
     22 C8         -0.6980   -1.9350   -0.4620 c3        1 1VP     -0.089000
     23 N1         -0.1990   -1.8540    0.8630 n         1 1VP     -0.307000
     24 C15        -0.1970   -0.7460   -1.2710 c2        1 1VP      0.324000
     25 O3          0.3750   -0.9340   -2.3780 o         1 1VP     -0.579000
     26 O4         -0.2450    0.4220   -0.7750 o         1 1VP     -0.579000
     27 H19         5.5030    0.6710    2.6030 hc        1 1VP      0.116500
     28 H20         4.6700    1.4320    1.4730 hc        1 1VP      0.116500
     29 H23         6.0500    1.7780    4.7070 ha        1 1VP      0.127000
     30 H24         6.3690    3.8110    5.8750 ha        1 1VP      0.116000
     31 H25         5.4380    5.8040    4.9720 ha        1 1VP      0.124500
     32 H22         4.1390    5.7570    2.9950 ha        1 1VP      0.124500
     33 H21         3.7710    3.6940    1.8780 ha        1 1VP      0.203000
     34 H18         3.6910   -1.1860    1.7230 hn        1 1VP      0.278000
     35 H16         1.8020   -1.9690    3.0590 h1        1 1VP      0.108000
     36 H17         1.1530   -0.5550    2.7230 h1        1 1VP      0.108000
     37 H12        -7.5460   -0.1070   -5.4340 ha        1 1VP      0.098000
     38 H13        -6.4080    0.9870   -5.6600 ha        1 1VP      0.098000
     39 H14        -6.8340    0.0280   -6.8620 ha        1 1VP      0.098000
     40 H11        -6.0330   -0.8630   -3.4290 hn        1 1VP      0.225000
     41 H9         -3.5260   -1.7670   -4.1830 h1        1 1VP      0.090500
     42 H10        -4.5230   -2.9480   -3.7810 h1        1 1VP      0.090500
     43 H7         -4.7830   -2.0660   -1.6590 hc        1 1VP      0.115500
     44 H8         -3.8960   -0.8120   -2.0460 hc        1 1VP      0.115500
     45 H5         -3.0080   -3.4630   -1.6610 hc        1 1VP      0.067500
     46 H6         -2.1020   -2.4280   -2.4990 hc        1 1VP      0.067500
     47 H3         -2.5490   -2.4700    0.3330 hc        1 1VP      0.081500
     48 H4         -2.5510   -0.9850   -0.3220 hc        1 1VP      0.081500
     49 H2         -0.3850   -2.7700   -0.8790 h1        1 1VP      0.116000
     50 H15        -0.7830   -1.8700    1.5750 hn        1 1VP      0.197000
@<TRIPOS>BOND
     1    1    2 1   
     2    1    9 1   
     3    2    3 1   
     4    2   27 1   
     5    2   28 1   
     6    3    4 1   
     7    3    8 1   
     8    4    5 1   
     9    4   29 1   
    10    5   30 1   
    11    6    7 1   
    12    6   31 1   
    13    7   32 1   
    14    8   33 1   
    15   10   11 1   
    16   10   34 1   
    17   11   12 1   
    18   11   35 1   
    19   11   36 1   
    20   12   13 1   
    21   12   23 1   
    22   14   15 1   
    23   15   17 1   
    24   16   37 1   
    25   16   38 1   
    26   16   39 1   
    27   17   18 1   
    28   17   40 1   
    29   18   19 1   
    30   18   41 1   
    31   18   42 1   
    32   19   20 1   
    33   19   43 1   
    34   19   44 1   
    35   20   21 1   
    36   20   45 1   
    37   20   46 1   
    38   21   22 1   
    39   21   47 1   
    40   21   48 1   
    41   22   23 1   
    42   22   24 1   
    43   22   49 1   
    44   23   50 1   
    45   24   25 1   
    46   24   26 1   
@<TRIPOS>SUBSTRUCTURE
     1 1VP         1 TEMP              0 ****  ****    0 ROOT
