@<TRIPOS>MOLECULE
1VP
   50    50     1     0     0
SMALL
bcc


@<TRIPOS>ATOM
      1 C5         -2.8530    0.4830    2.0480 c         1 1VP      0.652100
      2 C4         -3.4370    1.8200    1.6080 c3        1 1VP     -0.116100
      3 C3         -4.3830    1.7280    0.4660 ca        1 1VP     -0.080300
      4 C16        -3.9140    1.8000   -0.8520 ca        1 1VP     -0.122500
      5 C17        -4.8070    1.7300   -1.9190 ca        1 1VP     -0.129000
      6 C          -6.1750    1.5900   -1.6810 ca        1 1VP     -0.133000
      7 C1         -6.6470    1.5200   -0.3710 ca        1 1VP     -0.129000
      8 C2         -5.7570    1.5880    0.6990 ca        1 1VP     -0.122500
      9 O          -2.7120    0.2410    3.2650 o         1 1VP     -0.622100
     10 N          -2.5300   -0.4350    1.0710 n         1 1VP     -0.527900
     11 C6         -1.6730   -1.5570    1.3410 c3        1 1VP     -0.004000
     12 C7         -0.4410   -1.6140    0.4090 c         1 1VP      0.620100
     13 O1         -0.3830   -0.8660   -0.5990 o         1 1VP     -0.672100
     14 O2          4.3830    4.1930   -0.0300 o         1 1VP     -0.619100
     15 C13         5.3780    3.5100   -0.3500 c         1 1VP      0.650100
     16 C14         6.7740    4.0870   -0.2630 c3        1 1VP     -0.176100
     17 N2          5.2600    2.2260   -0.8340 n         1 1VP     -0.564900
     18 C12         4.0160    1.4990   -0.8480 c3        1 1VP      0.081000
     19 C11         4.1090    0.1060   -0.2270 c3        1 1VP     -0.098400
     20 C9          2.9170   -2.0570    0.1140 c3        1 1VP     -0.072400
     21 C8          1.6340   -2.8640   -0.1090 c3        1 1VP     -0.050300
     22 N1          0.5500   -2.4760    0.7710 n         1 1VP     -0.504900
     23 C15         1.9920   -4.3910    0.0560 c         1 1VP      0.913600
     24 O3          1.4410   -5.0420    0.9860 o         1 1VP     -0.826800
     25 O4          2.8140   -4.8570   -0.7750 o         1 1VP     -0.826800
     26 H19        -3.9500    2.2690    2.5010 hc        1 1VP      0.077700
     27 H20        -2.5710    2.4850    1.3410 hc        1 1VP      0.077700
     28 H23        -2.8350    1.9070   -1.0460 ha        1 1VP      0.139500
     29 H24        -4.4290    1.7790   -2.9510 ha        1 1VP      0.129500
     30 H25        -6.8770    1.5320   -2.5250 ha        1 1VP      0.126000
     31 H22        -7.7240    1.4050   -0.1800 ha        1 1VP      0.129500
     32 H21        -6.1320    1.5260    1.7320 ha        1 1VP      0.139500
     33 H18        -2.5110   -0.1140    0.1240 hn        1 1VP      0.323500
     34 H16        -1.3460   -1.5360    2.4200 h1        1 1VP      0.079200
     35 H17        -2.2650   -2.5020    1.1670 h1        1 1VP      0.079200
     36 H12         7.2610    4.0890   -1.2670 hc        1 1VP      0.058367
     37 H13         6.7050    5.1370    0.1100 hc        1 1VP      0.058367
     38 H14         7.3990    3.4900    0.4440 hc        1 1VP      0.058367
     39 H11         6.0860    1.6950   -0.9700 hn        1 1VP      0.300500
     40 H9          3.2310    2.1010   -0.3060 h1        1 1VP      0.060700
     41 H10         3.6870    1.3960   -1.9240 h1        1 1VP      0.060700
     42 H7          4.9530   -0.4710   -0.6890 hc        1 1VP      0.037200
     43 H8          4.3240    0.1900    0.8710 hc        1 1VP      0.037200
     44 H5          1.9670   -0.1060    0.0570 hc        1 1VP      0.048200
     45 H6          2.5750   -0.6960   -1.5320 hc        1 1VP      0.048200
     46 H3          3.7410   -2.6120   -0.4120 hc        1 1VP      0.051200
     47 H4          3.1730   -2.0230    1.2040 hc        1 1VP      0.051200
     48 H2          1.3040   -2.7120   -1.1780 h1        1 1VP      0.060700
     49 H15         0.3660   -3.1460    1.4940 hn        1 1VP      0.332500
     50 C10         2.8150   -0.6510   -0.4360 c3        1 1VP     -0.079400
@<TRIPOS>BOND
     1    1    2 1   
     2    1    9 2   
     3    1   10 1   
     4    2    3 1   
     5    2   26 1   
     6    2   27 1   
     7    3    4 ar  
     8    3    8 ar  
     9    4    5 ar  
    10    4   28 1   
    11    5    6 ar  
    12    5   29 1   
    13    6    7 ar  
    14    6   30 1   
    15    7    8 ar  
    16    7   31 1   
    17    8   32 1   
    18   10   11 1   
    19   10   33 1   
    20   11   12 1   
    21   11   34 1   
    22   11   35 1   
    23   12   13 2   
    24   12   22 1   
    25   14   15 2   
    26   15   16 1   
    27   15   17 1   
    28   16   36 1   
    29   16   37 1   
    30   16   38 1   
    31   17   18 1   
    32   17   39 1   
    33   18   19 1   
    34   18   40 1   
    35   18   41 1   
    36   19   42 1   
    37   19   43 1   
    38   19   50 1   
    39   20   21 1   
    40   20   46 1   
    41   20   47 1   
    42   20   50 1   
    43   21   22 1   
    44   21   23 1   
    45   21   48 1   
    46   22   49 1   
    47   23   24 1   
    48   23   25 1   
    49   44   50 1   
    50   45   50 1   
@<TRIPOS>SUBSTRUCTURE
     1 1VP         1 TEMP              0 ****  ****    0 ROOT
