@<TRIPOS>MOLECULE
1VR
   21    19     1     0     0
SMALL
bcc


@<TRIPOS>ATOM
      1 O          -2.5360    1.0080   -2.0920 o         1 1VR     -0.586500
      2 C          -1.2870    1.0970   -2.2250 c1        1 1VR      0.324000
      3 CA         -0.4070    1.2630   -1.0060 c2        1 1VR     -0.260000
      4 CB         -0.0520   -0.0980   -0.4510 c3        1 1VR     -0.018000
      5 N           1.1030   -0.5940   -1.1160 n3        1 1VR     -0.338000
      6 CG          0.2290    0.0190    1.0290 c3        1 1VR     -0.105000
      7 CD2        -0.9230   -0.5760    1.8100 c3        1 1VR     -0.198500
      8 CD1         1.5020   -0.7280    1.3610 c3        1 1VR     -0.198500
      9 OXT        -0.7710    1.0490   -3.3720 o         1 1VR     -0.586500
     10 HA1         0.4120    1.7360   -1.2560 ha        1 1VR      0.067000
     11 HA2        -0.8860    1.7780   -0.3250 ha        1 1VR      0.067000
     12 HB         -0.7990   -0.7120   -0.5940 h1        1 1VR      0.084000
     13 H           1.3500   -0.0100   -1.7770 hn        1 1VR      0.148000
     14 H1          0.9160   -1.4110   -1.4850 hn        1 1VR      0.148000
     15 HG          0.3320    0.9600    1.2670 hc        1 1VR      0.073000
     16 H3         -1.0200   -1.5230    1.5780 hc        1 1VR      0.063000
     17 H4         -0.7450   -0.4900    2.7700 hc        1 1VR      0.063000
     18 H5         -1.7490   -0.0990    1.5860 hc        1 1VR      0.063000
     19 H6          2.2330   -0.3920    0.8020 hc        1 1VR      0.063000
     20 H7          1.7240   -0.5920    2.3060 hc        1 1VR      0.063000
     21 H8          1.3740   -1.6850    1.1900 hc        1 1VR      0.063000
@<TRIPOS>BOND
     1    1    2 1   
     2    2    9 1   
     3    3    4 1   
     4    3   10 1   
     5    3   11 1   
     6    4    5 1   
     7    4    6 1   
     8    4   12 1   
     9    5   13 1   
    10    5   14 1   
    11    6    7 1   
    12    6    8 1   
    13    6   15 1   
    14    7   16 1   
    15    7   17 1   
    16    7   18 1   
    17    8   19 1   
    18    8   20 1   
    19    8   21 1   
@<TRIPOS>SUBSTRUCTURE
     1 1VR         1 TEMP              0 ****  ****    0 ROOT
