@<TRIPOS>MOLECULE
1VR
   21    20     1     0     0
SMALL
bcc


@<TRIPOS>ATOM
      1 O           2.6710    0.6620   -0.7490 o         1 1VR     -0.851800
      2 C           1.9240    0.0970    0.0990 c         1 1VR      0.904600
      3 CA          0.5140    0.6710    0.3140 c3        1 1VR     -0.231400
      4 CB         -0.5900   -0.3140   -0.0870 c3        1 1VR      0.179500
      5 N          -0.4310   -1.6530    0.4700 n3        1 1VR     -0.905800
      6 CG         -1.9760    0.2830    0.2680 c3        1 1VR     -0.065700
      7 CD2        -2.1520    1.6480   -0.3650 c3        1 1VR     -0.080600
      8 CD1        -3.0960   -0.6340   -0.1800 c3        1 1VR     -0.080600
      9 OXT         2.2830   -0.9030    0.7920 o         1 1VR     -0.851800
     10 HA1         0.4060    0.9420    1.3940 hc        1 1VR      0.027700
     11 HA2         0.4190    1.6030   -0.2970 hc        1 1VR      0.027700
     12 HB         -0.5540   -0.4300   -1.2120 h1        1 1VR      0.044700
     13 H           0.4640   -2.0090    0.1700 hn        1 1VR      0.352800
     14 H1         -0.3870   -1.5820    1.4700 hn        1 1VR      0.352800
     15 HG         -2.0340    0.4010    1.3860 hc        1 1VR      0.033700
     16 H3         -3.2130    1.9860   -0.2720 hc        1 1VR      0.023700
     17 H4         -1.5000    2.4020    0.1390 hc        1 1VR      0.023700
     18 H5         -1.8840    1.6170   -1.4480 hc        1 1VR      0.023700
     19 H6         -3.0030   -0.8550   -1.2700 hc        1 1VR      0.023700
     20 H7         -3.0660   -1.6000    0.3780 hc        1 1VR      0.023700
     21 H8         -4.0890   -0.1540    0.0020 hc        1 1VR      0.023700
@<TRIPOS>BOND
     1    1    2 1   
     2    2    3 1   
     3    2    9 1   
     4    3    4 1   
     5    3   10 1   
     6    3   11 1   
     7    4    5 1   
     8    4    6 1   
     9    4   12 1   
    10    5   13 1   
    11    5   14 1   
    12    6    7 1   
    13    6    8 1   
    14    6   15 1   
    15    7   16 1   
    16    7   17 1   
    17    7   18 1   
    18    8   19 1   
    19    8   20 1   
    20    8   21 1   
@<TRIPOS>SUBSTRUCTURE
     1 1VR         1 TEMP              0 ****  ****    0 ROOT
