@<TRIPOS>MOLECULE
1VS
   60    63     1     0     0
SMALL
bcc


@<TRIPOS>ATOM
      1 C01        -0.0170   -0.3380   -0.0870 ca        1 1VS     -0.125000
      2 C02         1.2200   -0.9980   -0.0600 ca        1 1VS     -0.138500
      3 C03         1.9790   -1.0080    1.1100 ca        1 1VS     -0.117500
      4 C04         1.5130   -0.3610    2.2550 ca        1 1VS     -0.093000
      5 C05         0.2810    0.2970    2.2320 ca        1 1VS     -0.117500
      6 C06        -0.4840    0.3110    1.0660 ca        1 1VS     -0.138500
      7 S          -1.5650    0.6160   -3.5750 ss        1 1VS      0.326200
      8 C07        -0.5770    0.7420   -2.2650 cc        1 1VS     -0.208100
      9 C08        -0.7740   -0.2540   -1.3300 cd        1 1VS      0.012000
     10 C09        -1.8090   -1.1600   -1.7530 cd        1 1VS     -0.288600
     11 C10        -2.2810   -2.3170   -1.0370 c         1 1VS      0.602700
     12 N01        -1.6080   -2.6120    0.2810 ny        1 1VS     -0.665800
     13 C12        -2.0930   -3.8460    0.9730 c3        1 1VS      0.114800
     14 C11        -1.4920   -5.1200    0.4180 c3        1 1VS     -0.132100
     15 O3         -3.1770   -3.0940   -1.3760 o         1 1VS     -0.505100
     16 C15        -2.3360   -0.7640   -3.0180 cc        1 1VS      0.048500
     17 N02        -3.3510   -1.4360   -3.6880 ns        1 1VS     -0.411100
     18 C13        -3.8450   -1.0220   -4.9100 c         1 1VS      0.636100
     19 C1         -4.9700   -1.8680   -5.5260 c3        1 1VS      0.028800
     20 N12        -5.4440   -1.2850   -6.8090 ny        1 1VS     -0.754000
     21 C14        -6.5040   -2.1300   -7.4510 c3        1 1VS      0.097800
     22 C23        -7.0430   -1.5000   -8.7420 c3        1 1VS      0.003800
     23 O11        -3.4120   -0.0170   -5.5050 o         1 1VS     -0.565100
     24 C16       -10.2310   -3.3140   -9.4550 ca        1 1VS     -0.048200
     25 C17        -9.4610   -2.4370   -8.6050 ca        1 1VS     -0.086800
     26 C18        -8.1560   -2.3210   -9.2210 cc        1 1VS     -0.235400
     27 C19        -8.1810   -3.0970  -10.3890 cd        1 1VS     -0.043100
     28 N          -9.4180   -3.7040  -10.5280 na        1 1VS     -0.161400
     29 C20       -10.0570   -1.8990   -7.4620 ca        1 1VS     -0.124000
     30 C21       -11.3710   -2.2290   -7.1710 ca        1 1VS     -0.122000
     31 C22       -12.1110   -3.0920   -8.0020 ca        1 1VS     -0.104000
     32 C         -11.5620   -3.6440   -9.1480 ca        1 1VS     -0.112000
     33 H1          1.6130   -1.4730   -0.9730 ha        1 1VS      0.150500
     34 H2          2.9610   -1.5100    1.1220 ha        1 1VS      0.167000
     35 H3          2.1250   -0.3530    3.1730 ha        1 1VS      0.170000
     36 H4         -0.0780    0.8260    3.1300 ha        1 1VS      0.167000
     37 H5         -1.4330    0.8700    1.0400 ha        1 1VS      0.150500
     38 H7         -1.7510   -1.7930    0.8930 hn        1 1VS      0.473300
     39 H8         -1.8190   -3.7350    2.0630 hx        1 1VS      0.112200
     40 H9         -3.2170   -3.8780    0.8810 hx        1 1VS      0.112200
     41 H10        -1.7870   -5.2770   -0.6480 hc        1 1VS      0.080033
     42 H11        -0.3780   -5.1250    0.4970 hc        1 1VS      0.080033
     43 H12        -1.8870   -5.9790    1.0210 hc        1 1VS      0.080033
     44 H13        -3.7350   -2.2510   -3.2500 hn        1 1VS      0.365500
     45 H14        -4.5930   -2.9140   -5.7230 hx        1 1VS      0.135700
     46 H15        -5.8450   -1.9250   -4.8130 hx        1 1VS      0.135700
     47 H16        -5.8140   -0.3390   -6.6380 hn        1 1VS      0.465300
     48 H18        -7.3520   -2.2510   -6.7150 hx        1 1VS      0.112200
     49 H19        -6.0580   -3.1410   -7.6690 hx        1 1VS      0.112200
     50 H20        -6.2300   -1.4460   -9.5150 hc        1 1VS      0.068200
     51 H21        -7.4050   -0.4550   -8.5380 hc        1 1VS      0.068200
     52 H22        -7.3940   -3.2460  -11.1350 h4        1 1VS      0.177000
     53 H23        -9.7110   -4.2570  -11.2930 hn        1 1VS      0.321700
     54 H24        -9.4980   -1.2070   -6.8180 ha        1 1VS      0.108000
     55 H25       -11.8590   -1.8050   -6.2790 ha        1 1VS      0.143000
     56 H26       -13.1540   -3.3260   -7.7340 ha        1 1VS      0.154000
     57 H27       -12.1470   -4.3100   -9.7970 ha        1 1VS      0.155000
     58 H012       -0.5930   -2.6900    0.1050 hn        1 1VS      0.473300
     59 H122       -4.6450   -1.1800   -7.4510 hn        1 1VS      0.465300
     60 H6          0.1630    1.5460   -2.1530 h4        1 1VS      0.223000
@<TRIPOS>BOND
     1    1    2 ar  
     2    1    6 ar  
     3    1    9 1   
     4    2    3 ar  
     5    2   33 1   
     6    3    4 ar  
     7    3   34 1   
     8    4    5 ar  
     9    4   35 1   
    10    5    6 ar  
    11    5   36 1   
    12    6   37 1   
    13    7    8 1   
    14    7   16 1   
    15    8    9 2   
    16    8   60 1   
    17    9   10 1   
    18   10   11 1   
    19   10   16 2   
    20   11   12 1   
    21   11   15 2   
    22   12   13 1   
    23   12   38 1   
    24   12   58 1   
    25   13   14 1   
    26   13   39 1   
    27   13   40 1   
    28   14   41 1   
    29   14   42 1   
    30   14   43 1   
    31   16   17 1   
    32   17   18 1   
    33   17   44 1   
    34   18   19 1   
    35   18   23 2   
    36   19   20 1   
    37   19   45 1   
    38   19   46 1   
    39   20   21 1   
    40   20   47 1   
    41   20   59 1   
    42   21   22 1   
    43   21   48 1   
    44   21   49 1   
    45   22   26 1   
    46   22   50 1   
    47   22   51 1   
    48   24   25 ar  
    49   24   28 1   
    50   24   32 ar  
    51   25   26 1   
    52   25   29 ar  
    53   26   27 2   
    54   27   28 1   
    55   27   52 1   
    56   28   53 1   
    57   29   30 ar  
    58   29   54 1   
    59   30   31 ar  
    60   30   55 1   
    61   31   32 ar  
    62   31   56 1   
    63   32   57 1   
@<TRIPOS>SUBSTRUCTURE
     1 1VS         1 TEMP              0 ****  ****    0 ROOT
