@<TRIPOS>MOLECULE
1VS
   61    64     1     0     0
SMALL
bcc


@<TRIPOS>ATOM
      1 C01        -0.4940   -0.0480    0.0600 ca        1 1VS     -0.185000
      2 C02         0.7560   -0.1050   -0.5800 ca        1 1VS     -0.130500
      3 C03         1.9260   -0.0160    0.1720 ca        1 1VS     -0.108000
      4 C04         1.8610    0.1330    1.5600 ca        1 1VS     -0.065000
      5 C05         0.6190    0.1830    2.1990 ca        1 1VS     -0.108000
      6 C06        -0.5570    0.0960    1.4560 ca        1 1VS     -0.130500
      7 S          -3.6690    0.9450   -2.0110 ss        1 1VS      0.462200
      8 C07        -2.3210    1.1730   -1.1560 cc        1 1VS     -0.170100
      9 C08        -1.7150   -0.0200   -0.7290 cd        1 1VS      0.059000
     10 C09        -2.4650   -1.1410   -1.1730 cd        1 1VS     -0.183600
     11 C10        -2.1500   -2.5380   -0.8930 c         1 1VS      0.595700
     12 N01        -0.9480   -2.8210   -0.0540 n4        1 1VS     -0.656800
     13 C12        -0.7030   -4.2780    0.2340 c3        1 1VS      0.117800
     14 C11         0.0060   -4.9980   -0.8890 c3        1 1VS     -0.140100
     15 O3         -2.8200   -3.4940   -1.2960 o         1 1VS     -0.494100
     16 C15        -3.6110   -0.7210   -1.9210 cc        1 1VS     -0.199500
     17 N02        -4.5980   -1.6110   -2.4780 n4        1 1VS     -0.481200
     18 C13        -4.4930   -1.8290   -3.9740 c         1 1VS      0.497100
     19 C1         -5.7790   -2.2820   -4.6580 c3        1 1VS      0.025800
     20 N12        -5.6070   -2.5320   -6.1120 n4        1 1VS     -0.765000
     21 C14        -6.9200   -2.9060   -6.7710 c3        1 1VS      0.095800
     22 C23        -6.7660   -3.0860   -8.2930 c3        1 1VS      0.015800
     23 O11        -3.4220   -1.6510   -4.5260 o         1 1VS     -0.352100
     24 C16       -10.2490   -2.8320   -9.6080 ca        1 1VS     -0.051200
     25 C17        -9.1170   -2.2170   -8.9560 ca        1 1VS     -0.085800
     26 C18        -8.1110   -3.2530   -8.8350 cc        1 1VS     -0.264400
     27 C19        -8.6500   -4.4200   -9.4070 cd        1 1VS     -0.022100
     28 N          -9.9300   -4.1760   -9.8600 na        1 1VS     -0.145400
     29 C20        -9.1790   -0.8660   -8.6100 ca        1 1VS     -0.138000
     30 C21       -10.3320   -0.1520   -8.8980 ca        1 1VS     -0.109000
     31 C22       -11.4350   -0.7620   -9.5270 ca        1 1VS     -0.101000
     32 C         -11.4130   -2.1000   -9.8910 ca        1 1VS     -0.098000
     33 H1          0.8180   -0.1700   -1.6780 ha        1 1VS      0.151500
     34 H2          2.9080   -0.0370   -0.3340 ha        1 1VS      0.184000
     35 H3          2.7910    0.2300    2.1500 ha        1 1VS      0.189000
     36 H4          0.5680    0.3170    3.2950 ha        1 1VS      0.184000
     37 H5         -1.5300    0.1850    1.9640 ha        1 1VS      0.151500
     38 H7         -1.0560   -2.3040    0.8380 hn        1 1VS      0.487300
     39 H8         -0.0720   -4.3090    1.1730 hx        1 1VS      0.124200
     40 H9         -1.6990   -4.7640    0.4470 hx        1 1VS      0.124200
     41 H10        -0.6150   -5.0250   -1.8170 hc        1 1VS      0.088700
     42 H11         1.0010   -4.5450   -1.1200 hc        1 1VS      0.088700
     43 H12         0.1820   -6.0570   -0.5580 hc        1 1VS      0.088700
     44 H13        -5.5370   -1.2480   -2.2500 hn        1 1VS      0.490800
     45 H14        -6.1530   -3.2380   -4.1750 hx        1 1VS      0.159200
     46 H15        -6.5770   -1.4850   -4.5290 hx        1 1VS      0.159200
     47 H16        -4.9310   -3.2930   -6.2660 hn        1 1VS      0.470300
     48 H18        -7.2830   -3.8610   -6.3000 hx        1 1VS      0.118200
     49 H19        -7.6590   -2.0750   -6.5730 hx        1 1VS      0.118200
     50 H20        -6.2820   -2.1750   -8.7420 hc        1 1VS      0.072200
     51 H21        -6.1250   -3.9790   -8.5160 hc        1 1VS      0.072200
     52 H22        -8.1860   -5.4050   -9.5290 h4        1 1VS      0.183000
     53 H23       -10.5050   -4.8130  -10.3550 hn        1 1VS      0.330700
     54 H24        -8.3170   -0.3710   -8.1460 ha        1 1VS      0.097000
     55 H25       -10.3940    0.9190   -8.6460 ha        1 1VS      0.147000
     56 H26       -12.3310   -0.1560   -9.7420 ha        1 1VS      0.164000
     57 H27       -12.2740   -2.5680  -10.3930 ha        1 1VS      0.165000
     58 H012       -0.1210   -2.4210   -0.5360 hn        1 1VS      0.487300
     59 H022       -4.4950   -2.5450   -2.0250 hn        1 1VS      0.490800
     60 H122       -5.2360   -1.6900   -6.5770 hn        1 1VS      0.470300
     61 H6         -1.8970    2.1660   -0.9150 h4        1 1VS      0.260000
@<TRIPOS>BOND
     1    1    2 ar  
     2    1    6 ar  
     3    1    9 1   
     4    2    3 ar  
     5    2   33 1   
     6    3    4 ar  
     7    3   34 1   
     8    4    5 ar  
     9    4   35 1   
    10    5    6 ar  
    11    5   36 1   
    12    6   37 1   
    13    7    8 1   
    14    7   16 1   
    15    8    9 2   
    16    8   61 1   
    17    9   10 1   
    18   10   11 1   
    19   10   16 2   
    20   11   12 1   
    21   11   15 2   
    22   12   13 1   
    23   12   38 1   
    24   12   58 1   
    25   13   14 1   
    26   13   39 1   
    27   13   40 1   
    28   14   41 1   
    29   14   42 1   
    30   14   43 1   
    31   16   17 1   
    32   17   18 1   
    33   17   44 1   
    34   17   59 1   
    35   18   19 1   
    36   18   23 2   
    37   19   20 1   
    38   19   45 1   
    39   19   46 1   
    40   20   21 1   
    41   20   47 1   
    42   20   60 1   
    43   21   22 1   
    44   21   48 1   
    45   21   49 1   
    46   22   26 1   
    47   22   50 1   
    48   22   51 1   
    49   24   25 ar  
    50   24   28 1   
    51   24   32 ar  
    52   25   26 1   
    53   25   29 ar  
    54   26   27 2   
    55   27   28 1   
    56   27   52 1   
    57   28   53 1   
    58   29   30 ar  
    59   29   54 1   
    60   30   31 ar  
    61   30   55 1   
    62   31   32 ar  
    63   31   56 1   
    64   32   57 1   
@<TRIPOS>SUBSTRUCTURE
     1 1VS         1 TEMP              0 ****  ****    0 ROOT
