@<TRIPOS>MOLECULE
1VS
   60    63     1     0     0
SMALL
bcc


@<TRIPOS>ATOM
      1 C01        -0.0250   -0.3340   -0.0810 ca        1 1VS     -0.125000
      2 C02         1.2160   -0.9880   -0.0560 ca        1 1VS     -0.138500
      3 C03         1.9740   -0.9990    1.1140 ca        1 1VS     -0.117500
      4 C04         1.5040   -0.3590    2.2620 ca        1 1VS     -0.093000
      5 C05         0.2700    0.2920    2.2410 ca        1 1VS     -0.117500
      6 C06        -0.4950    0.3080    1.0750 ca        1 1VS     -0.138500
      7 S          -1.5770    0.6270   -3.5650 ss        1 1VS      0.326200
      8 C07        -0.5900    0.7530   -2.2530 cc        1 1VS     -0.208100
      9 C08        -0.7820   -0.2480   -1.3230 cd        1 1VS      0.012000
     10 C09        -1.8120   -1.1590   -1.7510 cd        1 1VS     -0.288600
     11 C10        -2.2780   -2.3210   -1.0390 c         1 1VS      0.602700
     12 N01        -1.6040   -2.6180    0.2780 n4        1 1VS     -0.665800
     13 C12        -2.0820   -3.8580    0.9640 c3        1 1VS      0.114800
     14 C11        -1.4760   -5.1260    0.4040 c3        1 1VS     -0.132100
     15 O3         -3.1700   -3.1000   -1.3820 o         1 1VS     -0.505100
     16 C15        -2.3410   -0.7600   -3.0130 cc        1 1VS      0.048500
     17 N02        -3.3520   -1.4340   -3.6870 n         1 1VS     -0.411100
     18 C13        -3.8480   -1.0170   -4.9070 c         1 1VS      0.636100
     19 C1         -4.9680   -1.8660   -5.5270 c3        1 1VS      0.028800
     20 N12        -5.4440   -1.2810   -6.8090 n4        1 1VS     -0.754000
     21 C14        -6.5020   -2.1270   -7.4520 c3        1 1VS      0.097800
     22 C23        -7.0410   -1.4960   -8.7430 c3        1 1VS      0.003800
     23 O11        -3.4200   -0.0080   -5.4970 o         1 1VS     -0.565100
     24 C16       -10.2260   -3.3150   -9.4610 ca        1 1VS     -0.048200
     25 C17        -9.4580   -2.4370   -8.6090 ca        1 1VS     -0.086800
     26 C18        -8.1520   -2.3180   -9.2240 cc        1 1VS     -0.235400
     27 C19        -8.1750   -3.0920  -10.3930 cd        1 1VS     -0.043100
     28 N          -9.4110   -3.7010  -10.5340 na        1 1VS     -0.161400
     29 C20       -10.0560   -1.9010   -7.4660 ca        1 1VS     -0.124000
     30 C21       -11.3690   -2.2340   -7.1760 ca        1 1VS     -0.122000
     31 C22       -12.1070   -3.0980   -8.0090 ca        1 1VS     -0.104000
     32 C         -11.5560   -3.6470   -9.1550 ca        1 1VS     -0.112000
     33 H1          1.6110   -1.4570   -0.9700 ha        1 1VS      0.150500
     34 H2          2.9590   -1.4960    1.1240 ha        1 1VS      0.167000
     35 H3          2.1160   -0.3520    3.1800 ha        1 1VS      0.170000
     36 H4         -0.0930    0.8170    3.1410 ha        1 1VS      0.167000
     37 H5         -1.4470    0.8620    1.0510 ha        1 1VS      0.150500
     38 H7         -0.5880   -2.6900    0.1010 hn        1 1VS      0.473300
     39 H8         -3.2070   -3.8950    0.8720 hx        1 1VS      0.112200
     40 H9         -1.8100   -3.7490    2.0550 hx        1 1VS      0.112200
     41 H10        -0.3610   -5.1260    0.4830 hc        1 1VS      0.080033
     42 H11        -1.7700   -5.2800   -0.6630 hc        1 1VS      0.080033
     43 H12        -1.8660   -5.9890    1.0030 hc        1 1VS      0.080033
     44 H13        -3.7320   -2.2530   -3.2520 hn        1 1VS      0.365500
     45 H14        -5.8440   -1.9290   -4.8150 hx        1 1VS      0.135700
     46 H15        -4.5860   -2.9100   -5.7270 hx        1 1VS      0.135700
     47 H16        -5.8160   -0.3360   -6.6350 hn        1 1VS      0.465800
     48 H18        -7.3500   -2.2510   -6.7170 hx        1 1VS      0.112200
     49 H19        -6.0540   -3.1360   -7.6720 hx        1 1VS      0.112200
     50 H20        -6.2280   -1.4390   -9.5150 hc        1 1VS      0.068200
     51 H21        -7.4060   -0.4520   -8.5380 hc        1 1VS      0.068200
     52 H22        -7.3880   -3.2390  -11.1390 h4        1 1VS      0.177000
     53 H23        -9.7020   -4.2540  -11.3000 hn        1 1VS      0.321700
     54 H24        -9.4980   -1.2090   -6.8210 ha        1 1VS      0.108000
     55 H25       -11.8580   -1.8120   -6.2840 ha        1 1VS      0.143000
     56 H26       -13.1500   -3.3330   -7.7430 ha        1 1VS      0.154000
     57 H27       -12.1400   -4.3130   -9.8060 ha        1 1VS      0.155000
     58 H012       -1.7510   -1.8020    0.8930 hn        1 1VS      0.473300
     59 H122       -4.6450   -1.1730   -7.4500 hn        1 1VS      0.465800
     60 H6          0.1460    1.5590   -2.1380 h4        1 1VS      0.223000
@<TRIPOS>BOND
     1    1    2 ar  
     2    1    6 ar  
     3    1    9 1   
     4    2    3 ar  
     5    2   33 1   
     6    3    4 ar  
     7    3   34 1   
     8    4    5 ar  
     9    4   35 1   
    10    5    6 ar  
    11    5   36 1   
    12    6   37 1   
    13    7    8 1   
    14    7   16 1   
    15    8    9 2   
    16    8   60 1   
    17    9   10 1   
    18   10   11 1   
    19   10   16 2   
    20   11   12 1   
    21   11   15 2   
    22   12   13 1   
    23   12   38 1   
    24   12   58 1   
    25   13   14 1   
    26   13   39 1   
    27   13   40 1   
    28   14   41 1   
    29   14   42 1   
    30   14   43 1   
    31   16   17 1   
    32   17   18 1   
    33   17   44 1   
    34   18   19 1   
    35   18   23 2   
    36   19   20 1   
    37   19   45 1   
    38   19   46 1   
    39   20   21 1   
    40   20   47 1   
    41   20   59 1   
    42   21   22 1   
    43   21   48 1   
    44   21   49 1   
    45   22   26 1   
    46   22   50 1   
    47   22   51 1   
    48   24   25 ar  
    49   24   28 1   
    50   24   32 ar  
    51   25   26 1   
    52   25   29 ar  
    53   26   27 2   
    54   27   28 1   
    55   27   52 1   
    56   28   53 1   
    57   29   30 ar  
    58   29   54 1   
    59   30   31 ar  
    60   30   55 1   
    61   31   32 ar  
    62   31   56 1   
    63   32   57 1   
@<TRIPOS>SUBSTRUCTURE
     1 1VS         1 TEMP              0 ****  ****    0 ROOT
