@<TRIPOS>MOLECULE
1VT
   63    66     1     0     0
SMALL
bcc


@<TRIPOS>ATOM
      1 C01         0.1450    0.4480   -0.3020 cc        1 1VT     -0.298600
      2 C02        -0.5530    0.5620   -1.5560 c         1 1VT      0.604700
      3 O01        -0.0580    0.5840   -2.6860 o         1 1VT     -0.515100
      4 N01        -2.0560    0.6570   -1.4780 ny        1 1VT     -0.666800
      5 C1         -2.7670    0.7720   -2.7980 c3        1 1VT      0.177100
      6 C03        -3.0760    2.1880   -3.1410 ca        1 1VT     -0.188300
      7 C04        -2.1660    2.9400   -3.8940 ca        1 1VT     -0.099000
      8 C05        -2.4830    4.2450   -4.2640 ca        1 1VT     -0.122000
      9 C06        -3.7050    4.8030   -3.8840 ca        1 1VT     -0.075000
     10 C07        -4.6130    4.0550   -3.1320 ca        1 1VT     -0.122000
     11 C08        -4.3010    2.7480   -2.7590 ca        1 1VT     -0.099000
     12 C09         1.5630    0.3340   -0.2160 cd        1 1VT      0.071500
     13 N           2.4210    0.3130   -1.3030 ns        1 1VT     -0.426100
     14 C10         3.7980    0.1790   -1.1700 c         1 1VT      0.660100
     15 O           4.3290    0.0800   -0.0480 o         1 1VT     -0.562100
     16 C11         4.6240    0.1570   -2.4460 c3        1 1VT     -0.177400
     17 C2          6.0910   -0.0110   -2.0540 c3        1 1VT      0.101800
     18 N23         7.0120   -0.0540   -3.2200 ny        1 1VT     -0.769000
     19 C25         8.4510   -0.2210   -2.7890 c3        1 1VT      0.185100
     20 C12         9.3440   -0.2620   -3.9770 ca        1 1VT     -0.209300
     21 C13         9.9110    0.9220   -4.4670 ca        1 1VT     -0.097000
     22 C14        10.7900    0.8740   -5.5470 ca        1 1VT     -0.116000
     23 C15        11.1060   -0.3510   -6.1390 ca        1 1VT     -0.065000
     24 C16        10.5420   -1.5310   -5.6500 ca        1 1VT     -0.116000
     25 C17         9.6620   -1.4900   -4.5710 ca        1 1VT     -0.097000
     26 S           2.0540    0.2240    1.3870 ss        1 1VT      0.302200
     27 C18         0.5210    0.3140    1.9890 cd        1 1VT     -0.211100
     28 C19        -0.4460    0.4320    1.0130 cc        1 1VT      0.007000
     29 C20        -1.8680    0.5210    1.3160 ca        1 1VT     -0.117000
     30 C21        -2.6360   -0.6470    1.4370 ca        1 1VT     -0.137000
     31 C22        -3.9790   -0.5640    1.8040 ca        1 1VT     -0.119000
     32 C23        -4.5630    0.6800    2.0530 ca        1 1VT     -0.098000
     33 C24        -3.8020    1.8430    1.9320 ca        1 1VT     -0.119000
     34 C          -2.4590    1.7690    1.5660 ca        1 1VT     -0.137000
     35 H1         -2.2850    1.4800   -0.8960 hn        1 1VT      0.470300
     36 H2         -2.1200    0.3010   -3.5950 hx        1 1VT      0.113200
     37 H3         -3.7200    0.1740   -2.7060 hx        1 1VT      0.113200
     38 H4         -1.2090    2.4920   -4.2040 ha        1 1VT      0.139500
     39 H5         -1.7730    4.8340   -4.8660 ha        1 1VT      0.159000
     40 H6         -3.9580    5.8340   -4.1840 ha        1 1VT      0.163000
     41 H7         -5.5810    4.4930   -2.8400 ha        1 1VT      0.159000
     42 H8         -5.0300    2.1560   -2.1850 ha        1 1VT      0.139500
     43 H9          2.0190    0.3930   -2.2160 hn        1 1VT      0.360500
     44 H10         4.4650    1.1170   -3.0070 hc        1 1VT      0.098200
     45 H11         4.2820   -0.6930   -3.0960 hc        1 1VT      0.098200
     46 H12         6.2180   -0.9670   -1.4640 hx        1 1VT      0.128200
     47 H13         6.4040    0.8440   -1.3830 hx        1 1VT      0.128200
     48 H14         6.9310    0.8120   -3.7660 hn        1 1VT      0.449800
     49 H16         8.7050    0.6480   -2.1160 hx        1 1VT      0.111700
     50 H17         8.5170   -1.1770   -2.1950 hx        1 1VT      0.111700
     51 H18         9.6850    1.8880   -3.9890 ha        1 1VT      0.138000
     52 H19        11.2450    1.8040   -5.9270 ha        1 1VT      0.166000
     53 H20        11.8080   -0.3870   -6.9890 ha        1 1VT      0.169000
     54 H21        10.8010   -2.4980   -6.1120 ha        1 1VT      0.166000
     55 H22         9.2390   -2.4260   -4.1750 ha        1 1VT      0.138000
     56 H23         0.3040    0.2810    3.0630 h4        1 1VT      0.217000
     57 H24        -2.1690   -1.6330    1.2850 ha        1 1VT      0.150000
     58 H25        -4.5740   -1.4850    1.9180 ha        1 1VT      0.163500
     59 H26        -5.6200    0.7400    2.3620 ha        1 1VT      0.166000
     60 H27        -4.2570    2.8240    2.1470 ha        1 1VT      0.163500
     61 H28        -1.8530    2.6870    1.5100 ha        1 1VT      0.150000
     62 H012       -2.3900   -0.1780   -0.9750 hn        1 1VT      0.470300
     63 H232        6.7620   -0.8340   -3.8380 hn        1 1VT      0.449800
@<TRIPOS>BOND
     1    1    2 1   
     2    1   12 2   
     3    1   28 1   
     4    2    3 2   
     5    2    4 1   
     6    4    5 1   
     7    4   35 1   
     8    4   62 1   
     9    5    6 1   
    10    5   36 1   
    11    5   37 1   
    12    6    7 ar  
    13    6   11 ar  
    14    7    8 ar  
    15    7   38 1   
    16    8    9 ar  
    17    8   39 1   
    18    9   10 ar  
    19    9   40 1   
    20   10   11 ar  
    21   10   41 1   
    22   11   42 1   
    23   12   13 1   
    24   12   26 1   
    25   13   14 1   
    26   13   43 1   
    27   14   15 2   
    28   14   16 1   
    29   16   17 1   
    30   16   44 1   
    31   16   45 1   
    32   17   18 1   
    33   17   46 1   
    34   17   47 1   
    35   18   19 1   
    36   18   48 1   
    37   18   63 1   
    38   19   20 1   
    39   19   49 1   
    40   19   50 1   
    41   20   21 ar  
    42   20   25 ar  
    43   21   22 ar  
    44   21   51 1   
    45   22   23 ar  
    46   22   52 1   
    47   23   24 ar  
    48   23   53 1   
    49   24   25 ar  
    50   24   54 1   
    51   25   55 1   
    52   26   27 1   
    53   27   28 2   
    54   27   56 1   
    55   28   29 1   
    56   29   30 ar  
    57   29   34 ar  
    58   30   31 ar  
    59   30   57 1   
    60   31   32 ar  
    61   31   58 1   
    62   32   33 ar  
    63   32   59 1   
    64   33   34 ar  
    65   33   60 1   
    66   34   61 1   
@<TRIPOS>SUBSTRUCTURE
     1 1VT         1 TEMP              0 ****  ****    0 ROOT
