@<TRIPOS>MOLECULE
1VT
   63    66     1     0     0
SMALL
bcc


@<TRIPOS>ATOM
      1 C01         0.1470    0.4510   -0.2980 cc        1 1VT     -0.298600
      2 C02        -0.5520    0.5600   -1.5520 c         1 1VT      0.604700
      3 O01        -0.0590    0.5780   -2.6830 o         1 1VT     -0.515100
      4 N01        -2.0550    0.6530   -1.4720 n4        1 1VT     -0.666800
      5 C1         -2.7680    0.7640   -2.7910 c3        1 1VT      0.177100
      6 C03        -3.0790    2.1790   -3.1380 ca        1 1VT     -0.188300
      7 C04        -2.1710    2.9280   -3.8960 ca        1 1VT     -0.099000
      8 C05        -2.4880    4.2320   -4.2690 ca        1 1VT     -0.122000
      9 C06        -3.7100    4.7920   -3.8880 ca        1 1VT     -0.075000
     10 C07        -4.6160    4.0450   -3.1320 ca        1 1VT     -0.122000
     11 C08        -4.3030    2.7400   -2.7560 ca        1 1VT     -0.099000
     12 C09         1.5650    0.3400   -0.2140 cd        1 1VT      0.071500
     13 N           2.4220    0.3170   -1.3020 n         1 1VT     -0.426100
     14 C10         3.7990    0.1850   -1.1710 c         1 1VT      0.660100
     15 O           4.3320    0.0920   -0.0500 o         1 1VT     -0.562100
     16 C11         4.6240    0.1600   -2.4470 c3        1 1VT     -0.177400
     17 C2          6.0920   -0.0040   -2.0570 c3        1 1VT      0.101800
     18 N23         7.0110   -0.0500   -3.2240 n4        1 1VT     -0.769000
     19 C25         8.4510   -0.2120   -2.7950 c3        1 1VT      0.185100
     20 C12         9.3420   -0.2590   -3.9840 ca        1 1VT     -0.209300
     21 C13         9.9080    0.9230   -4.4810 ca        1 1VT     -0.097000
     22 C14        10.7850    0.8710   -5.5620 ca        1 1VT     -0.116000
     23 C15        11.1010   -0.3570   -6.1490 ca        1 1VT     -0.065000
     24 C16        10.5390   -1.5360   -5.6530 ca        1 1VT     -0.116000
     25 C17         9.6610   -1.4900   -4.5720 ca        1 1VT     -0.097000
     26 S           2.0590    0.2370    1.3880 ss        1 1VT      0.302200
     27 C18         0.5270    0.3260    1.9920 cd        1 1VT     -0.211100
     28 C19        -0.4410    0.4390    1.0170 cc        1 1VT      0.007000
     29 C20        -1.8640    0.5260    1.3220 ca        1 1VT     -0.117000
     30 C21        -2.6300   -0.6430    1.4470 ca        1 1VT     -0.137000
     31 C22        -3.9720   -0.5610    1.8150 ca        1 1VT     -0.119000
     32 C23        -4.5580    0.6820    2.0620 ca        1 1VT     -0.098000
     33 C24        -3.7990    1.8470    1.9370 ca        1 1VT     -0.119000
     34 C          -2.4560    1.7740    1.5690 ca        1 1VT     -0.137000
     35 H1         -2.3880   -0.1810   -0.9670 hn        1 1VT      0.470300
     36 H2         -3.7210    0.1660   -2.6960 hx        1 1VT      0.113200
     37 H3         -2.1230    0.2910   -3.5880 hx        1 1VT      0.113200
     38 H4         -1.2130    2.4800   -4.2060 ha        1 1VT      0.139500
     39 H5         -1.7800    4.8200   -4.8740 ha        1 1VT      0.159000
     40 H6         -3.9630    5.8210   -4.1910 ha        1 1VT      0.163000
     41 H7         -5.5840    4.4840   -2.8400 ha        1 1VT      0.159000
     42 H8         -5.0310    2.1490   -2.1790 ha        1 1VT      0.139500
     43 H9          2.0190    0.3930   -2.2150 hn        1 1VT      0.360500
     44 H10         4.2820   -0.6930   -3.0940 hc        1 1VT      0.098200
     45 H11         4.4620    1.1170   -3.0120 hc        1 1VT      0.098200
     46 H12         6.2210   -0.9570   -1.4620 hx        1 1VT      0.128200
     47 H13         6.4040    0.8550   -1.3910 hx        1 1VT      0.128200
     48 H14         6.9270    0.8130   -3.7740 hn        1 1VT      0.449800
     49 H16         8.5200   -1.1650   -2.1950 hx        1 1VT      0.111700
     50 H17         8.7050    0.6610   -2.1270 hx        1 1VT      0.111700
     51 H18         9.6810    1.8910   -4.0080 ha        1 1VT      0.138000
     52 H19        11.2380    1.7990   -5.9470 ha        1 1VT      0.166000
     53 H20        11.8020   -0.3970   -7.0000 ha        1 1VT      0.169000
     54 H21        10.7980   -2.5050   -6.1100 ha        1 1VT      0.166000
     55 H22         9.2390   -2.4250   -4.1700 ha        1 1VT      0.138000
     56 H23         0.3120    0.2970    3.0670 h4        1 1VT      0.217000
     57 H24        -2.1610   -1.6280    1.2970 ha        1 1VT      0.150000
     58 H25        -4.5650   -1.4830    1.9330 ha        1 1VT      0.163500
     59 H26        -5.6140    0.7420    2.3720 ha        1 1VT      0.166000
     60 H27        -4.2550    2.8280    2.1510 ha        1 1VT      0.163500
     61 H28        -1.8520    2.6930    1.5100 ha        1 1VT      0.150000
     62 H012       -2.2850    1.4770   -0.8920 hn        1 1VT      0.470300
     63 H232        6.7610   -0.8340   -3.8390 hn        1 1VT      0.449800
@<TRIPOS>BOND
     1    1    2 1   
     2    1   12 2   
     3    1   28 1   
     4    2    3 2   
     5    2    4 1   
     6    4    5 1   
     7    4   35 1   
     8    4   62 1   
     9    5    6 1   
    10    5   36 1   
    11    5   37 1   
    12    6    7 ar  
    13    6   11 ar  
    14    7    8 ar  
    15    7   38 1   
    16    8    9 ar  
    17    8   39 1   
    18    9   10 ar  
    19    9   40 1   
    20   10   11 ar  
    21   10   41 1   
    22   11   42 1   
    23   12   13 1   
    24   12   26 1   
    25   13   14 1   
    26   13   43 1   
    27   14   15 2   
    28   14   16 1   
    29   16   17 1   
    30   16   44 1   
    31   16   45 1   
    32   17   18 1   
    33   17   46 1   
    34   17   47 1   
    35   18   19 1   
    36   18   48 1   
    37   18   63 1   
    38   19   20 1   
    39   19   49 1   
    40   19   50 1   
    41   20   21 ar  
    42   20   25 ar  
    43   21   22 ar  
    44   21   51 1   
    45   22   23 ar  
    46   22   52 1   
    47   23   24 ar  
    48   23   53 1   
    49   24   25 ar  
    50   24   54 1   
    51   25   55 1   
    52   26   27 1   
    53   27   28 2   
    54   27   56 1   
    55   28   29 1   
    56   29   30 ar  
    57   29   34 ar  
    58   30   31 ar  
    59   30   57 1   
    60   31   32 ar  
    61   31   58 1   
    62   32   33 ar  
    63   32   59 1   
    64   33   34 ar  
    65   33   60 1   
    66   34   61 1   
@<TRIPOS>SUBSTRUCTURE
     1 1VT         1 TEMP              0 ****  ****    0 ROOT
