@<TRIPOS>MOLECULE
1VV
   58    60     1     0     0
SMALL
bcc


@<TRIPOS>ATOM
      1 C16        -1.8710   -0.8090    1.4220 c2        1 1VV      0.004000
      2 C17        -0.9100   -1.3110    2.1640 c1        1 1VV     -0.196000
      3 C3          0.2440   -1.6030    4.3020 c2        1 1VV     -0.003000
      4 C4         -0.3870   -0.6130    4.9800 c2        1 1VV     -0.179000
      5 C15        -1.8360    0.3470    0.5930 c2        1 1VV     -0.310000
      6 C18         0.0110   -1.8800    2.8960 c2        1 1VV     -0.128000
      7 C2          1.2500   -2.4810    4.9670 c3        1 1VV     -0.103000
      8 C21        -0.1280   -0.3810    6.3750 c2        1 1VV     -0.066000
      9 C19        -0.7470    1.1380    0.3650 c2        1 1VV      0.044000
     10 C13         0.5790    1.0850    0.8270 c2        1 1VV     -0.452000
     11 C1          1.3890   -2.2990    6.4400 c2        1 1VV     -0.018000
     12 C5          0.7240   -1.1700    7.0710 c2        1 1VV     -0.124000
     13 C12        -0.8510    2.3400   -0.5550 c2        1 1VV      0.334000
     14 C14         1.3500    2.1580    0.2730 c2        1 1VV      0.300000
     15 C23         1.7440   -1.7920   10.6740 c3        1 1VV      0.282000
     16 C31         3.0680    0.0810   11.1420 c2        1 1VV      0.345000
     17 C9          2.1170   -3.1560    7.1810 c2        1 1VV     -0.219000
     18 C27        -2.5550   -1.1310   11.0930 c3        1 1VV     -0.272000
     19 C28         0.5860    2.7340   11.9540 c2        1 1VV     -0.114000
     20 C26         0.3130   -3.6690   11.5850 c3        1 1VV     -0.210000
     21 C30         1.1020    1.5840   11.6590 c1        1 1VV     -0.127000
     22 C8          2.2890   -3.0180    8.6540 c3        1 1VV     -0.015000
     23 C6          1.0330   -0.8950    8.5100 c3        1 1VV     -0.018000
     24 C25         1.6620   -3.0050   11.6250 c3        1 1VV     -0.136000
     25 C29         1.6490    0.4360   11.3680 c2        1 1VV      0.000000
     26 N11         0.4580    2.9660   -0.6060 n         1 1VV     -0.241000
     27 N7          1.3800   -2.0730    9.2930 n3        1 1VV     -0.271000
     28 O22        -1.8450    2.7390   -1.1640 o         1 1VV     -0.292000
     29 O20         2.5430    2.4860    0.4020 o         1 1VV     -0.398000
     30 O24         0.9000   -0.7390   11.2380 os        1 1VV     -0.216000
     31 H1         -2.7800    0.6090    0.0900 ha        1 1VV      0.121000
     32 H2          0.6870   -2.6310    2.4450 ha        1 1VV      0.114000
     33 H3          0.9890   -3.5550    4.7530 hc        1 1VV      0.104000
     34 H4         -1.1070    0.0470    4.4710 ha        1 1VV      0.151000
     35 H5         -2.8420   -1.3470    1.4340 ha        1 1VV      0.112000
     36 H6          0.9880    0.3470    1.5080 ha        1 1VV      0.159000
     37 H7          2.2520   -2.2870    4.4850 hc        1 1VV      0.104000
     38 H8         -0.6430    0.4650    6.8560 ha        1 1VV      0.123000
     39 H9          3.3700   -2.7490    8.8580 h1        1 1VV      0.083500
     40 H10         2.6370   -4.0150    6.7370 ha        1 1VV      0.127000
     41 H11        -3.0250   -1.4540   10.1390 hc        1 1VV      0.068250
     42 H12         0.1550   -4.1970   10.6130 hc        1 1VV      0.085667
     43 H13        -1.4710   -0.9390   10.9250 hc        1 1VV      0.068250
     44 H14        -3.0470   -0.2010   11.4530 hc        1 1VV      0.068250
     45 H15        -2.6760   -1.9320   11.8550 hc        1 1VV      0.068250
     46 H16        -0.5000   -2.9090   11.7050 hc        1 1VV      0.085667
     47 H17         0.2640    3.4460   11.1780 ha        1 1VV      0.142000
     48 H18         0.4460    3.0660   12.9940 ha        1 1VV      0.142000
     49 H19         0.2350   -4.4150   12.4120 hc        1 1VV      0.085667
     50 H20         2.0910   -4.0220    9.1350 h1        1 1VV      0.083500
     51 H21         0.1260   -0.4360    9.0050 h1        1 1VV      0.083500
     52 H22         2.4750   -3.7230   11.3430 hc        1 1VV      0.100000
     53 H23         1.8780   -2.6240   12.6570 hc        1 1VV      0.100000
     54 C10         0.7620    4.0330   -1.3000 c1        1 1VV     -0.132000
     55 O32         3.1070   -1.2540   10.8040 os        1 1VV     -0.300000
     56 H24         1.8280    4.3460   -1.1950 ha        1 1VV      0.037000
     57 H25         1.8670   -0.1290    8.5490 h1        1 1VV      0.083500
     58 O33         4.1280    0.6810   11.2220 o         1 1VV     -0.269000
@<TRIPOS>BOND
     1    1    2 1   
     2    1    5 1   
     3    1   35 1   
     4    2    6 1   
     5    3    4 1   
     6    3    6 1   
     7    3    7 1   
     8    4    8 1   
     9    4   34 1   
    10    5    9 1   
    11    5   31 1   
    12    6   32 1   
    13    7   11 1   
    14    7   33 1   
    15    7   37 1   
    16    8   12 1   
    17    8   38 1   
    18    9   10 1   
    19    9   13 1   
    20   10   14 1   
    21   10   36 1   
    22   11   12 1   
    23   11   17 1   
    24   12   23 1   
    25   13   26 1   
    26   13   28 1   
    27   14   26 1   
    28   14   29 1   
    29   15   24 1   
    30   15   27 1   
    31   15   30 1   
    32   15   55 1   
    33   16   25 1   
    34   16   55 1   
    35   16   58 1   
    36   17   22 1   
    37   17   40 1   
    38   18   41 1   
    39   18   43 1   
    40   18   44 1   
    41   18   45 1   
    42   19   21 1   
    43   19   47 1   
    44   19   48 1   
    45   20   24 1   
    46   20   42 1   
    47   20   46 1   
    48   20   49 1   
    49   21   25 1   
    50   22   27 1   
    51   22   39 1   
    52   22   50 1   
    53   23   27 1   
    54   23   51 1   
    55   23   57 1   
    56   24   52 1   
    57   24   53 1   
    58   25   30 1   
    59   26   54 1   
    60   54   56 1   
@<TRIPOS>SUBSTRUCTURE
     1 1VV         1 TEMP              0 ****  ****    0 ROOT
