@<TRIPOS>MOLECULE
1VV
   58    57     1     0     0
SMALL
bcc


@<TRIPOS>ATOM
      1 C16        -3.4160   -0.9420    3.3360 c2        1 1VV      0.129000
      2 C17        -2.1590   -1.1430    3.8810 c1        1 1VV     -0.481000
      3 C3          2.4560   -1.6920    4.4790 c3        1 1VV     -0.133000
      4 C4          3.7600   -2.1170    5.0420 c2        1 1VV     -0.125000
      5 C15        -3.7130   -0.7000    2.0310 c2        1 1VV     -0.261000
      6 C18        -1.0650   -1.3250    4.3890 c1        1 1VV     -0.183000
      7 C2          1.3560   -1.6640    5.4620 c2        1 1VV     -0.204000
      8 C21         3.9760   -2.1630    6.3660 c2        1 1VV     -0.169000
      9 C19        -2.7680   -0.6080    0.9770 c2        1 1VV      0.012000
     10 C13        -1.4080   -0.7300    0.9720 c2        1 1VV     -0.225000
     11 C1          1.5770   -1.7620    6.7980 c2        1 1VV     -0.207000
     12 C5          2.9380   -1.7520    7.3160 c2        1 1VV      0.092000
     13 C12        -3.2360   -0.3290   -0.4380 c2        1 1VV      0.330000
     14 C14        -0.8970   -0.5450   -0.4060 c2        1 1VV      0.277000
     15 C23         2.6650    0.7400    9.6440 c2        1 1VV      0.288000
     16 C31         1.5670   -1.4070   12.5460 c2        1 1VV      0.361000
     17 C9          0.4280   -1.9400    7.6750 c2        1 1VV     -0.101000
     18 C27         1.1950    2.5600    7.6000 c3        1 1VV     -0.218000
     19 C28        -1.2730   -1.3790   14.8690 c2        1 1VV     -0.218000
     20 C26         0.5700    1.6110    8.5900 c3        1 1VV     -0.163000
     21 C30        -0.0800   -1.5680   14.3930 c1        1 1VV     -0.103000
     22 C8          0.3740   -2.7850    8.7090 c2        1 1VV     -0.258000
     23 C6          3.3650   -1.3090    8.5280 c2        1 1VV     -0.280000
     24 C25         1.3800    1.4920    9.8640 c3        1 1VV     -0.204000
     25 C29         1.1190   -1.7610   13.9220 c2        1 1VV     -0.153000
     26 N11        -2.0490   -0.2940   -1.2860 n         1 1VV     -0.251000
     27 N7          2.5540   -0.7480    9.5780 ny        1 1VV     -0.059000
     28 O22        -4.3830   -0.1590   -0.8360 o         1 1VV     -0.239000
     29 O20         0.2580   -0.5770   -0.8340 o         1 1VV     -0.291000
     30 O24         3.7790    1.2520    9.5590 o         1 1VV     -0.260000
     31 H1         -4.7660   -0.5580    1.7320 ha        1 1VV      0.133000
     32 H2          0.1760   -1.5290    4.9700 ha        1 1VV      0.347000
     33 H3          2.1640   -2.3880    3.6430 hc        1 1VV      0.113500
     34 H4          4.5430   -2.4000    4.3230 ha        1 1VV      0.116000
     35 H5         -4.2630   -0.9870    4.0520 ha        1 1VV      0.108000
     36 H6         -0.7500   -0.9320    1.8220 ha        1 1VV      0.207000
     37 H7          2.5630   -0.6670    4.0230 hc        1 1VV      0.113500
     38 H8          4.9400   -2.4860    6.7880 ha        1 1VV      0.123000
     39 H9          1.2270   -3.4010    9.0230 ha        1 1VV      0.115000
     40 H10        -0.4730   -1.3790    7.3620 ha        1 1VV      0.135000
     41 H11         2.2450    2.2540    7.3700 hc        1 1VV      0.077667
     42 H12         0.4400    0.5990    8.1170 hc        1 1VV      0.103000
     43 H13        -2.0660   -2.1330   14.7770 ha        1 1VV      0.119500
     44 H14         1.2160    3.6000    8.0070 hc        1 1VV      0.077667
     45 H15         0.6100    2.5620    6.6490 hc        1 1VV      0.077667
     46 H16        -0.4560    1.9770    8.8640 hc        1 1VV      0.103000
     47 H17        -1.5620   -0.4490   15.3780 ha        1 1VV      0.119500
     48 H18         1.9060   -2.2190   14.5470 ha        1 1VV      0.141000
     49 H19        -0.5320   -2.9040    9.3160 ha        1 1VV      0.115000
     50 H20         2.8680   -1.1320   10.5290 hn        1 1VV      0.299500
     51 H21         1.5530   -1.0060    9.4990 hn        1 1VV      0.299500
     52 H22         0.7750    0.9650   10.6620 hc        1 1VV      0.148500
     53 H23         1.6500    2.5130   10.2470 hc        1 1VV      0.148500
     54 C10        -2.0520   -0.0770   -2.5800 c1        1 1VV     -0.077000
     55 O32         0.7790   -0.9380   11.6690 o         1 1VV     -0.589000
     56 H24        -1.0420   -0.0890   -3.0510 ha        1 1VV      0.048000
     57 H25         4.4360   -1.3170    8.7980 hx        1 1VV      0.162000
     58 O33         2.7970   -1.5860   12.2460 o         1 1VV     -0.589000
@<TRIPOS>BOND
     1    1    2 1   
     2    1    5 1   
     3    1   35 1   
     4    2    6 1   
     5    3    4 1   
     6    3    7 1   
     7    3   33 1   
     8    3   37 1   
     9    4    8 1   
    10    4   34 1   
    11    5    9 1   
    12    5   31 1   
    13    7   11 1   
    14    7   32 1   
    15    8   12 1   
    16    8   38 1   
    17    9   10 1   
    18    9   13 1   
    19   10   14 1   
    20   10   36 1   
    21   11   12 1   
    22   11   17 1   
    23   12   23 1   
    24   13   26 1   
    25   13   28 1   
    26   14   26 1   
    27   14   29 1   
    28   15   24 1   
    29   15   27 1   
    30   15   30 1   
    31   16   25 1   
    32   16   55 1   
    33   16   58 1   
    34   17   22 1   
    35   17   40 1   
    36   18   20 1   
    37   18   41 1   
    38   18   44 1   
    39   18   45 1   
    40   19   21 1   
    41   19   43 1   
    42   19   47 1   
    43   20   24 1   
    44   20   42 1   
    45   20   46 1   
    46   21   25 1   
    47   22   39 1   
    48   22   49 1   
    49   23   27 1   
    50   23   57 1   
    51   24   52 1   
    52   24   53 1   
    53   25   48 1   
    54   26   54 1   
    55   27   50 1   
    56   27   51 1   
    57   54   56 1   
@<TRIPOS>SUBSTRUCTURE
     1 1VV         1 TEMP              0 ****  ****    0 ROOT
