@<TRIPOS>MOLECULE
1VW
   61    64     1     0     0
SMALL
bcc


@<TRIPOS>ATOM
      1 C5          1.2550   -2.0480   -0.6280 c3        1 1VW     -0.082400
      2 C6          2.6320   -2.0460    0.0040 c3        1 1VW     -0.078400
      3 C11        -0.7330   -1.3810    2.6210 cc        1 1VW      0.374800
      4 C7          2.7350   -0.9990    1.0920 c3        1 1VW     -0.083400
      5 C8          1.6730   -1.2030    2.1510 c3        1 1VW     -0.075400
      6 C9          0.2730   -1.1800    1.5370 c3        1 1VW     -0.077000
      7 C3          0.1720   -2.2250    0.4270 c3        1 1VW     -0.131700
      8 C2         -1.2160   -2.3030   -0.1940 c         1 1VW      0.658100
      9 N12        -1.6360   -2.4500    2.7720 na        1 1VW     -0.170400
     10 N13        -2.3440   -2.2400    3.8880 nc        1 1VW     -0.197800
     11 N14        -1.9290   -1.1440    4.4150 nd        1 1VW     -0.056000
     12 N15        -0.9610   -0.5730    3.7070 nd        1 1VW     -0.384000
     13 N16        -1.8230   -1.2800   -0.8850 n         1 1VW     -0.538900
     14 C17        -1.2290   -0.0740   -1.3780 c3        1 1VW      0.130200
     15 C18        -0.7830   -0.0720   -2.8080 c2        1 1VW     -0.205300
     16 C19        -1.0070   -1.0240   -3.6730 c1        1 1VW     -0.043900
     17 C20        -0.6250   -5.0970   -3.4970 c3        1 1VW     -0.028000
     18 C21        -1.8460   -5.0640   -4.3390 c2        1 1VW     -0.127200
     19 C22        -2.1810   -4.0860   -5.1870 ce        1 1VW     -0.157000
     20 C23        -1.4500   -2.8540   -5.4250 ce        1 1VW     -0.096100
     21 C24        -1.2180   -1.9320   -4.5240 c1        1 1VW     -0.048900
     22 C25        -0.8970   -5.6510   -2.1510 c2        1 1VW     -0.155200
     23 C27        -0.0570   -6.3830   -1.4000 c2        1 1VW     -0.052400
     24 N28         1.2520   -6.7800   -1.7180 n         1 1VW     -0.436600
     25 C29         1.7430   -8.0720   -1.4100 c         1 1VW      0.719500
     26 O30         1.0870   -8.9730   -0.8840 o         1 1VW     -0.568500
     27 C31         3.2280   -8.1630   -1.7970 c3        1 1VW     -0.077300
     28 C32         3.5340   -9.2860   -2.7550 c2        1 1VW     -0.137200
     29 C33         4.3620   -9.1450   -3.8140 ce        1 1VW     -0.135000
     30 C34         5.1190   -7.8810   -3.9380 ce        1 1VW     -0.145100
     31 C35         4.4350   -6.8880   -3.3840 c1        1 1VW      0.085200
     32 C36         3.4420   -6.8310   -2.5180 ce        1 1VW     -0.245500
     33 C37         2.2520   -5.9760   -2.3400 c         1 1VW      0.739700
     34 O38         2.1190   -4.7820   -2.6250 o         1 1VW     -0.572500
     35 H1          0.3430   -3.2410    0.8990 hc        1 1VW      0.085700
     36 H2          1.1070   -1.0940   -1.1960 hc        1 1VW      0.065700
     37 H3          1.1870   -2.8920   -1.3680 hc        1 1VW      0.065700
     38 H4          3.3990   -1.8480   -0.7890 hc        1 1VW      0.049700
     39 H5          2.8490   -3.0580    0.4360 hc        1 1VW      0.049700
     40 H6          2.6280    0.0240    0.6430 hc        1 1VW      0.046700
     41 H7          3.7480   -1.0500    1.5710 hc        1 1VW      0.046700
     42 H8          1.7500   -0.3950    2.9250 hc        1 1VW      0.061200
     43 H9          1.8380   -2.1860    2.6660 hc        1 1VW      0.061200
     44 H10         0.0940   -0.1510    1.1090 hc        1 1VW      0.083700
     45 H11        -1.8160   -3.2130    2.1480 hn        1 1VW      0.359700
     46 H12        -2.7000   -1.5200   -1.3050 hn        1 1VW      0.321500
     47 H13        -0.3490    0.2180   -0.7350 h1        1 1VW      0.066200
     48 H14        -2.0060    0.7450   -1.2700 h1        1 1VW      0.066200
     49 H15        -0.2430    0.8440   -3.1070 ha        1 1VW      0.148000
     50 H16         0.1500   -5.7150   -4.0340 hc        1 1VW      0.070700
     51 H17        -2.4890   -5.9580   -4.2590 ha        1 1VW      0.128000
     52 H18        -3.0880   -4.1870   -5.8130 ha        1 1VW      0.133000
     53 H19        -1.1060   -2.7010   -6.4670 ha        1 1VW      0.146000
     54 H20        -0.1820   -4.0660   -3.3830 hc        1 1VW      0.070700
     55 H21        -1.8780   -5.3880   -1.7140 ha        1 1VW      0.158000
     56 H22        -0.3820   -6.7790   -0.4150 h4        1 1VW      0.155000
     57 H23         3.8320   -8.2960   -0.8600 hc        1 1VW      0.115700
     58 H24         3.0580  -10.2460   -2.5050 ha        1 1VW      0.164000
     59 H25         4.5770   -9.9560   -4.5210 ha        1 1VW      0.155000
     60 H26         6.1330   -7.8690   -4.3440 ha        1 1VW      0.174000
     61 O1         -1.8900   -3.3480   -0.0090 o         1 1VW     -0.652100
@<TRIPOS>BOND
     1    1    2 1   
     2    1    7 1   
     3    1   36 1   
     4    1   37 1   
     5    2    4 1   
     6    2   38 1   
     7    2   39 1   
     8    3    6 1   
     9    3    9 1   
    10    3   12 2   
    11    4    5 1   
    12    4   40 1   
    13    4   41 1   
    14    5    6 1   
    15    5   42 1   
    16    5   43 1   
    17    6    7 1   
    18    6   44 1   
    19    7    8 1   
    20    7   35 1   
    21    8   13 1   
    22    8   61 2   
    23    9   10 1   
    24    9   45 1   
    25   10   11 2   
    26   11   12 1   
    27   13   14 1   
    28   13   46 1   
    29   14   15 1   
    30   14   47 1   
    31   14   48 1   
    32   15   16 2   
    33   15   49 1   
    34   16   21 2   
    35   17   18 1   
    36   17   22 1   
    37   17   50 1   
    38   17   54 1   
    39   18   19 2   
    40   18   51 1   
    41   19   20 1   
    42   19   52 1   
    43   20   21 2   
    44   20   53 1   
    45   22   23 2   
    46   22   55 1   
    47   23   24 1   
    48   23   56 1   
    49   24   25 1   
    50   24   33 1   
    51   25   26 2   
    52   25   27 1   
    53   27   28 1   
    54   27   32 1   
    55   27   57 1   
    56   28   29 2   
    57   28   58 1   
    58   29   30 1   
    59   29   59 1   
    60   30   31 2   
    61   30   60 1   
    62   31   32 2   
    63   32   33 1   
    64   33   34 2   
@<TRIPOS>SUBSTRUCTURE
     1 1VW         1 TEMP              0 ****  ****    0 ROOT
