@<TRIPOS>MOLECULE
1VX
   62    66     1     0     0
SMALL
bcc


@<TRIPOS>ATOM
      1 C4         -0.1810    0.3240   -0.1940 c3        1 1VX     -0.055000
      2 C5          1.2960    0.0980   -0.0590 c1        1 1VX     -0.276000
      3 C6          1.9570    0.1530    1.1170 c2        1 1VX     -0.320000
      4 C11         3.4460   -0.0340    1.1430 c3        1 1VX      0.034000
      5 C7          1.3210    0.4390    2.4430 c2        1 1VX      0.089000
      6 C8          2.0290    0.4920    3.5870 c2        1 1VX     -0.338000
      7 C9          3.4890    0.1930    3.6020 c3        1 1VX     -0.063000
      8 C13         4.0780    1.3610    0.8870 c3        1 1VX     -0.041000
      9 C3         -0.4050    1.1210    1.0440 c2        1 1VX     -0.171000
     10 C2         -0.1220    0.4540    2.2270 c2        1 1VX     -0.243000
     11 N10         3.8600   -0.6860    2.4450 n4        1 1VX     -0.076000
     12 N14         5.5020    1.4260    1.0150 n         1 1VX     -0.358000
     13 C15         6.3650    1.0690   -0.1100 c3        1 1VX     -0.043000
     14 C16         7.6900    1.7120    0.2250 c2        1 1VX      0.003000
     15 C17         8.9790    1.4560   -0.4210 c3        1 1VX     -0.161000
     16 C18        10.0650    2.2940    0.1420 c2        1 1VX     -0.085000
     17 C19         9.8720    3.1420    1.1790 c2        1 1VX     -0.215000
     18 C20         8.6000    3.3540    1.8250 c1        1 1VX     -0.011000
     19 C21         7.5520    2.5400    1.3210 c2        1 1VX     -0.206000
     20 C22         6.1440    2.4210    1.8200 c2        1 1VX      0.354000
     21 O23         5.5860    2.9920    2.7610 o         1 1VX     -0.305000
     22 C24         5.2960   -1.1790    2.4570 c2        1 1VX      0.224000
     23 O25         6.0470   -0.6050    3.2320 o         1 1VX     -0.233000
     24 C26         5.6730   -2.3350    1.4890 c3        1 1VX      0.059000
     25 C28         4.5370   -3.3250    1.2560 c3        1 1VX     -0.164000
     26 C29         4.3440   -4.2550    2.4340 c3        1 1VX     -0.146000
     27 C30         5.6170   -5.0380    2.6820 c3        1 1VX     -0.152000
     28 C31         6.7980   -4.1110    2.9090 c3        1 1VX     -0.028000
     29 C32         6.8820   -3.0060    1.9360 c2        1 1VX     -0.579000
     30 C34         8.1550   -2.5980    1.4860 c2        1 1VX      0.382000
     31 O35         9.2490   -3.1930    1.4560 o         1 1VX     -0.440000
     32 O36         8.2850   -1.3120    0.9280 oh        1 1VX     -0.402000
     33 H1         -0.7130   -0.6600   -0.2180 hc        1 1VX      0.083500
     34 H2         -0.4200    0.8860   -1.1280 hc        1 1VX      0.083500
     35 H3          3.7710   -0.7400    0.3210 hx        1 1VX      0.121000
     36 H4          3.2710   -1.5280    2.5220 hn        1 1VX      0.235000
     37 H5          1.5890    0.7560    4.5540 ha        1 1VX      0.137000
     38 H6          3.7780   -0.3510    4.5450 hx        1 1VX      0.124500
     39 H7          4.1090    1.1350    3.5410 hx        1 1VX      0.124500
     40 H8          3.6180    2.1000    1.6070 h1        1 1VX      0.123500
     41 H9          3.7490    1.6350   -0.1590 h1        1 1VX      0.123500
     42 H10        -0.0880    2.1760    0.9540 ha        1 1VX      0.091000
     43 H11        -1.6540   -0.1730    3.5550 hc        1 1VX      0.056667
     44 H12        -0.3430   -1.3960    3.3080 hc        1 1VX      0.056667
     45 H13        -1.5770   -1.1050    2.0050 hc        1 1VX      0.056667
     46 H14         6.4680   -0.0490   -0.1910 h1        1 1VX      0.121000
     47 H15         5.9670    1.4620   -1.0870 h1        1 1VX      0.121000
     48 H16         9.2350    0.3580   -0.2330 hc        1 1VX      0.170000
     49 H17         8.9140    1.5870   -1.5360 hc        1 1VX      0.170000
     50 H18        11.0500    2.1660   -0.3350 ha        1 1VX      0.126000
     51 H19        10.7140    3.7300    1.5810 ha        1 1VX      0.140000
     52 H20         7.7070   -0.7260    1.4320 ho        1 1VX      0.202000
     53 H21         5.8540   -1.7820    0.5180 hc        1 1VX      0.088000
     54 H22         3.5740   -2.8270    0.9800 hc        1 1VX      0.084500
     55 H23         4.8370   -3.9400    0.3630 hc        1 1VX      0.084500
     56 H24         3.4940   -4.9560    2.2250 hc        1 1VX      0.061500
     57 H25         4.0770   -3.6650    3.3490 hc        1 1VX      0.061500
     58 H26         5.4810   -5.7050    3.5730 hc        1 1VX      0.063500
     59 H27         5.8230   -5.6950    1.7970 hc        1 1VX      0.063500
     60 H28         6.7120   -3.6890    3.9520 hc        1 1VX      0.057000
     61 H29         7.7470   -4.7110    2.8780 hc        1 1VX      0.057000
     62 C1         -0.9560   -0.6130    2.7960 c3        1 1VX     -0.123000
@<TRIPOS>BOND
     1    1    2 1   
     2    1    9 1   
     3    1   33 1   
     4    1   34 1   
     5    2    3 1   
     6    3    4 1   
     7    3    5 1   
     8    4    8 1   
     9    4   11 1   
    10    4   35 1   
    11    5    6 1   
    12    5   10 1   
    13    6    7 1   
    14    6   37 1   
    15    7   11 1   
    16    7   38 1   
    17    7   39 1   
    18    8   12 1   
    19    8   40 1   
    20    8   41 1   
    21    9   10 1   
    22    9   42 1   
    23   10   62 1   
    24   11   22 1   
    25   11   36 1   
    26   12   13 1   
    27   12   20 1   
    28   13   14 1   
    29   13   46 1   
    30   13   47 1   
    31   14   15 1   
    32   14   19 1   
    33   15   16 1   
    34   15   48 1   
    35   15   49 1   
    36   16   17 1   
    37   16   50 1   
    38   17   18 1   
    39   17   51 1   
    40   18   19 1   
    41   19   20 1   
    42   20   21 1   
    43   22   23 1   
    44   22   24 1   
    45   24   25 1   
    46   24   29 1   
    47   24   53 1   
    48   25   26 1   
    49   25   54 1   
    50   25   55 1   
    51   26   27 1   
    52   26   56 1   
    53   26   57 1   
    54   27   28 1   
    55   27   58 1   
    56   27   59 1   
    57   28   29 1   
    58   28   60 1   
    59   28   61 1   
    60   29   30 1   
    61   30   31 1   
    62   30   32 1   
    63   32   52 1   
    64   43   62 1   
    65   44   62 1   
    66   45   62 1   
@<TRIPOS>SUBSTRUCTURE
     1 1VX         1 TEMP              0 ****  ****    0 ROOT
