@<TRIPOS>MOLECULE
1VX
   62    65     1     0     0
SMALL
bcc


@<TRIPOS>ATOM
      1 C4          0.5090   -0.5790   -0.0440 c2        1 1VX     -0.121000
      2 C5          1.6840    0.0020    0.1340 c1        1 1VX     -0.193000
      3 C6          2.4090    0.3120    1.2110 c2        1 1VX     -0.018000
      4 C11         3.9070    0.4340    1.2020 c3        1 1VX      0.054000
      5 C7          1.5530    0.3550    2.4170 c2        1 1VX     -0.060000
      6 C8          1.9090    1.1950    3.5770 c3        1 1VX     -0.186000
      7 C9          4.7580    0.8500    3.3990 c1        1 1VX     -0.170000
      8 C13         4.2310    1.9140    0.8260 c3        1 1VX     -0.001000
      9 C3          0.0660   -1.2980    1.2010 c3        1 1VX     -0.106000
     10 C2          0.4940   -0.5070    2.4200 c2        1 1VX     -0.110000
     11 N10         4.5410   -0.0220    2.4400 n         1 1VX     -0.213000
     12 N14         5.5870    2.2350    0.5170 n         1 1VX     -0.350000
     13 C15         6.5160    1.2800   -0.0750 c3        1 1VX     -0.034000
     14 C16         7.8830    1.8330    0.2490 c2        1 1VX      0.011000
     15 C17         9.1720    1.2160   -0.0670 c3        1 1VX     -0.169000
     16 C18        10.3150    2.0480    0.3810 c2        1 1VX     -0.085000
     17 C19        10.1530    3.2200    1.0400 c2        1 1VX     -0.220000
     18 C20         8.8720    3.8060    1.3470 c1        1 1VX     -0.024000
     19 C21         7.7630    3.0160    0.9510 c2        1 1VX     -0.214000
     20 C22         6.3020    3.2790    1.1770 c2        1 1VX      0.364000
     21 O23         5.7550    4.2230    1.7530 o         1 1VX     -0.309000
     22 C24         4.7490   -1.4690    2.5940 c2        1 1VX      0.236000
     23 O25         4.4790   -1.9240    3.7090 o         1 1VX     -0.298000
     24 C26         5.3230   -2.2890    1.4270 c3        1 1VX      0.047000
     25 C28         4.1840   -3.1210    0.8360 c3        1 1VX     -0.141000
     26 C29         3.9050   -4.3740    1.6350 c3        1 1VX     -0.147000
     27 C30         5.1600   -5.2120    1.7550 c3        1 1VX     -0.147000
     28 C31         6.2620   -4.4200    2.4400 c3        1 1VX     -0.024000
     29 C32         6.4760   -3.0920    1.8360 c2        1 1VX     -0.578000
     30 C34         7.7890   -2.6340    1.6590 c2        1 1VX      0.367000
     31 O35         8.8890   -3.2270    1.6570 o         1 1VX     -0.466000
     32 O36         7.9970   -1.2590    1.4120 oh        1 1VX     -0.407000
     33 H1          0.4830   -2.3370    1.2820 hc        1 1VX      0.106000
     34 H2         -0.1560   -0.4920   -0.9040 ha        1 1VX      0.141000
     35 H3          4.2720   -0.2290    0.3560 h1        1 1VX      0.113000
     36 H4          2.4020    0.5730    4.3690 hc        1 1VX      0.097000
     37 H5          0.9900    1.6570    4.0200 hc        1 1VX      0.097000
     38 H6          2.6220    2.0090    3.2880 hc        1 1VX      0.097000
     39 H7          5.1830    0.4330    4.3370 ha        1 1VX      0.059000
     40 H8          3.8980    2.5860    1.6710 h1        1 1VX      0.112500
     41 H9          3.6070    2.1340   -0.0910 h1        1 1VX      0.112500
     42 H10        -1.0530   -1.3730    1.1780 hc        1 1VX      0.106000
     43 H11        -1.0580    0.0740    3.7710 hc        1 1VX      0.082000
     44 H12        -0.8580   -1.7190    3.5720 hc        1 1VX      0.082000
     45 H13         0.3450   -0.7720    4.5460 hc        1 1VX      0.082000
     46 H14         6.4120    0.2390    0.3410 h1        1 1VX      0.120500
     47 H15         6.3560    1.2350   -1.1880 h1        1 1VX      0.120500
     48 H16         9.2200    0.2050    0.4640 hc        1 1VX      0.178500
     49 H17         9.2550    0.9920   -1.1660 hc        1 1VX      0.178500
     50 H18        11.3110    1.6360    0.1520 ha        1 1VX      0.125000
     51 H19        11.0320    3.7950    1.3730 ha        1 1VX      0.135000
     52 H20         7.3310   -0.7730    1.9070 ho        1 1VX      0.190000
     53 H21         5.6590   -1.5690    0.6240 hc        1 1VX      0.062000
     54 H22         3.2540   -2.4960    0.7650 hc        1 1VX      0.067000
     55 H23         4.4810   -3.4090   -0.2070 hc        1 1VX      0.067000
     56 H24         3.0900   -4.9630    1.1400 hc        1 1VX      0.065500
     57 H25         3.5510   -4.0870    2.6620 hc        1 1VX      0.065500
     58 H26         5.5010   -5.5260    0.7340 hc        1 1VX      0.055500
     59 H27         4.9380   -6.1420    2.3400 hc        1 1VX      0.055500
     60 H28         5.9780   -4.3000    3.5250 hc        1 1VX      0.057500
     61 H29         7.2160   -5.0110    2.4080 hc        1 1VX      0.057500
     62 C1         -0.3090   -0.7480    3.6380 c3        1 1VX     -0.176000
@<TRIPOS>BOND
     1    1    2 1   
     2    1    9 1   
     3    1   34 1   
     4    2    3 1   
     5    3    4 1   
     6    3    5 1   
     7    4    8 1   
     8    4   11 1   
     9    4   35 1   
    10    5    6 1   
    11    5   10 1   
    12    6   36 1   
    13    6   37 1   
    14    6   38 1   
    15    7   11 1   
    16    7   39 1   
    17    8   12 1   
    18    8   40 1   
    19    8   41 1   
    20    9   10 1   
    21    9   33 1   
    22    9   42 1   
    23   10   62 1   
    24   11   22 1   
    25   12   13 1   
    26   12   20 1   
    27   13   14 1   
    28   13   46 1   
    29   13   47 1   
    30   14   15 1   
    31   14   19 1   
    32   15   16 1   
    33   15   48 1   
    34   15   49 1   
    35   16   17 1   
    36   16   50 1   
    37   17   18 1   
    38   17   51 1   
    39   18   19 1   
    40   19   20 1   
    41   20   21 1   
    42   22   23 1   
    43   22   24 1   
    44   24   25 1   
    45   24   29 1   
    46   24   53 1   
    47   25   26 1   
    48   25   54 1   
    49   25   55 1   
    50   26   27 1   
    51   26   56 1   
    52   26   57 1   
    53   27   28 1   
    54   27   58 1   
    55   27   59 1   
    56   28   29 1   
    57   28   60 1   
    58   28   61 1   
    59   29   30 1   
    60   30   31 1   
    61   30   32 1   
    62   32   52 1   
    63   43   62 1   
    64   44   62 1   
    65   45   62 1   
@<TRIPOS>SUBSTRUCTURE
     1 1VX         1 TEMP              0 ****  ****    0 ROOT
