@<TRIPOS>MOLECULE
1VY
   39    40     1     0     0
SMALL
bcc


@<TRIPOS>ATOM
      1 O7         -0.0050   -0.4570    0.0350 oh        1 1VY     -0.476100
      2 C7          1.3510   -0.2720    0.1080 cc        1 1VY      0.177500
      3 C6          2.0740   -0.3350    1.3220 cd        1 1VY      0.198600
      4 C9          1.3460   -0.5760    2.5990 c3        1 1VY     -0.132400
      5 N5          3.4320   -0.1750    1.3370 nd        1 1VY     -0.481000
      6 C4A         4.0520    0.0340    0.1910 cc        1 1VY      0.230800
      7 C4          5.5420    0.2100    0.1730 c         1 1VY      0.620000
      8 O4          6.2540    0.1580    1.1870 o         1 1VY     -0.583500
      9 N3          6.1250    0.4400   -1.0710 ns        1 1VY     -0.614500
     10 C2          5.3890    0.5160   -2.2790 c         1 1VY      0.850900
     11 O2          6.0150    0.7330   -3.3330 o         1 1VY     -0.593500
     12 N1          3.9820    0.3550   -2.2770 nd        1 1VY     -0.421400
     13 C8A         3.3680    0.1200   -1.1280 cc        1 1VY      0.086400
     14 N8          1.9640   -0.0750   -1.1140 na        1 1VY     -0.075100
     15 C1'         1.1800    0.0230   -2.3380 c3        1 1VY      0.034300
     16 C2'         0.9620    1.4620   -2.8450 c3        1 1VY      0.147100
     17 O2'         0.3000    2.1790   -1.8170 oh        1 1VY     -0.612800
     18 C3'         0.0650    1.4440   -4.1040 c3        1 1VY      0.110100
     19 O3'         0.3440    0.2500   -4.8160 oh        1 1VY     -0.590800
     20 C4'         0.3640    2.6710   -4.9860 c3        1 1VY      0.107100
     21 O4'         0.3370    3.8050   -4.1330 oh        1 1VY     -0.617800
     22 C5'        -0.6860    2.8200   -6.0940 c3        1 1VY      0.090400
     23 O5'        -0.3680    4.0240   -6.7700 oh        1 1VY     -0.606800
     24 H1          0.7640   -1.5290    2.5350 hc        1 1VY      0.055367
     25 H2          2.0530   -0.6570    3.4630 hc        1 1VY      0.055367
     26 H3          0.6430    0.2700    2.8060 hc        1 1VY      0.055367
     27 H5          7.1140    0.5580   -1.1170 hn        1 1VY      0.346500
     28 H6          0.1730   -0.4510   -2.1600 h1        1 1VY      0.103700
     29 H7          1.7120   -0.5520   -3.1510 h1        1 1VY      0.103700
     30 H8          1.9430    1.9510   -3.0950 h1        1 1VY      0.081700
     31 H9          0.2630    3.1040   -2.0960 ho        1 1VY      0.433000
     32 H10        -1.0150    1.4610   -3.7840 h1        1 1VY      0.057700
     33 H11        -0.2320    0.2400   -5.5910 ho        1 1VY      0.407000
     34 H12         1.3850    2.5690   -5.4490 h1        1 1VY      0.074700
     35 H13         0.4640    4.5800   -4.6970 ho        1 1VY      0.436000
     36 H14        -0.6310    1.9530   -6.8040 h1        1 1VY      0.034200
     37 H15        -1.7160    2.8830   -5.6530 h1        1 1VY      0.034200
     38 H16        -1.0540    4.1640   -7.4330 ho        1 1VY      0.414000
     39 H17        -0.3660   -0.3770    0.9350 ho        1 1VY      0.460000
@<TRIPOS>BOND
     1    1    2 1   
     2    1   39 1   
     3    2    3 2   
     4    2   14 1   
     5    3    4 1   
     6    3    5 1   
     7    4   24 1   
     8    4   25 1   
     9    4   26 1   
    10    5    6 2   
    11    6    7 1   
    12    6   13 1   
    13    7    8 2   
    14    7    9 1   
    15    9   10 1   
    16    9   27 1   
    17   10   11 2   
    18   10   12 1   
    19   12   13 2   
    20   13   14 1   
    21   14   15 1   
    22   15   16 1   
    23   15   28 1   
    24   15   29 1   
    25   16   17 1   
    26   16   18 1   
    27   16   30 1   
    28   17   31 1   
    29   18   19 1   
    30   18   20 1   
    31   18   32 1   
    32   19   33 1   
    33   20   21 1   
    34   20   22 1   
    35   20   34 1   
    36   21   35 1   
    37   22   23 1   
    38   22   36 1   
    39   22   37 1   
    40   23   38 1   
@<TRIPOS>SUBSTRUCTURE
     1 1VY         1 TEMP              0 ****  ****    0 ROOT
