@<TRIPOS>MOLECULE
1VY
   39    40     1     0     0
SMALL
bcc


@<TRIPOS>ATOM
      1 O7         -0.0020   -0.4590    0.0360 oh        1 1VY     -0.476100
      2 C7          1.3550   -0.2750    0.1070 cc        1 1VY      0.177500
      3 C6          2.0800   -0.3410    1.3190 cd        1 1VY      0.198600
      4 C9          1.3540   -0.5830    2.5980 c3        1 1VY     -0.132400
      5 N5          3.4380   -0.1820    1.3320 nd        1 1VY     -0.481000
      6 C4A         4.0560    0.0290    0.1850 cc        1 1VY      0.230800
      7 C4          5.5460    0.2030    0.1640 c         1 1VY      0.620000
      8 O4          6.2610    0.1480    1.1760 o         1 1VY     -0.583500
      9 N3          6.1270    0.4340   -1.0810 n         1 1VY     -0.614500
     10 C2          5.3880    0.5130   -2.2870 c         1 1VY      0.850900
     11 O2          6.0130    0.7320   -3.3420 o         1 1VY     -0.593500
     12 N1          3.9810    0.3530   -2.2830 nd        1 1VY     -0.421400
     13 C8A         3.3690    0.1180   -1.1330 cc        1 1VY      0.086400
     14 N8          1.9650   -0.0760   -1.1160 na        1 1VY     -0.075100
     15 C1'         1.1780    0.0240   -2.3380 c3        1 1VY      0.034300
     16 C2'         0.9610    1.4640   -2.8420 c3        1 1VY      0.147100
     17 O2'         0.3020    2.1800   -1.8120 oh        1 1VY     -0.612800
     18 C3'         0.0610    1.4480   -4.1000 c3        1 1VY      0.110100
     19 O3'         0.3370    0.2560   -4.8150 oh        1 1VY     -0.590800
     20 C4'         0.3590    2.6770   -4.9810 c3        1 1VY      0.107100
     21 O4'         0.3360    3.8090   -4.1260 oh        1 1VY     -0.617800
     22 C5'        -0.6930    2.8280   -6.0860 c3        1 1VY      0.090400
     23 O5'        -0.3750    4.0330   -6.7610 oh        1 1VY     -0.606800
     24 H1          0.6520    0.2630    2.8070 hc        1 1VY      0.055367
     25 H2          0.7720   -1.5360    2.5320 hc        1 1VY      0.055367
     26 H3          2.0630   -0.6660    3.4590 hc        1 1VY      0.055367
     27 H5          7.1160    0.5520   -1.1290 hn        1 1VY      0.346500
     28 H6          0.1720   -0.4490   -2.1590 h1        1 1VY      0.103700
     29 H7          1.7080   -0.5510   -3.1540 h1        1 1VY      0.103700
     30 H8          1.9420    1.9530   -3.0950 h1        1 1VY      0.081700
     31 H9          0.2650    3.1060   -2.0900 ho        1 1VY      0.433000
     32 H10        -1.0180    1.4660   -3.7770 h1        1 1VY      0.057700
     33 H11        -0.2390    0.2470   -5.5880 ho        1 1VY      0.407000
     34 H12         1.3800    2.5740   -5.4460 h1        1 1VY      0.074700
     35 H13         0.4620    4.5850   -4.6890 ho        1 1VY      0.436000
     36 H14        -1.7220    2.8910   -5.6430 h1        1 1VY      0.034200
     37 H15        -0.6400    1.9620   -6.7980 h1        1 1VY      0.034200
     38 H16        -1.0620    4.1740   -7.4230 ho        1 1VY      0.414000
     39 H17        -0.3610   -0.3800    0.9370 ho        1 1VY      0.460000
@<TRIPOS>BOND
     1    1    2 1   
     2    1   39 1   
     3    2    3 2   
     4    2   14 1   
     5    3    4 1   
     6    3    5 1   
     7    4   24 1   
     8    4   25 1   
     9    4   26 1   
    10    5    6 2   
    11    6    7 1   
    12    6   13 1   
    13    7    8 2   
    14    7    9 1   
    15    9   10 1   
    16    9   27 1   
    17   10   11 2   
    18   10   12 1   
    19   12   13 2   
    20   13   14 1   
    21   14   15 1   
    22   15   16 1   
    23   15   28 1   
    24   15   29 1   
    25   16   17 1   
    26   16   18 1   
    27   16   30 1   
    28   17   31 1   
    29   18   19 1   
    30   18   20 1   
    31   18   32 1   
    32   19   33 1   
    33   20   21 1   
    34   20   22 1   
    35   20   34 1   
    36   21   35 1   
    37   22   23 1   
    38   22   36 1   
    39   22   37 1   
    40   23   38 1   
@<TRIPOS>SUBSTRUCTURE
     1 1VY         1 TEMP              0 ****  ****    0 ROOT
