@<TRIPOS>MOLECULE
1VY
   39    36     1     0     0
SMALL
bcc


@<TRIPOS>ATOM
      1 O7         -2.1170    0.4690    2.1430 oh        1 1VY     -0.240000
      2 C7         -0.6860    0.5820    2.2740 c1        1 1VY      0.201000
      3 C6         -0.0530    0.5810    3.6420 c1        1 1VY     -0.217000
      4 C9         -0.9190    0.4880    4.8710 c3        1 1VY     -0.157000
      5 N5          1.3540    0.7600    3.7750 n1        1 1VY      0.042000
      6 C4A         2.1770    0.9430    2.5970 c1        1 1VY     -0.174000
      7 C4          3.6530    1.1320    2.7380 c1        1 1VY      0.367000
      8 O4          4.1570    1.1980    3.8490 o         1 1VY     -0.304000
      9 N3          4.4670    1.3140    1.5710 n2        1 1VY     -0.393000
     10 C2          3.8480    1.3170    0.2310 c2        1 1VY      0.371000
     11 O2          4.5390    1.5210   -0.7630 o         1 1VY     -0.312000
     12 N1          2.3830    1.1330    0.0880 n2        1 1VY     -0.279000
     13 C8A         1.5610    0.9400    1.2560 c2        1 1VY      0.184000
     14 N8          0.1240    0.7650    1.1150 n2        1 1VY     -0.146000
     15 C1'        -0.4960    0.9280   -0.1800 c3        1 1VY     -0.070000
     16 C2'        -0.7590   -0.4690   -0.8130 c3        1 1VY      0.000000
     17 O2'         0.4450   -1.1030   -1.0490 oh        1 1VY     -0.317000
     18 C3'        -1.4950   -0.2950   -2.1010 c3        1 1VY     -0.005000
     19 O3'        -2.8640   -0.2790   -1.8540 oh        1 1VY     -0.316000
     20 C4'        -1.1550   -1.4700   -3.0590 c3        1 1VY      0.004000
     21 O4'         0.1740   -1.3580   -3.4810 oh        1 1VY     -0.332000
     22 C5'        -2.0620   -1.4250   -4.2510 c3        1 1VY     -0.054000
     23 O5'        -1.4470   -2.1000   -5.3340 oh        1 1VY     -0.339000
     24 H1         -1.5030    1.2760    4.9190 hc        1 1VY      0.095333
     25 H2         -1.4680   -0.3250    4.8240 hc        1 1VY      0.095333
     26 H3         -0.3550    0.4540    5.6650 hc        1 1VY      0.095333
     27 H5          5.3870    1.3310    1.6510 hn        1 1VY      0.262000
     28 H6         -1.3470    1.4040   -0.0790 h1        1 1VY      0.137000
     29 H7          0.1020    1.4470   -0.7670 h1        1 1VY      0.137000
     30 H8         -1.3010   -1.0140   -0.1960 h1        1 1VY      0.117000
     31 H9          0.4580   -1.9020   -0.6110 ho        1 1VY      0.241000
     32 H10        -1.2290    0.5500   -2.5150 h1        1 1VY      0.136000
     33 H11        -3.1420   -1.1120   -1.6530 ho        1 1VY      0.203000
     34 H12        -1.2770   -2.3160   -2.5910 h1        1 1VY      0.103000
     35 H13         0.4660   -2.1610   -3.7680 ho        1 1VY      0.231000
     36 H14        -2.9080   -1.8620   -4.0340 h1        1 1VY      0.081500
     37 H15        -2.2290   -0.4980   -4.4980 h1        1 1VY      0.081500
     38 H16        -1.9820   -2.0600   -6.0550 ho        1 1VY      0.211000
     39 H17        -2.5030    1.2150    2.4440 ho        1 1VY      0.260000
@<TRIPOS>BOND
     1    1    2 1   
     2    1   39 1   
     3    2    3 1   
     4    3    4 1   
     5    4   24 1   
     6    4   25 1   
     7    4   26 1   
     8    5    6 1   
     9    6   13 1   
    10    7    8 1   
    11    9   10 1   
    12    9   27 1   
    13   10   11 1   
    14   10   12 1   
    15   12   13 1   
    16   13   14 1   
    17   14   15 1   
    18   15   16 1   
    19   15   28 1   
    20   15   29 1   
    21   16   17 1   
    22   16   18 1   
    23   16   30 1   
    24   17   31 1   
    25   18   19 1   
    26   18   20 1   
    27   18   32 1   
    28   19   33 1   
    29   20   21 1   
    30   20   22 1   
    31   20   34 1   
    32   21   35 1   
    33   22   23 1   
    34   22   36 1   
    35   22   37 1   
    36   23   38 1   
@<TRIPOS>SUBSTRUCTURE
     1 1VY         1 TEMP              0 ****  ****    0 ROOT
