@<TRIPOS>MOLECULE
1VY
   39    40     1     0     0
SMALL
bcc


@<TRIPOS>ATOM
      1 O7          0.5370   -3.1860   -0.8470 oh        1 1VY     -0.480100
      2 C7          1.3350   -2.1360   -0.4770 cc        1 1VY      0.172500
      3 C6          2.6600   -2.2930   -0.0100 cd        1 1VY      0.203600
      4 C9          3.2350   -3.6610    0.1280 c3        1 1VY     -0.134400
      5 N5          3.4210   -1.2060    0.3200 nd        1 1VY     -0.480000
      6 C4A         2.8860   -0.0040    0.1990 cc        1 1VY      0.233800
      7 C4          3.6940    1.2110    0.5470 c         1 1VY      0.621000
      8 O4          4.8760    1.1690    0.9200 o         1 1VY     -0.578500
      9 N3          3.0490    2.4400    0.4310 n         1 1VY     -0.613500
     10 C2          1.7050    2.5820    0.0090 c         1 1VY      0.851900
     11 O2          1.2200    3.7280   -0.0380 o         1 1VY     -0.595500
     12 N1          0.9370    1.4460   -0.3450 nd        1 1VY     -0.433400
     13 C8A         1.4950    0.2480   -0.2650 cc        1 1VY      0.088400
     14 N8          0.7490   -0.8960   -0.6430 na        1 1VY     -0.075100
     15 C1'        -0.6210   -0.7640   -1.1160 c3        1 1VY     -0.003700
     16 C2'        -1.6450   -0.4370   -0.0080 c3        1 1VY      0.100100
     17 O2'        -1.8550   -1.5650    0.8140 oh        1 1VY     -0.592800
     18 C3'        -2.9330    0.0680   -0.6860 c3        1 1VY      0.111100
     19 O3'        -2.7090    1.2870   -1.3610 oh        1 1VY     -0.585800
     20 C4'        -4.0630    0.1900    0.3530 c3        1 1VY      0.114100
     21 O4'        -4.5780   -1.1250    0.5130 oh        1 1VY     -0.616800
     22 C5'        -5.1590    1.1390   -0.1390 c3        1 1VY      0.099400
     23 O5'        -6.1720    1.1100    0.8550 oh        1 1VY     -0.615800
     24 H1          3.2120   -4.1880   -0.8590 hc        1 1VY      0.057033
     25 H2          4.2980   -3.6230    0.4760 hc        1 1VY      0.057033
     26 H3          2.6470   -4.2520    0.8740 hc        1 1VY      0.057033
     27 H5          3.5580    3.2680    0.6600 hn        1 1VY      0.348500
     28 H6         -0.6520    0.0680   -1.8810 h1        1 1VY      0.097200
     29 H7         -0.9230   -1.7270   -1.6160 h1        1 1VY      0.097200
     30 H8         -1.2490    0.3560    0.6890 h1        1 1VY      0.095700
     31 H9         -2.5940   -2.0750    0.4530 ho        1 1VY      0.426000
     32 H10        -3.2560   -0.6490   -1.4940 h1        1 1VY      0.091700
     33 H11        -2.2650    1.8920   -0.7510 ho        1 1VY      0.422000
     34 H12        -3.6580    0.5540    1.3380 h1        1 1VY      0.060700
     35 H13        -5.3350   -1.0540    1.1110 ho        1 1VY      0.433000
     36 H14        -4.7480    2.1770   -0.2530 h1        1 1VY      0.045700
     37 H15        -5.5660    0.7860   -1.1220 h1        1 1VY      0.045700
     38 H16        -6.8840    1.6810    0.5430 ho        1 1VY      0.413000
     39 H17         0.9830   -4.0100   -0.5840 ho        1 1VY      0.463000
@<TRIPOS>BOND
     1    1    2 1   
     2    1   39 1   
     3    2    3 2   
     4    2   14 1   
     5    3    4 1   
     6    3    5 1   
     7    4   24 1   
     8    4   25 1   
     9    4   26 1   
    10    5    6 2   
    11    6    7 1   
    12    6   13 1   
    13    7    8 2   
    14    7    9 1   
    15    9   10 1   
    16    9   27 1   
    17   10   11 2   
    18   10   12 1   
    19   12   13 2   
    20   13   14 1   
    21   14   15 1   
    22   15   16 1   
    23   15   28 1   
    24   15   29 1   
    25   16   17 1   
    26   16   18 1   
    27   16   30 1   
    28   17   31 1   
    29   18   19 1   
    30   18   20 1   
    31   18   32 1   
    32   19   33 1   
    33   20   21 1   
    34   20   22 1   
    35   20   34 1   
    36   21   35 1   
    37   22   23 1   
    38   22   36 1   
    39   22   37 1   
    40   23   38 1   
@<TRIPOS>SUBSTRUCTURE
     1 1VY         1 TEMP              0 ****  ****    0 ROOT
