@<TRIPOS>MOLECULE
1VY
   39    40     1     0     0
SMALL
bcc


@<TRIPOS>ATOM
      1 O7         -0.0020   -0.4530    0.0400 oh        1 1VY     -0.476100
      2 C7          1.3540   -0.2700    0.1100 cc        1 1VY      0.177500
      3 C6          2.0800   -0.3330    1.3210 cd        1 1VY      0.198600
      4 C9          1.3550   -0.5720    2.6010 c3        1 1VY     -0.132400
      5 N5          3.4380   -0.1750    1.3340 nd        1 1VY     -0.481000
      6 C4A         4.0560    0.0320    0.1850 cc        1 1VY      0.230800
      7 C4          5.5460    0.2050    0.1630 c         1 1VY      0.620000
      8 O4          6.2610    0.1530    1.1750 o         1 1VY     -0.583500
      9 N3          6.1260    0.4330   -1.0820 n         1 1VY     -0.614500
     10 C2          5.3870    0.5100   -2.2880 c         1 1VY      0.850900
     11 O2          6.0110    0.7260   -3.3440 o         1 1VY     -0.593500
     12 N1          3.9800    0.3510   -2.2830 nd        1 1VY     -0.421400
     13 C8A         3.3690    0.1180   -1.1320 cc        1 1VY      0.086400
     14 N8          1.9640   -0.0740   -1.1140 na        1 1VY     -0.075100
     15 C1'         1.1770    0.0230   -2.3360 c3        1 1VY      0.034300
     16 C2'         0.9600    1.4620   -2.8430 c3        1 1VY      0.147100
     17 O2'         0.3020    2.1810   -1.8150 oh        1 1VY     -0.612800
     18 C3'         0.0600    1.4440   -4.1010 c3        1 1VY      0.110100
     19 O3'         0.3350    0.2500   -4.8130 oh        1 1VY     -0.590800
     20 C4'         0.3580    2.6710   -4.9840 c3        1 1VY      0.107100
     21 O4'         0.3360    3.8050   -4.1320 oh        1 1VY     -0.617800
     22 C5'        -0.6950    2.8200   -6.0890 c3        1 1VY      0.090400
     23 O5'        -0.3770    4.0240   -6.7670 oh        1 1VY     -0.606800
     24 H1          2.0650   -0.6540    3.4630 hc        1 1VY      0.055367
     25 H2          0.7720   -1.5240    2.5390 hc        1 1VY      0.055367
     26 H3          0.6540    0.2750    2.8090 hc        1 1VY      0.055367
     27 H5          7.1160    0.5500   -1.1310 hn        1 1VY      0.346500
     28 H6          0.1700   -0.4480   -2.1550 h1        1 1VY      0.103700
     29 H7          1.7060   -0.5530   -3.1510 h1        1 1VY      0.103700
     30 H8          1.9420    1.9500   -3.0970 h1        1 1VY      0.081700
     31 H9          0.2660    3.1070   -2.0940 ho        1 1VY      0.433000
     32 H10        -1.0190    1.4640   -3.7770 h1        1 1VY      0.057700
     33 H11        -0.2430    0.2400   -5.5860 ho        1 1VY      0.407000
     34 H12         1.3780    2.5660   -5.4500 h1        1 1VY      0.074700
     35 H13         0.4630    4.5800   -4.6970 ho        1 1VY      0.436000
     36 H14        -0.6440    1.9530   -6.7990 h1        1 1VY      0.034200
     37 H15        -1.7230    2.8850   -5.6450 h1        1 1VY      0.034200
     38 H16        -1.0640    4.1640   -7.4290 ho        1 1VY      0.414000
     39 H17        -0.3610   -0.3710    0.9410 ho        1 1VY      0.460000
@<TRIPOS>BOND
     1    1    2 1   
     2    1   39 1   
     3    2    3 2   
     4    2   14 1   
     5    3    4 1   
     6    3    5 1   
     7    4   24 1   
     8    4   25 1   
     9    4   26 1   
    10    5    6 2   
    11    6    7 1   
    12    6   13 1   
    13    7    8 2   
    14    7    9 1   
    15    9   10 1   
    16    9   27 1   
    17   10   11 2   
    18   10   12 1   
    19   12   13 2   
    20   13   14 1   
    21   14   15 1   
    22   15   16 1   
    23   15   28 1   
    24   15   29 1   
    25   16   17 1   
    26   16   18 1   
    27   16   30 1   
    28   17   31 1   
    29   18   19 1   
    30   18   20 1   
    31   18   32 1   
    32   19   33 1   
    33   20   21 1   
    34   20   22 1   
    35   20   34 1   
    36   21   35 1   
    37   22   23 1   
    38   22   36 1   
    39   22   37 1   
    40   23   38 1   
@<TRIPOS>SUBSTRUCTURE
     1 1VY         1 TEMP              0 ****  ****    0 ROOT
