@<TRIPOS>MOLECULE
1VZ
   57    60     1     0     0
SMALL
bcc


@<TRIPOS>ATOM
      1 CAN         0.0950    0.1790   -0.0280 c3        1 1VZ      0.161800
      2 CAG         1.6290    0.1020   -0.0690 c3        1 1VZ     -0.088400
      3 CAH         2.0740   -0.1930    1.3580 c3        1 1VZ     -0.088400
      4 CAO         0.7890   -0.2800    2.1950 c3        1 1VZ      0.161800
      5 NAX        -0.3430    0.1440    1.3680 n3        1 1VZ     -0.725600
      6 CAU        -1.5670   -0.6280    1.5910 c3        1 1VZ      0.186500
      7 CAK        -2.0140   -0.5870    3.0610 c3        1 1VZ     -0.080900
      8 CAR        -3.2760   -1.4250    3.2550 c3        1 1VZ      0.187300
      9 CAJ        -2.7370   -0.1100    0.7400 c3        1 1VZ     -0.080900
     10 CAQ        -3.9840   -0.9590    0.9780 c3        1 1VZ      0.187300
     11 NAW        -4.3660   -1.0210    2.3780 nh        1 1VZ     -0.636000
     12 CAT        -5.6200   -1.6220    2.6610 ca        1 1VZ      0.135600
     13 CAD        -6.1880   -1.4700    3.9490 ca        1 1VZ     -0.167000
     14 CAB        -7.4480   -1.9810    4.2340 ca        1 1VZ     -0.104500
     15 CAC        -6.3770   -2.3060    1.6840 ca        1 1VZ     -0.167000
     16 CAA        -7.6410   -2.8030    1.9830 ca        1 1VZ     -0.104500
     17 CAS        -8.1920   -2.6520    3.2580 ca        1 1VZ     -0.108300
     18 CAI        -9.5470   -3.1820    3.5650 c3        1 1VZ     -0.033100
     19 CAP        -9.4980   -4.7050    3.7360 c3        1 1VZ      0.172800
     20 NAV       -10.7900   -5.2840    4.0620 n3        1 1VZ     -0.727600
     21 CAL       -10.7100   -6.6840    4.4840 c3        1 1VZ      0.160300
     22 CAE       -11.7630   -7.5080    3.7270 c3        1 1VZ     -0.092400
     23 CAF       -12.4630   -6.5380    2.7850 c3        1 1VZ     -0.092400
     24 CAM       -11.7910   -5.1730    3.0000 c3        1 1VZ      0.160300
     25 H1         -0.2690    1.1460   -0.4680 h1        1 1VZ      0.038200
     26 H2         -0.3400   -0.6620   -0.6380 h1        1 1VZ      0.038200
     27 H3          1.9610   -0.7010   -0.7710 hc        1 1VZ      0.046700
     28 H4          2.0580    1.0690   -0.4280 hc        1 1VZ      0.046700
     29 H5          2.7370    0.6180    1.7460 hc        1 1VZ      0.046700
     30 H6          2.6420   -1.1540    1.4150 hc        1 1VZ      0.046700
     31 H7          0.6660   -1.3280    2.5900 h1        1 1VZ      0.038200
     32 H8          0.8370    0.4150    3.0760 h1        1 1VZ      0.038200
     33 H10        -1.4010   -1.7180    1.3150 h1        1 1VZ      0.015700
     34 H11        -2.2020    0.4740    3.3690 hc        1 1VZ      0.057450
     35 H12        -1.2180   -1.0050    3.7290 hc        1 1VZ      0.057450
     36 H13        -3.0130   -2.5120    3.0930 h1        1 1VZ      0.036450
     37 H14        -3.6160   -1.3120    4.3220 h1        1 1VZ      0.036450
     38 H15        -2.9440    0.9620    0.9940 hc        1 1VZ      0.057450
     39 H16        -2.4890   -0.1650   -0.3510 hc        1 1VZ      0.057450
     40 H17        -3.7970   -1.9910    0.5560 h1        1 1VZ      0.036450
     41 H18        -4.8410   -0.5000    0.4070 h1        1 1VZ      0.036450
     42 H19        -5.6420   -0.9300    4.7370 ha        1 1VZ      0.134000
     43 H20        -7.8680   -1.8470    5.2430 ha        1 1VZ      0.131000
     44 H21        -5.9820   -2.4560    0.6680 ha        1 1VZ      0.134000
     45 H22        -8.2140   -3.3270    1.2020 ha        1 1VZ      0.131000
     46 H23       -10.2520   -2.9150    2.7320 hc        1 1VZ      0.053700
     47 H24        -9.9450   -2.7110    4.5030 hc        1 1VZ      0.053700
     48 H25        -9.0550   -5.1510    2.7960 h1        1 1VZ      0.033200
     49 H26        -8.7980   -4.9420    4.5860 h1        1 1VZ      0.033200
     50 H28       -10.9150   -6.7050    5.5890 h1        1 1VZ      0.040950
     51 H29        -9.6870   -7.1230    4.3190 h1        1 1VZ      0.040950
     52 H30       -11.2760   -8.3390    3.1610 hc        1 1VZ      0.045700
     53 H31       -12.4880   -7.9650    4.4440 hc        1 1VZ      0.045700
     54 H32       -12.3570   -6.8630    1.7210 hc        1 1VZ      0.045700
     55 H33       -13.5540   -6.4740    3.0140 hc        1 1VZ      0.045700
     56 H34       -12.5470   -4.4120    3.3370 h1        1 1VZ      0.040950
     57 H35       -11.3470   -4.8080    2.0330 h1        1 1VZ      0.040950
@<TRIPOS>BOND
     1    1    2 1   
     2    1    5 1   
     3    1   25 1   
     4    1   26 1   
     5    2    3 1   
     6    2   27 1   
     7    2   28 1   
     8    3    4 1   
     9    3   29 1   
    10    3   30 1   
    11    4    5 1   
    12    4   31 1   
    13    4   32 1   
    14    5    6 1   
    15    6    7 1   
    16    6    9 1   
    17    6   33 1   
    18    7    8 1   
    19    7   34 1   
    20    7   35 1   
    21    8   11 1   
    22    8   36 1   
    23    8   37 1   
    24    9   10 1   
    25    9   38 1   
    26    9   39 1   
    27   10   11 1   
    28   10   40 1   
    29   10   41 1   
    30   11   12 1   
    31   12   13 ar  
    32   12   15 ar  
    33   13   14 ar  
    34   13   42 1   
    35   14   17 ar  
    36   14   43 1   
    37   15   16 ar  
    38   15   44 1   
    39   16   17 ar  
    40   16   45 1   
    41   17   18 1   
    42   18   19 1   
    43   18   46 1   
    44   18   47 1   
    45   19   20 1   
    46   19   48 1   
    47   19   49 1   
    48   20   21 1   
    49   20   24 1   
    50   21   22 1   
    51   21   50 1   
    52   21   51 1   
    53   22   23 1   
    54   22   52 1   
    55   22   53 1   
    56   23   24 1   
    57   23   54 1   
    58   23   55 1   
    59   24   56 1   
    60   24   57 1   
@<TRIPOS>SUBSTRUCTURE
     1 1VZ         1 TEMP              0 ****  ****    0 ROOT
