@<TRIPOS>MOLECULE
1VZ
   57    60     1     0     0
SMALL
bcc


@<TRIPOS>ATOM
      1 CAN        -6.4780   -0.8030   -1.0560 c3        1 1VZ      0.161800
      2 CAG        -7.8020   -0.1280   -1.4470 c3        1 1VZ     -0.088400
      3 CAH        -7.7940    1.2380   -0.7710 c3        1 1VZ     -0.088400
      4 CAO        -6.4660    1.3230   -0.0020 c3        1 1VZ      0.161800
      5 NAX        -5.8130    0.0140   -0.0400 n3        1 1VZ     -0.725600
      6 CAU        -4.3580    0.0780   -0.1840 c3        1 1VZ      0.186500
      7 CAK        -3.7030    0.9000    0.9380 c3        1 1VZ     -0.080900
      8 CAR        -2.1910    0.9650    0.7350 c3        1 1VZ      0.187300
      9 CAJ        -3.7150   -1.3190   -0.1640 c3        1 1VZ     -0.080900
     10 CAQ        -2.2020   -1.2100   -0.3480 c3        1 1VZ      0.187300
     11 NAW        -1.5740   -0.3510    0.6410 nh        1 1VZ     -0.636000
     12 CAT        -0.1550   -0.3540    0.6640 ca        1 1VZ      0.135600
     13 CAD         0.5230    0.2260    1.7630 ca        1 1VZ     -0.167000
     14 CAB         1.9080    0.1710    1.8520 ca        1 1VZ     -0.104500
     15 CAC         0.6230   -0.9860   -0.3310 ca        1 1VZ     -0.167000
     16 CAA         2.0090   -1.0400   -0.2220 ca        1 1VZ     -0.104500
     17 CAS         2.6700   -0.4620    0.8650 ca        1 1VZ     -0.109300
     18 CAI         4.1520   -0.5310    0.9750 c3        1 1VZ     -0.033100
     19 CAP         4.8050    0.4650    0.0100 c3        1 1VZ      0.172800
     20 NAV         6.2560    0.4650    0.0870 n3        1 1VZ     -0.727600
     21 CAL         6.8760    1.5830   -0.6270 c3        1 1VZ      0.160300
     22 CAE         8.0190    1.0570   -1.5080 c3        1 1VZ     -0.092400
     23 CAF         8.0340   -0.4550   -1.3260 c3        1 1VZ     -0.092400
     24 CAM         6.8870   -0.7790   -0.3550 c3        1 1VZ      0.160300
     25 H1         -6.6630   -1.8140   -0.6020 h1        1 1VZ      0.038200
     26 H2         -5.8440   -0.9490   -1.9750 h1        1 1VZ      0.038200
     27 H3         -7.8770   -0.0290   -2.5570 hc        1 1VZ      0.046700
     28 H4         -8.6690   -0.7400   -1.0990 hc        1 1VZ      0.046700
     29 H5         -7.8640    2.0620   -1.5210 hc        1 1VZ      0.046700
     30 H6         -8.6570    1.3400   -0.0690 hc        1 1VZ      0.046700
     31 H7         -5.8270    2.1380   -0.4450 h1        1 1VZ      0.038200
     32 H8         -6.6450    1.5760    1.0780 h1        1 1VZ      0.038200
     33 H10        -4.0800    0.5670   -1.1710 h1        1 1VZ      0.015700
     34 H11        -4.0940    1.9500    0.9390 hc        1 1VZ      0.057450
     35 H12        -3.9420    0.4410    1.9320 hc        1 1VZ      0.057450
     36 H13        -1.9790    1.5740   -0.1930 h1        1 1VZ      0.036450
     37 H14        -1.7380    1.5080    1.6100 h1        1 1VZ      0.036450
     38 H15        -3.9520   -1.8310    0.8040 hc        1 1VZ      0.057450
     39 H16        -4.1170   -1.9520   -0.9970 hc        1 1VZ      0.057450
     40 H17        -1.7570   -2.2400   -0.2420 h1        1 1VZ      0.036450
     41 H18        -1.9970   -0.8480   -1.3990 h1        1 1VZ      0.036450
     42 H19        -0.0440    0.7140    2.5700 ha        1 1VZ      0.134000
     43 H20         2.4100    0.6280    2.7190 ha        1 1VZ      0.131000
     44 H21         0.1490   -1.4490   -1.2090 ha        1 1VZ      0.134000
     45 H22         2.5930   -1.5440   -1.0070 ha        1 1VZ      0.131000
     46 H23         4.4730   -0.3040    2.0260 hc        1 1VZ      0.053700
     47 H24         4.4970   -1.5730    0.7380 hc        1 1VZ      0.053700
     48 H25         4.4320    0.2420   -1.0340 h1        1 1VZ      0.033200
     49 H26         4.4530    1.5010    0.2800 h1        1 1VZ      0.033200
     50 H28         6.1370    2.1520   -1.2570 h1        1 1VZ      0.040950
     51 H29         7.2740    2.2880    0.1520 h1        1 1VZ      0.040950
     52 H30         7.8470    1.3310   -2.5780 hc        1 1VZ      0.045700
     53 H31         8.9920    1.5080   -1.1940 hc        1 1VZ      0.045700
     54 H32         7.8810   -0.9800   -2.3000 hc        1 1VZ      0.045700
     55 H33         9.0090   -0.7980   -0.9030 hc        1 1VZ      0.045700
     56 H34         7.2840   -1.2930    0.5630 h1        1 1VZ      0.040950
     57 H35         6.1540   -1.4770   -0.8470 h1        1 1VZ      0.040950
@<TRIPOS>BOND
     1    1    2 1   
     2    1    5 1   
     3    1   25 1   
     4    1   26 1   
     5    2    3 1   
     6    2   27 1   
     7    2   28 1   
     8    3    4 1   
     9    3   29 1   
    10    3   30 1   
    11    4    5 1   
    12    4   31 1   
    13    4   32 1   
    14    5    6 1   
    15    6    7 1   
    16    6    9 1   
    17    6   33 1   
    18    7    8 1   
    19    7   34 1   
    20    7   35 1   
    21    8   11 1   
    22    8   36 1   
    23    8   37 1   
    24    9   10 1   
    25    9   38 1   
    26    9   39 1   
    27   10   11 1   
    28   10   40 1   
    29   10   41 1   
    30   11   12 1   
    31   12   13 ar  
    32   12   15 ar  
    33   13   14 ar  
    34   13   42 1   
    35   14   17 ar  
    36   14   43 1   
    37   15   16 ar  
    38   15   44 1   
    39   16   17 ar  
    40   16   45 1   
    41   17   18 1   
    42   18   19 1   
    43   18   46 1   
    44   18   47 1   
    45   19   20 1   
    46   19   48 1   
    47   19   49 1   
    48   20   21 1   
    49   20   24 1   
    50   21   22 1   
    51   21   50 1   
    52   21   51 1   
    53   22   23 1   
    54   22   52 1   
    55   22   53 1   
    56   23   24 1   
    57   23   54 1   
    58   23   55 1   
    59   24   56 1   
    60   24   57 1   
@<TRIPOS>SUBSTRUCTURE
     1 1VZ         1 TEMP              0 ****  ****    0 ROOT
