@<TRIPOS>MOLECULE
1VZ
   57    56     1     0     0
SMALL
bcc


@<TRIPOS>ATOM
      1 CAN         5.7520    2.9960    1.2620 c3        1 1VZ     -0.075000
      2 CAG         6.0870    4.1650    2.2430 c3        1 1VZ     -0.167000
      3 CAH         5.3140    5.1370    1.8820 c3        1 1VZ     -0.167000
      4 CAO         4.0130    4.4500    1.1940 c3        1 1VZ     -0.075000
      5 NAX         4.4500    3.4250    0.5260 n3        1 1VZ     -0.251000
      6 CAU         3.4620    2.3310    0.6010 c3        1 1VZ     -0.011000
      7 CAK         2.1660    2.8140    0.0510 c3        1 1VZ     -0.157000
      8 CAR         1.1410    1.6970   -0.0840 c3        1 1VZ     -0.064500
      9 CAJ         3.9850    1.1660   -0.1390 c3        1 1VZ     -0.157000
     10 CAQ         2.9510    0.0520   -0.2740 c3        1 1VZ     -0.064500
     11 NAW         1.6680    0.5350   -0.8160 n3        1 1VZ     -0.222000
     12 CAT         0.6770   -0.5570   -0.7840 c1        1 1VZ      0.003000
     13 CAD         0.2060   -1.0310    0.4370 c1        1 1VZ     -0.138500
     14 CAB        -0.8440   -1.9530    0.4720 c1        1 1VZ     -0.138500
     15 CAC         0.0980   -1.0050   -1.9740 c1        1 1VZ     -0.104000
     16 CAA        -0.9490   -1.9240   -1.9380 c1        1 1VZ     -0.130000
     17 CAS        -1.4190   -2.3980   -0.7130 c1        1 1VZ     -0.074000
     18 CAI        -2.5910   -3.4020   -0.6730 c2        1 1VZ     -0.125000
     19 CAP        -3.8920   -2.6550   -0.3810 c3        1 1VZ     -0.064000
     20 NAV        -5.0120   -3.4300   -0.8670 n3        1 1VZ     -0.253000
     21 CAL        -6.0300   -2.4680   -1.6510 c3        1 1VZ     -0.076500
     22 CAE        -7.2250   -3.0600   -1.5900 c3        1 1VZ     -0.171000
     23 CAF        -7.1870   -3.9010   -0.3110 c3        1 1VZ     -0.171000
     24 CAM        -5.6780   -3.9130    0.1440 c3        1 1VZ     -0.076500
     25 H1          5.6010    2.1670    1.7620 h1        1 1VZ      0.077500
     26 H2          6.4790    2.8760    0.6200 h1        1 1VZ      0.077500
     27 H3          7.0380    4.4290    2.1530 hc        1 1VZ      0.086000
     28 H4          5.8900    3.8980    3.1740 hc        1 1VZ      0.086000
     29 H5          5.7760    5.7100    1.2310 hc        1 1VZ      0.086000
     30 H6          5.0470    5.6570    2.6560 hc        1 1VZ      0.086000
     31 H7          3.5710    5.0940    0.5800 h1        1 1VZ      0.077500
     32 H8          3.3810    4.1560    1.8870 h1        1 1VZ      0.077500
     33 H10         3.3360    2.0820    1.5350 h1        1 1VZ      0.054000
     34 H11         1.8010    3.5120    0.6560 hc        1 1VZ      0.095000
     35 H12         2.3240    3.2120   -0.8390 hc        1 1VZ      0.095000
     36 H13         0.3580    2.0410   -0.5600 h1        1 1VZ      0.073500
     37 H14         0.8690    1.4100    0.8090 h1        1 1VZ      0.073500
     38 H15         4.2570    1.4540   -1.0320 hc        1 1VZ      0.095000
     39 H16         4.7610    0.8190    0.3300 hc        1 1VZ      0.095000
     40 H17         2.7930   -0.3430    0.6130 h1        1 1VZ      0.073500
     41 H18         3.3090   -0.6470   -0.8750 h1        1 1VZ      0.073500
     42 H19         0.6060   -0.7220    1.2600 ha        1 1VZ      0.131000
     43 H20        -1.1730   -2.2830    1.3260 ha        1 1VZ      0.131000
     44 H21         0.4310   -0.6700   -2.8410 ha        1 1VZ      0.146000
     45 H22        -1.3560   -2.2390   -2.7750 ha        1 1VZ      0.135000
     46 H23        -2.6610   -3.8510   -1.5280 ha        1 1VZ      0.095500
     47 H24        -2.4290   -4.0670    0.0340 ha        1 1VZ      0.095500
     48 H25        -3.9830   -2.5220    0.5920 h1        1 1VZ      0.073500
     49 H26        -3.8770   -1.7830   -0.8300 h1        1 1VZ      0.073500
     50 H28        -6.0660   -1.5890   -1.2170 h1        1 1VZ      0.080750
     51 H29        -5.7500   -2.3720   -2.5830 h1        1 1VZ      0.080750
     52 H30        -7.9340   -2.3900   -1.5340 hc        1 1VZ      0.085750
     53 H31        -7.3620   -3.6390   -2.3770 hc        1 1VZ      0.085750
     54 H32        -7.7450   -3.4910    0.3790 hc        1 1VZ      0.085750
     55 H33        -7.4910   -4.8110   -0.4950 hc        1 1VZ      0.085750
     56 H34        -5.5570   -3.3440    0.9360 h1        1 1VZ      0.080750
     57 H35        -5.3890   -4.8260    0.3350 h1        1 1VZ      0.080750
@<TRIPOS>BOND
     1    1    2 1   
     2    1    5 1   
     3    1   25 1   
     4    1   26 1   
     5    2    3 1   
     6    2   27 1   
     7    2   28 1   
     8    3    4 1   
     9    3   29 1   
    10    3   30 1   
    11    4    5 1   
    12    4   31 1   
    13    4   32 1   
    14    5    6 1   
    15    6    7 1   
    16    6    9 1   
    17    6   33 1   
    18    7    8 1   
    19    7   34 1   
    20    7   35 1   
    21    8   11 1   
    22    8   36 1   
    23    8   37 1   
    24    9   10 1   
    25    9   38 1   
    26    9   39 1   
    27   10   11 1   
    28   10   40 1   
    29   10   41 1   
    30   11   12 1   
    31   12   15 1   
    32   13   14 1   
    33   13   42 1   
    34   14   43 1   
    35   15   44 1   
    36   16   17 1   
    37   16   45 1   
    38   18   19 1   
    39   18   46 1   
    40   18   47 1   
    41   19   20 1   
    42   19   48 1   
    43   19   49 1   
    44   20   21 1   
    45   20   24 1   
    46   21   22 1   
    47   21   50 1   
    48   21   51 1   
    49   22   23 1   
    50   22   52 1   
    51   22   53 1   
    52   23   24 1   
    53   23   54 1   
    54   23   55 1   
    55   24   56 1   
    56   24   57 1   
@<TRIPOS>SUBSTRUCTURE
     1 1VZ         1 TEMP              0 ****  ****    0 ROOT
