@<TRIPOS>MOLECULE
1VZ
   57    60     1     0     0
SMALL
bcc


@<TRIPOS>ATOM
      1 CAN         0.0930    0.1800   -0.0310 c3        1 1VZ      0.161800
      2 CAG         1.6270    0.1030   -0.0720 c3        1 1VZ     -0.088400
      3 CAH         2.0730   -0.1890    1.3550 c3        1 1VZ     -0.088400
      4 CAO         0.7870   -0.2760    2.1920 c3        1 1VZ      0.161800
      5 NAX        -0.3450    0.1460    1.3650 n3        1 1VZ     -0.725600
      6 CAU        -1.5680   -0.6250    1.5890 c3        1 1VZ      0.186500
      7 CAK        -2.0140   -0.5830    3.0590 c3        1 1VZ     -0.080900
      8 CAR        -3.2760   -1.4220    3.2550 c3        1 1VZ      0.187300
      9 CAJ        -2.7390   -0.1090    0.7380 c3        1 1VZ     -0.080900
     10 CAQ        -3.9850   -0.9590    0.9780 c3        1 1VZ      0.187300
     11 NAW        -4.3670   -1.0200    2.3780 nh        1 1VZ     -0.636000
     12 CAT        -5.6200   -1.6220    2.6620 ca        1 1VZ      0.135600
     13 CAD        -6.1880   -1.4710    3.9500 ca        1 1VZ     -0.167000
     14 CAB        -7.4470   -1.9820    4.2360 ca        1 1VZ     -0.104500
     15 CAC        -6.3760   -2.3070    1.6850 ca        1 1VZ     -0.167000
     16 CAA        -7.6400   -2.8050    1.9850 ca        1 1VZ     -0.104500
     17 CAS        -8.1910   -2.6550    3.2600 ca        1 1VZ     -0.109300
     18 CAI        -9.5460   -3.1850    3.5680 c3        1 1VZ     -0.033100
     19 CAP        -9.4960   -4.7080    3.7360 c3        1 1VZ      0.172800
     20 NAV       -10.7880   -5.2870    4.0640 n3        1 1VZ     -0.727600
     21 CAL       -10.7070   -6.6880    4.4830 c3        1 1VZ      0.160300
     22 CAE       -11.7620   -7.5110    3.7270 c3        1 1VZ     -0.092400
     23 CAF       -12.4630   -6.5400    2.7870 c3        1 1VZ     -0.092400
     24 CAM       -11.7900   -5.1750    3.0030 c3        1 1VZ      0.160300
     25 H1         -0.2710    1.1470   -0.4720 h1        1 1VZ      0.038200
     26 H2         -0.3420   -0.6620   -0.6400 h1        1 1VZ      0.038200
     27 H3          1.9590   -0.7010   -0.7730 hc        1 1VZ      0.046700
     28 H4          2.0550    1.0700   -0.4340 hc        1 1VZ      0.046700
     29 H5          2.7340    0.6250    1.7410 hc        1 1VZ      0.046700
     30 H6          2.6420   -1.1480    1.4140 hc        1 1VZ      0.046700
     31 H7          0.8350    0.4210    3.0730 h1        1 1VZ      0.038200
     32 H8          0.6650   -1.3230    2.5880 h1        1 1VZ      0.038200
     33 H10        -1.4020   -1.7160    1.3150 h1        1 1VZ      0.015700
     34 H11        -2.2040    0.4780    3.3670 hc        1 1VZ      0.057450
     35 H12        -1.2180   -1.0000    3.7280 hc        1 1VZ      0.057450
     36 H13        -3.0120   -2.5090    3.0940 h1        1 1VZ      0.036450
     37 H14        -3.6160   -1.3080    4.3220 h1        1 1VZ      0.036450
     38 H15        -2.4910   -0.1650   -0.3530 hc        1 1VZ      0.057450
     39 H16        -2.9470    0.9630    0.9910 hc        1 1VZ      0.057450
     40 H17        -3.7980   -1.9920    0.5570 h1        1 1VZ      0.036450
     41 H18        -4.8430   -0.5020    0.4070 h1        1 1VZ      0.036450
     42 H19        -5.6410   -0.9290    4.7370 ha        1 1VZ      0.134000
     43 H20        -7.8670   -1.8480    5.2450 ha        1 1VZ      0.131000
     44 H21        -5.9820   -2.4580    0.6700 ha        1 1VZ      0.134000
     45 H22        -8.2130   -3.3300    1.2050 ha        1 1VZ      0.131000
     46 H23        -9.9420   -2.7160    4.5070 hc        1 1VZ      0.053700
     47 H24       -10.2510   -2.9170    2.7370 hc        1 1VZ      0.053700
     48 H25        -8.7950   -4.9470    4.5860 h1        1 1VZ      0.033200
     49 H26        -9.0540   -5.1520    2.7960 h1        1 1VZ      0.033200
     50 H28        -9.6850   -7.1280    4.3160 h1        1 1VZ      0.040950
     51 H29       -10.9100   -6.7100    5.5890 h1        1 1VZ      0.040950
     52 H30       -12.4860   -7.9680    4.4450 hc        1 1VZ      0.045700
     53 H31       -11.2760   -8.3410    3.1590 hc        1 1VZ      0.045700
     54 H32       -13.5540   -6.4760    3.0180 hc        1 1VZ      0.045700
     55 H33       -12.3580   -6.8630    1.7230 hc        1 1VZ      0.045700
     56 H34       -12.5450   -4.4140    3.3420 h1        1 1VZ      0.040950
     57 H35       -11.3470   -4.8080    2.0360 h1        1 1VZ      0.040950
@<TRIPOS>BOND
     1    1    2 1   
     2    1    5 1   
     3    1   25 1   
     4    1   26 1   
     5    2    3 1   
     6    2   27 1   
     7    2   28 1   
     8    3    4 1   
     9    3   29 1   
    10    3   30 1   
    11    4    5 1   
    12    4   31 1   
    13    4   32 1   
    14    5    6 1   
    15    6    7 1   
    16    6    9 1   
    17    6   33 1   
    18    7    8 1   
    19    7   34 1   
    20    7   35 1   
    21    8   11 1   
    22    8   36 1   
    23    8   37 1   
    24    9   10 1   
    25    9   38 1   
    26    9   39 1   
    27   10   11 1   
    28   10   40 1   
    29   10   41 1   
    30   11   12 1   
    31   12   13 ar  
    32   12   15 ar  
    33   13   14 ar  
    34   13   42 1   
    35   14   17 ar  
    36   14   43 1   
    37   15   16 ar  
    38   15   44 1   
    39   16   17 ar  
    40   16   45 1   
    41   17   18 1   
    42   18   19 1   
    43   18   46 1   
    44   18   47 1   
    45   19   20 1   
    46   19   48 1   
    47   19   49 1   
    48   20   21 1   
    49   20   24 1   
    50   21   22 1   
    51   21   50 1   
    52   21   51 1   
    53   22   23 1   
    54   22   52 1   
    55   22   53 1   
    56   23   24 1   
    57   23   54 1   
    58   23   55 1   
    59   24   56 1   
    60   24   57 1   
@<TRIPOS>SUBSTRUCTURE
     1 1VZ         1 TEMP              0 ****  ****    0 ROOT
