@<TRIPOS>MOLECULE
1VZ
   57    60     1     0     0
SMALL
bcc


@<TRIPOS>ATOM
      1 CAN         0.0970    0.1750   -0.0300 c3        1 1VZ      0.161800
      2 CAG         1.6320    0.1000   -0.0670 c3        1 1VZ     -0.088400
      3 CAH         2.0740   -0.1880    1.3630 c3        1 1VZ     -0.088400
      4 CAO         0.7860   -0.2720    2.1970 c3        1 1VZ      0.161800
      5 NAX        -0.3440    0.1450    1.3660 n3        1 1VZ     -0.725600
      6 CAU        -1.5670   -0.6270    1.5890 c3        1 1VZ      0.186500
      7 CAK        -2.0170   -0.5790    3.0580 c3        1 1VZ     -0.080900
      8 CAR        -3.2780   -1.4190    3.2540 c3        1 1VZ      0.187300
      9 CAJ        -2.7360   -0.1140    0.7340 c3        1 1VZ     -0.080900
     10 CAQ        -3.9830   -0.9650    0.9740 c3        1 1VZ      0.187300
     11 NAW        -4.3680   -1.0210    2.3730 nh        1 1VZ     -0.636000
     12 CAT        -5.6210   -1.6220    2.6560 ca        1 1VZ      0.135600
     13 CAD        -6.1920   -1.4650    3.9420 ca        1 1VZ     -0.167000
     14 CAB        -7.4520   -1.9750    4.2270 ca        1 1VZ     -0.104500
     15 CAC        -6.3750   -2.3110    1.6810 ca        1 1VZ     -0.167000
     16 CAA        -7.6390   -2.8090    1.9790 ca        1 1VZ     -0.104500
     17 CAS        -8.1930   -2.6530    3.2520 ca        1 1VZ     -0.109300
     18 CAI        -9.5480   -3.1830    3.5590 c3        1 1VZ     -0.033100
     19 CAP        -9.4980   -4.7050    3.7370 c3        1 1VZ      0.172800
     20 NAV       -10.7900   -5.2830    4.0640 n3        1 1VZ     -0.727600
     21 CAL       -10.7090   -6.6820    4.4920 c3        1 1VZ      0.160300
     22 CAE       -11.7610   -7.5100    3.7380 c3        1 1VZ     -0.092400
     23 CAF       -12.4600   -6.5450    2.7910 c3        1 1VZ     -0.092400
     24 CAM       -11.7900   -5.1780    3.0010 c3        1 1VZ      0.160300
     25 H1         -0.3360   -0.6700   -0.6360 h1        1 1VZ      0.038200
     26 H2         -0.2670    1.1390   -0.4750 h1        1 1VZ      0.038200
     27 H3          1.9660   -0.7060   -0.7640 hc        1 1VZ      0.046700
     28 H4          2.0590    1.0650   -0.4300 hc        1 1VZ      0.046700
     29 H5          2.6430   -1.1470    1.4260 hc        1 1VZ      0.046700
     30 H6          2.7340    0.6270    1.7480 hc        1 1VZ      0.046700
     31 H7          0.6640   -1.3180    2.5970 h1        1 1VZ      0.038200
     32 H8          0.8320    0.4270    3.0750 h1        1 1VZ      0.038200
     33 H10        -1.3990   -1.7180    1.3200 h1        1 1VZ      0.015700
     34 H11        -2.2080    0.4820    3.3620 hc        1 1VZ      0.057450
     35 H12        -1.2220   -0.9940    3.7300 hc        1 1VZ      0.057450
     36 H13        -3.0130   -2.5060    3.0970 h1        1 1VZ      0.036450
     37 H14        -3.6210   -1.3010    4.3200 h1        1 1VZ      0.036450
     38 H15        -2.9460    0.9580    0.9820 hc        1 1VZ      0.057450
     39 H16        -2.4860   -0.1740   -0.3560 hc        1 1VZ      0.057450
     40 H17        -4.8390   -0.5100    0.3990 h1        1 1VZ      0.036450
     41 H18        -3.7930   -1.9990    0.5560 h1        1 1VZ      0.036450
     42 H19        -5.6480   -0.9200    4.7290 ha        1 1VZ      0.134000
     43 H20        -7.8750   -1.8380    5.2340 ha        1 1VZ      0.131000
     44 H21        -5.9780   -2.4660    0.6660 ha        1 1VZ      0.134000
     45 H22        -8.2100   -3.3370    1.2000 ha        1 1VZ      0.131000
     46 H23       -10.2510   -2.9200    2.7240 hc        1 1VZ      0.053700
     47 H24        -9.9480   -2.7080    4.4940 hc        1 1VZ      0.053700
     48 H25        -8.7980   -4.9380    4.5890 h1        1 1VZ      0.033200
     49 H26        -9.0530   -5.1540    2.8000 h1        1 1VZ      0.033200
     50 H28       -10.9150   -6.6980    5.5970 h1        1 1VZ      0.040950
     51 H29        -9.6860   -7.1210    4.3290 h1        1 1VZ      0.040950
     52 H30       -12.4860   -7.9630    4.4570 hc        1 1VZ      0.045700
     53 H31       -11.2730   -8.3430    3.1760 hc        1 1VZ      0.045700
     54 H32       -13.5520   -6.4810    3.0180 hc        1 1VZ      0.045700
     55 H33       -12.3520   -6.8740    1.7280 hc        1 1VZ      0.045700
     56 H34       -11.3450   -4.8160    2.0320 h1        1 1VZ      0.040950
     57 H35       -12.5460   -4.4160    3.3330 h1        1 1VZ      0.040950
@<TRIPOS>BOND
     1    1    2 1   
     2    1    5 1   
     3    1   25 1   
     4    1   26 1   
     5    2    3 1   
     6    2   27 1   
     7    2   28 1   
     8    3    4 1   
     9    3   29 1   
    10    3   30 1   
    11    4    5 1   
    12    4   31 1   
    13    4   32 1   
    14    5    6 1   
    15    6    7 1   
    16    6    9 1   
    17    6   33 1   
    18    7    8 1   
    19    7   34 1   
    20    7   35 1   
    21    8   11 1   
    22    8   36 1   
    23    8   37 1   
    24    9   10 1   
    25    9   38 1   
    26    9   39 1   
    27   10   11 1   
    28   10   40 1   
    29   10   41 1   
    30   11   12 1   
    31   12   13 ar  
    32   12   15 ar  
    33   13   14 ar  
    34   13   42 1   
    35   14   17 ar  
    36   14   43 1   
    37   15   16 ar  
    38   15   44 1   
    39   16   17 ar  
    40   16   45 1   
    41   17   18 1   
    42   18   19 1   
    43   18   46 1   
    44   18   47 1   
    45   19   20 1   
    46   19   48 1   
    47   19   49 1   
    48   20   21 1   
    49   20   24 1   
    50   21   22 1   
    51   21   50 1   
    52   21   51 1   
    53   22   23 1   
    54   22   52 1   
    55   22   53 1   
    56   23   24 1   
    57   23   54 1   
    58   23   55 1   
    59   24   56 1   
    60   24   57 1   
@<TRIPOS>SUBSTRUCTURE
     1 1VZ         1 TEMP              0 ****  ****    0 ROOT
