@<TRIPOS>MOLECULE
1W0
   39    42     1     0     0
SMALL
bcc


@<TRIPOS>ATOM
      1 C4          0.0980   -0.0440    0.0810 ca        1 1W0     -0.122000
      2 C5          1.4960   -0.0210    0.1820 ca        1 1W0     -0.116300
      3 C6          2.0960    0.0590    1.4420 ca        1 1W0     -0.110000
      4 C7          2.2960   -0.0190   -1.1060 c3        1 1W0      0.179500
      5 C8          2.1890    1.3860   -1.7260 c3        1 1W0     -0.107400
      6 C17        -2.1500   -0.0430    1.1180 cp        1 1W0     -0.297600
      7 C20        -4.8490   -0.0890    0.9090 ca        1 1W0      0.647900
      8 C22        -2.9800    0.7140    1.9810 ca        1 1W0      0.444700
      9 C1          1.3010    0.0850    2.5890 ca        1 1W0     -0.117000
     10 C2         -0.0860    0.0420    2.4920 ca        1 1W0     -0.097000
     11 C3         -0.7010   -0.0170    1.2310 cp        1 1W0     -0.003000
     12 C9          2.2440    1.3590   -3.2390 c3        1 1W0      0.112400
     13 O10         1.1910    0.5460   -3.7400 os        1 1W0     -0.381600
     14 C11         1.3850   -0.8310   -3.4950 c3        1 1W0      0.113400
     15 C12         1.7570   -1.1790   -2.0550 c3        1 1W0      0.091100
     16 O13         2.8800   -2.1320   -2.1450 os        1 1W0     -0.442400
     17 C14         3.9360   -1.5300   -1.4550 c2        1 1W0      0.601500
     18 N15         3.7260   -0.3830   -0.8730 n2        1 1W0     -0.513900
     19 N16         5.1660   -2.3210   -1.4960 n4        1 1W0     -0.767600
     20 C18        -2.8120   -0.8240    0.1410 ca        1 1W0      0.444700
     21 N19        -4.1530   -0.8560    0.0250 nb        1 1W0     -0.680000
     22 N21        -4.3230    0.6980    1.8870 nb        1 1W0     -0.680000
     23 H1         -0.3850   -0.0560   -0.9090 ha        1 1W0      0.144000
     24 H2          3.1880    0.1260    1.5580 ha        1 1W0      0.141000
     25 H3          2.9910    2.0560   -1.3220 hc        1 1W0      0.095700
     26 H4          1.2000    1.8220   -1.4130 hc        1 1W0      0.095700
     27 H5         -5.9570   -0.1080    0.8240 h5        1 1W0      0.070100
     28 H6         -2.5500    1.3580    2.7700 h4        1 1W0      0.028600
     29 H7          1.7790    0.1460    3.5800 ha        1 1W0      0.152000
     30 H8         -0.7050    0.0560    3.4040 ha        1 1W0      0.155000
     31 H9          3.2360    0.9970   -3.6150 h1        1 1W0      0.068200
     32 H10         2.0260    2.3780   -3.6630 h1        1 1W0      0.068200
     33 H11         2.1780   -1.2280   -4.1890 h1        1 1W0      0.079700
     34 H12         0.3950   -1.2970   -3.7570 h1        1 1W0      0.079700
     35 H13         0.9420   -1.7620   -1.5500 h1        1 1W0      0.120700
     36 H14         5.3620   -2.5710   -2.4760 hn        1 1W0      0.490800
     37 H15         5.0150   -3.1810   -0.9490 hn        1 1W0      0.490800
     38 H16        -2.2450   -1.4520   -0.5690 h4        1 1W0      0.028600
     39 H163        5.9500   -1.7840   -1.1010 hn        1 1W0      0.490800
@<TRIPOS>BOND
     1    1    2 ar  
     2    1   11 ar  
     3    1   23 1   
     4    2    3 ar  
     5    2    4 1   
     6    3    9 ar  
     7    3   24 1   
     8    4    5 1   
     9    4   15 1   
    10    4   18 1   
    11    5   12 1   
    12    5   25 1   
    13    5   26 1   
    14    6    8 ar  
    15    6   11 1   
    16    6   20 ar  
    17    7   21 ar  
    18    7   22 ar  
    19    7   27 1   
    20    8   22 ar  
    21    8   28 1   
    22    9   10 ar  
    23    9   29 1   
    24   10   11 ar  
    25   10   30 1   
    26   12   13 1   
    27   12   31 1   
    28   12   32 1   
    29   13   14 1   
    30   14   15 1   
    31   14   33 1   
    32   14   34 1   
    33   15   16 1   
    34   15   35 1   
    35   16   17 1   
    36   17   18 2   
    37   17   19 1   
    38   19   36 1   
    39   19   37 1   
    40   19   39 1   
    41   20   21 ar  
    42   20   38 1   
@<TRIPOS>SUBSTRUCTURE
     1 1W0         1 TEMP              0 ****  ****    0 ROOT
