@<TRIPOS>MOLECULE
1W0
   38    41     1     0     0
SMALL
bcc


@<TRIPOS>ATOM
      1 C4         -0.5910    0.1710   -0.2560 ca        1 1W0     -0.122000
      2 C5          0.5770    0.8860   -0.5530 ca        1 1W0     -0.079300
      3 C6          0.4770    2.2230   -0.9500 ca        1 1W0     -0.095000
      4 C7          1.9100    0.1590   -0.4730 c3        1 1W0      0.184500
      5 C8          1.9620   -0.8160   -1.6650 c3        1 1W0     -0.096400
      6 C17        -3.0510    0.0360   -0.0080 cp        1 1W0     -0.262600
      7 C20        -5.2950   -1.3560    0.5850 ca        1 1W0      0.625900
      8 C22        -4.1430    0.6290    0.6700 ca        1 1W0      0.432200
      9 C1         -0.7740    2.8380   -1.0230 ca        1 1W0     -0.134000
     10 C2         -1.9310    2.1320   -0.7110 ca        1 1W0     -0.115000
     11 C3         -1.8470    0.7850   -0.3270 cp        1 1W0     -0.037000
     12 C9          2.7810   -2.0500   -1.3580 c3        1 1W0      0.119400
     13 O10         2.2120   -2.7390   -0.2500 os        1 1W0     -0.411600
     14 C11         2.3800   -2.0450    0.9720 c3        1 1W0      0.117400
     15 C12         2.0070   -0.5640    0.9370 c3        1 1W0      0.082100
     16 O13         3.0710    0.1430    1.6290 os        1 1W0     -0.467400
     17 C14         3.6620    1.0230    0.6880 c2        1 1W0      0.761500
     18 N15         3.0630    1.0810   -0.4880 n2        1 1W0     -0.691900
     19 N16         4.8300    1.6270    1.1320 nh        1 1W0     -0.870800
     20 C18        -3.2010   -1.3280   -0.3580 ca        1 1W0      0.432200
     21 N19        -4.3120   -2.0320   -0.0690 nb        1 1W0     -0.689500
     22 N21        -5.2660   -0.0510    0.9710 nb        1 1W0     -0.689500
     23 H1         -0.5220   -0.8890    0.0370 ha        1 1W0      0.140000
     24 H2          1.3730    2.8040   -1.2170 ha        1 1W0      0.155000
     25 H3          0.9150   -1.1360   -1.9120 hc        1 1W0      0.069200
     26 H4          2.3810   -0.2970   -2.5650 hc        1 1W0      0.069200
     27 H5         -6.2160   -1.9260    0.8280 h5        1 1W0      0.056100
     28 H6         -4.1090    1.6880    0.9870 h4        1 1W0      0.033100
     29 H7         -0.8430    3.8910   -1.3360 ha        1 1W0      0.136000
     30 H8         -2.9130    2.6240   -0.7780 ha        1 1W0      0.135000
     31 H9          2.7230   -2.7910   -2.2000 h1        1 1W0      0.058200
     32 H10         3.8530   -1.7940   -1.1510 h1        1 1W0      0.058200
     33 H11         1.7090   -2.5920    1.6880 h1        1 1W0      0.063200
     34 H12         3.4490   -2.1490    1.3090 h1        1 1W0      0.063200
     35 H13         1.0860   -0.3750    1.5480 h1        1 1W0      0.088700
     36 H14         4.9300    1.6360    2.1230 hn        1 1W0      0.423800
     37 H15         5.0640    2.4770    0.6690 hn        1 1W0      0.423800
     38 H16        -2.4010   -1.8700   -0.8960 h4        1 1W0      0.033100
@<TRIPOS>BOND
     1    1    2 ar  
     2    1   11 ar  
     3    1   23 1   
     4    2    3 ar  
     5    2    4 1   
     6    3    9 ar  
     7    3   24 1   
     8    4    5 1   
     9    4   15 1   
    10    4   18 1   
    11    5   12 1   
    12    5   25 1   
    13    5   26 1   
    14    6    8 ar  
    15    6   11 1   
    16    6   20 ar  
    17    7   21 ar  
    18    7   22 ar  
    19    7   27 1   
    20    8   22 ar  
    21    8   28 1   
    22    9   10 ar  
    23    9   29 1   
    24   10   11 ar  
    25   10   30 1   
    26   12   13 1   
    27   12   31 1   
    28   12   32 1   
    29   13   14 1   
    30   14   15 1   
    31   14   33 1   
    32   14   34 1   
    33   15   16 1   
    34   15   35 1   
    35   16   17 1   
    36   17   18 2   
    37   17   19 1   
    38   19   36 1   
    39   19   37 1   
    40   20   21 ar  
    41   20   38 1   
@<TRIPOS>SUBSTRUCTURE
     1 1W0         1 TEMP              0 ****  ****    0 ROOT
