@<TRIPOS>MOLECULE
1W0
   39    42     1     0     0
SMALL
bcc


@<TRIPOS>ATOM
      1 C4          0.1000   -0.0490    0.0860 ca        1 1W0     -0.122000
      2 C5          1.4980   -0.0260    0.1820 ca        1 1W0     -0.116300
      3 C6          2.1030    0.0450    1.4400 ca        1 1W0     -0.110000
      4 C7          2.2940   -0.0150   -1.1090 c3        1 1W0      0.179500
      5 C8          2.1840    1.3950   -1.7190 c3        1 1W0     -0.107400
      6 C17        -2.1440   -0.0550    1.1290 cp        1 1W0     -0.297600
      7 C20        -4.8440   -0.1000    0.9300 ca        1 1W0      0.647900
      8 C22        -2.9720    0.6950    2.0010 ca        1 1W0      0.444700
      9 C1          1.3120    0.0620    2.5900 ca        1 1W0     -0.117000
     10 C2         -0.0760    0.0200    2.4970 ca        1 1W0     -0.097000
     11 C3         -0.6960   -0.0300    1.2380 cp        1 1W0     -0.003000
     12 C9          2.2350    1.3790   -3.2310 c3        1 1W0      0.112400
     13 O10         1.1800    0.5690   -3.7350 os        1 1W0     -0.381600
     14 C11         1.3750   -0.8100   -3.5010 c3        1 1W0      0.113400
     15 C12         1.7520   -1.1670   -2.0650 c3        1 1W0      0.091100
     16 O13         2.8740   -2.1200   -2.1660 os        1 1W0     -0.442400
     17 C14         3.9330   -1.5230   -1.4750 c2        1 1W0      0.601500
     18 N15         3.7240   -0.3810   -0.8840 n2        1 1W0     -0.513900
     19 N16         5.1620   -2.3140   -1.5260 nz        1 1W0     -0.767600
     20 C18        -2.8100   -0.8290    0.1490 ca        1 1W0      0.444700
     21 N19        -4.1510   -0.8610    0.0380 nb        1 1W0     -0.680000
     22 N21        -4.3150    0.6800    1.9120 nb        1 1W0     -0.680000
     23 H1         -0.3870   -0.0530   -0.9040 ha        1 1W0      0.144000
     24 H2          3.1950    0.1110    1.5530 ha        1 1W0      0.141000
     25 H3          2.9890    2.0620   -1.3120 hc        1 1W0      0.095700
     26 H4          1.1960    1.8280   -1.4000 hc        1 1W0      0.095700
     27 H5         -5.9520   -0.1180    0.8480 h5        1 1W0      0.070100
     28 H6         -2.5390    1.3340    2.7930 h4        1 1W0      0.028600
     29 H7          1.7930    0.1160    3.5790 ha        1 1W0      0.152000
     30 H8         -0.6910    0.0270    3.4110 ha        1 1W0      0.155000
     31 H9          2.0160    2.4010   -3.6480 h1        1 1W0      0.068200
     32 H10         3.2250    1.0200   -3.6140 h1        1 1W0      0.068200
     33 H11         0.3830   -1.2740   -3.7630 h1        1 1W0      0.079700
     34 H12         2.1660   -1.2010   -4.2000 h1        1 1W0      0.079700
     35 H13         0.9380   -1.7540   -1.5610 h1        1 1W0      0.120700
     36 H14         5.3530   -2.5580   -2.5080 hn        1 1W0      0.491133
     37 H15         5.9490   -1.7780   -1.1320 hn        1 1W0      0.491133
     38 H16        -2.2450   -1.4520   -0.5670 h4        1 1W0      0.028600
     39 H163        5.0150   -3.1770   -0.9820 hn        1 1W0      0.491133
@<TRIPOS>BOND
     1    1    2 ar  
     2    1   11 ar  
     3    1   23 1   
     4    2    3 ar  
     5    2    4 1   
     6    3    9 ar  
     7    3   24 1   
     8    4    5 1   
     9    4   15 1   
    10    4   18 1   
    11    5   12 1   
    12    5   25 1   
    13    5   26 1   
    14    6    8 ar  
    15    6   11 1   
    16    6   20 ar  
    17    7   21 ar  
    18    7   22 ar  
    19    7   27 1   
    20    8   22 ar  
    21    8   28 1   
    22    9   10 ar  
    23    9   29 1   
    24   10   11 ar  
    25   10   30 1   
    26   12   13 1   
    27   12   31 1   
    28   12   32 1   
    29   13   14 1   
    30   14   15 1   
    31   14   33 1   
    32   14   34 1   
    33   15   16 1   
    34   15   35 1   
    35   16   17 1   
    36   17   18 2   
    37   17   19 1   
    38   19   36 1   
    39   19   37 1   
    40   19   39 1   
    41   20   21 ar  
    42   20   38 1   
@<TRIPOS>SUBSTRUCTURE
     1 1W0         1 TEMP              0 ****  ****    0 ROOT
