@<TRIPOS>MOLECULE
1W0
   39    42     1     0     0
SMALL
bcc


@<TRIPOS>ATOM
      1 C4          0.0980   -0.0480    0.0830 ca        1 1W0     -0.122000
      2 C5          1.4950   -0.0290    0.1850 ca        1 1W0     -0.116300
      3 C6          2.0950    0.0390    1.4460 ca        1 1W0     -0.110000
      4 C7          2.2970   -0.0180   -1.1020 c3        1 1W0      0.179500
      5 C8          2.1950    1.3930   -1.7100 c3        1 1W0     -0.107400
      6 C17        -2.1510   -0.0510    1.1170 cp        1 1W0     -0.297600
      7 C20        -4.8500   -0.0890    0.9050 ca        1 1W0      0.647900
      8 C22        -2.9810    0.7000    1.9860 ca        1 1W0      0.444700
      9 C1          1.2990    0.0560    2.5920 ca        1 1W0     -0.117000
     10 C2         -0.0880    0.0170    2.4940 ca        1 1W0     -0.097000
     11 C3         -0.7030   -0.0290    1.2320 cp        1 1W0     -0.003000
     12 C9          2.2520    1.3810   -3.2220 c3        1 1W0      0.112400
     13 O10         1.1970    0.5750   -3.7320 os        1 1W0     -0.381600
     14 C11         1.3870   -0.8040   -3.5000 c3        1 1W0      0.113400
     15 C12         1.7560   -1.1660   -2.0630 c3        1 1W0      0.091100
     16 O13         2.8760   -2.1220   -2.1610 os        1 1W0     -0.442400
     17 C14         3.9330   -1.5300   -1.4640 c2        1 1W0      0.601500
     18 N15         3.7250   -0.3880   -0.8710 n2        1 1W0     -0.513900
     19 N16         5.1600   -2.3240   -1.5100 n4        1 1W0     -0.767600
     20 C18        -2.8140   -0.8220    0.1320 ca        1 1W0      0.444700
     21 N19        -4.1550   -0.8500    0.0150 nb        1 1W0     -0.680000
     22 N21        -4.3230    0.6880    1.8910 nb        1 1W0     -0.680000
     23 H1         -0.3840   -0.0500   -0.9090 ha        1 1W0      0.144000
     24 H2          3.1870    0.1010    1.5640 ha        1 1W0      0.141000
     25 H3          1.2060    1.8300   -1.3940 hc        1 1W0      0.095700
     26 H4          2.9990    2.0580   -1.2980 hc        1 1W0      0.095700
     27 H5         -5.9580   -0.1050    0.8180 h5        1 1W0      0.070100
     28 H6         -2.5500    1.3370    2.7800 h4        1 1W0      0.028600
     29 H7          1.7760    0.1070    3.5840 ha        1 1W0      0.152000
     30 H8         -0.7080    0.0240    3.4050 ha        1 1W0      0.155000
     31 H9          3.2430    1.0190   -3.6010 h1        1 1W0      0.068200
     32 H10         2.0380    2.4040   -3.6370 h1        1 1W0      0.068200
     33 H11         2.1790   -1.1970   -4.1970 h1        1 1W0      0.079700
     34 H12         0.3950   -1.2650   -3.7670 h1        1 1W0      0.079700
     35 H13         0.9380   -1.7520   -1.5640 h1        1 1W0      0.120700
     36 H14         5.9470   -1.7900   -1.1160 hn        1 1W0      0.491133
     37 H15         5.0100   -3.1860   -0.9660 hn        1 1W0      0.491133
     38 H16        -2.2480   -1.4450   -0.5820 h4        1 1W0      0.028600
     39 H163        5.3530   -2.5710   -2.4920 hn        1 1W0      0.491133
@<TRIPOS>BOND
     1    1    2 ar  
     2    1   11 ar  
     3    1   23 1   
     4    2    3 ar  
     5    2    4 1   
     6    3    9 ar  
     7    3   24 1   
     8    4    5 1   
     9    4   15 1   
    10    4   18 1   
    11    5   12 1   
    12    5   25 1   
    13    5   26 1   
    14    6    8 ar  
    15    6   11 1   
    16    6   20 ar  
    17    7   21 ar  
    18    7   22 ar  
    19    7   27 1   
    20    8   22 ar  
    21    8   28 1   
    22    9   10 ar  
    23    9   29 1   
    24   10   11 ar  
    25   10   30 1   
    26   12   13 1   
    27   12   31 1   
    28   12   32 1   
    29   13   14 1   
    30   14   15 1   
    31   14   33 1   
    32   14   34 1   
    33   15   16 1   
    34   15   35 1   
    35   16   17 1   
    36   17   18 2   
    37   17   19 1   
    38   19   36 1   
    39   19   37 1   
    40   19   39 1   
    41   20   21 ar  
    42   20   38 1   
@<TRIPOS>SUBSTRUCTURE
     1 1W0         1 TEMP              0 ****  ****    0 ROOT
