@<TRIPOS>MOLECULE
1W1
   41    37     1     0     0
SMALL
bcc


@<TRIPOS>ATOM
      1 C4          1.3190   -1.1250    0.8530 c1        1 1W1      0.120000
      2 C6          0.6630    0.1060    2.7530 c1        1 1W1     -0.114500
      3 C8          1.1970   -0.3710   -1.6510 c3        1 1W1     -0.056000
      4 C10        -0.2650   -0.0400   -1.9400 c3        1 1W1      0.039000
      5 C17        -0.3790    1.4620   -0.6410 c2        1 1W1     -0.139000
      6 C20        -0.9470    3.6160    1.0230 c1        1 1W1      0.127000
      7 C21        -1.2270    2.3370    1.4440 c2        1 1W1     -0.207000
      8 C22        -0.9440    1.2500    0.6130 c2        1 1W1      0.145000
      9 C1          1.8260   -0.2800    3.4130 c1        1 1W1     -0.114500
     10 C2          2.7290   -1.0890    2.7860 c1        1 1W1     -0.042000
     11 C3          2.4930   -1.5160    1.5160 c1        1 1W1     -0.073000
     12 N5          0.4240   -0.3230    1.4770 n1        1 1W1     -0.186000
     13 N7          1.0250   -1.6450   -0.4900 n2        1 1W1     -0.223000
     14 C9          0.1150   -0.0240   -2.1660 c3        1 1W1     -0.123000
     15 C11        -0.3390   -2.2490   -0.7350 c3        1 1W1      0.197000
     16 C12        -0.1820   -2.2220   -0.4900 c3        1 1W1     -0.128000
     17 O13        -1.8040   -2.3050   -0.4790 os        1 1W1     -0.292000
     18 C14        -2.4810   -1.1870   -1.8820 c1        1 1W1     -0.006000
     19 N15        -1.1930   -0.0910   -2.6140 n2        1 1W1     -0.194000
     20 N16        -3.8780   -0.7730   -1.8860 n2        1 1W1     -0.299000
     21 C18        -0.1000    2.7440   -1.0590 c1        1 1W1     -0.065000
     22 C19        -0.3820    3.8270   -0.2300 c1        1 1W1     -0.182000
     23 F23        -2.1890    0.7120    0.8650 f         1 1W1     -0.092000
     24 F24        -1.3230    4.6370    1.7470 f         1 1W1     -0.098000
     25 C25         3.4490   -2.4510    0.8540 c1        1 1W1     -0.080000
     26 N26         4.1690   -3.1570    0.3550 n1        1 1W1     -0.039000
     27 H1          0.0270    0.6760    3.1960 ha        1 1W1      0.161000
     28 H2          1.8310   -0.6860   -2.3960 h1        1 1W1      0.102500
     29 H3          1.5840    0.3860   -1.2180 h1        1 1W1      0.102500
     30 H4         -1.6160    2.1910    2.3070 ha        1 1W1      0.167000
     31 H5          1.9960    0.0270    4.3260 ha        1 1W1      0.161000
     32 H6          3.5600   -1.3650    3.2580 ha        1 1W1      0.153000
     33 H7         -0.0080   -0.5690   -2.9630 hc        1 1W1      0.107500
     34 H8          0.2290    0.9220   -2.4680 hc        1 1W1      0.107500
     35 H9         -0.0270   -3.0020   -1.3120 h1        1 1W1      0.103000
     36 H10        -0.7710   -1.6900    0.1930 h1        1 1W1      0.120000
     37 H11        -0.0620   -3.1260   -0.1290 h1        1 1W1      0.120000
     38 H12        -4.1670   -0.1160   -2.4820 hn        1 1W1      0.210500
     39 H13        -4.4570   -1.1280   -1.2900 hn        1 1W1      0.210500
     40 H14         0.2910    2.8920   -1.9240 ha        1 1W1      0.145000
     41 H15        -0.1810    4.7440   -0.5320 ha        1 1W1      0.155000
@<TRIPOS>BOND
     1    1   11 1   
     2    1   12 1   
     3    2    9 1   
     4    2   27 1   
     5    3   13 1   
     6    3   14 1   
     7    3   28 1   
     8    3   29 1   
     9    4    5 1   
    10    4   14 1   
    11    4   15 1   
    12    4   19 1   
    13    5    8 1   
    14    5   21 1   
    15    6    7 1   
    16    6   22 1   
    17    7    8 1   
    18    7   30 1   
    19    8   23 1   
    20    9   31 1   
    21   10   11 1   
    22   10   32 1   
    23   13   16 1   
    24   14   33 1   
    25   14   34 1   
    26   15   16 1   
    27   15   17 1   
    28   15   35 1   
    29   16   36 1   
    30   16   37 1   
    31   17   18 1   
    32   18   19 1   
    33   20   38 1   
    34   20   39 1   
    35   21   40 1   
    36   22   41 1   
    37   25   26 1   
@<TRIPOS>SUBSTRUCTURE
     1 1W1         1 TEMP              0 ****  ****    0 ROOT
