@<TRIPOS>MOLECULE
1W1
   42    45     1     0     0
SMALL
bcc


@<TRIPOS>ATOM
      1 C4          0.2170    0.1060   -0.0320 ca        1 1W1      0.625200
      2 C6          1.0830    0.0740    2.1180 ca        1 1W1      0.450200
      3 C8         -1.5330   -1.2790   -1.0110 c3        1 1W1      0.159800
      4 C10        -3.1270   -0.1680   -2.6960 c3        1 1W1      0.184500
      5 C17        -4.6020   -0.0870   -3.0240 ca        1 1W1     -0.171300
      6 C20        -7.3990    0.1290   -3.3800 ca        1 1W1      0.186900
      7 C21        -6.6140   -0.4730   -4.3700 ca        1 1W1     -0.206000
      8 C22        -5.2200   -0.5870   -4.1910 ca        1 1W1      0.184900
      9 C1          2.4030    0.2590    1.6620 ca        1 1W1     -0.237300
     10 C2          2.6230    0.3810    0.2930 ca        1 1W1     -0.036000
     11 C3          1.5250    0.3100   -0.5760 ca        1 1W1     -0.147300
     12 N5          0.0130   -0.0020    1.3100 nb        1 1W1     -0.684000
     13 N7         -0.8720    0.0230   -0.9750 nh        1 1W1     -0.757300
     14 C9         -2.9430   -1.2290   -1.5930 c3        1 1W1     -0.075400
     15 C11        -2.6090    1.2500   -2.1880 c3        1 1W1      0.118100
     16 C12        -1.8030    1.1410   -0.8890 c3        1 1W1      0.155800
     17 O13        -1.7090    1.7120   -3.2470 os        1 1W1     -0.429400
     18 C14        -1.5220    0.6000   -4.0800 c2        1 1W1      0.631500
     19 N15        -2.2510   -0.4610   -3.8600 n2        1 1W1     -0.513900
     20 N16        -0.4880    0.7990   -5.0900 n4        1 1W1     -0.783600
     21 C18        -5.4250    0.4940   -2.0430 ca        1 1W1     -0.084000
     22 C19        -6.7950    0.6130   -2.2000 ca        1 1W1     -0.169000
     23 F23        -4.5270   -1.1930   -5.1820 f         1 1W1     -0.123900
     24 F24        -8.7330    0.2410   -3.5500 f         1 1W1     -0.109900
     25 C25         1.6580    0.4470   -1.9800 cg        1 1W1      0.372800
     26 N26         1.6690    0.5600   -3.1380 n1        1 1W1     -0.502800
     27 H1          0.8640   -0.0210    3.2000 h4        1 1W1      0.050100
     28 H2         -0.8810   -1.9400   -1.6500 h1        1 1W1      0.069200
     29 H3         -1.6050   -1.7580    0.0090 h1        1 1W1      0.069200
     30 H4         -7.0790   -0.8670   -5.2880 ha        1 1W1      0.182000
     31 H5          3.2370    0.3070    2.3780 ha        1 1W1      0.173000
     32 H6          3.6390    0.5310   -0.1060 ha        1 1W1      0.166000
     33 H7         -3.6800   -0.9960   -0.7790 hc        1 1W1      0.085700
     34 H8         -3.1970   -2.2420   -2.0030 hc        1 1W1      0.085700
     35 H9         -3.4080    2.0300   -2.1260 h1        1 1W1      0.122700
     36 H10        -2.5330    1.0410   -0.0350 h1        1 1W1      0.079200
     37 H11        -1.2200    2.0940   -0.7460 h1        1 1W1      0.079200
     38 H12         0.4480    0.6970   -4.6320 hn        1 1W1      0.497133
     39 H13        -0.5890    0.1050   -5.8410 hn        1 1W1      0.497133
     40 H14        -4.9730    0.8610   -1.1050 ha        1 1W1      0.141000
     41 H15        -7.4190    1.0740   -1.4180 ha        1 1W1      0.172000
     42 H163       -0.5800    1.7510   -5.4670 hn        1 1W1      0.497133
@<TRIPOS>BOND
     1    1   11 ar  
     2    1   12 ar  
     3    1   13 1   
     4    2    9 ar  
     5    2   12 ar  
     6    2   27 1   
     7    3   13 1   
     8    3   14 1   
     9    3   28 1   
    10    3   29 1   
    11    4    5 1   
    12    4   14 1   
    13    4   15 1   
    14    4   19 1   
    15    5    8 ar  
    16    5   21 ar  
    17    6    7 ar  
    18    6   22 ar  
    19    6   24 1   
    20    7    8 ar  
    21    7   30 1   
    22    8   23 1   
    23    9   10 ar  
    24    9   31 1   
    25   10   11 ar  
    26   10   32 1   
    27   11   25 1   
    28   13   16 1   
    29   14   33 1   
    30   14   34 1   
    31   15   16 1   
    32   15   17 1   
    33   15   35 1   
    34   16   36 1   
    35   16   37 1   
    36   17   18 1   
    37   18   19 2   
    38   18   20 1   
    39   20   38 1   
    40   20   39 1   
    41   20   42 1   
    42   21   22 ar  
    43   21   40 1   
    44   22   41 1   
    45   25   26 3   
@<TRIPOS>SUBSTRUCTURE
     1 1W1         1 TEMP              0 ****  ****    0 ROOT
