@<TRIPOS>MOLECULE
1W1
   41    44     1     0     0
SMALL
bcc


@<TRIPOS>ATOM
      1 C4          2.8810   -1.0150   -0.0900 ca        1 1W1      0.636200
      2 C6          4.0510   -3.0200   -0.2270 ca        1 1W1      0.435200
      3 C8          0.6730   -0.7840   -1.1250 c3        1 1W1      0.172800
      4 C10        -1.0860    0.8610   -0.2680 c3        1 1W1      0.191500
      5 C17        -2.3260    0.0120   -0.0640 ca        1 1W1     -0.122300
      6 C20        -4.5820   -1.6350    0.3800 ca        1 1W1      0.154900
      7 C21        -4.6710   -0.5590   -0.5120 ca        1 1W1     -0.218000
      8 C22        -3.5420    0.2510   -0.7490 ca        1 1W1      0.189900
      9 C1          5.2870   -2.4010    0.0390 ca        1 1W1     -0.265300
     10 C2          5.3010   -1.0260    0.2450 ca        1 1W1     -0.049000
     11 C3          4.0960   -0.3080    0.1810 ca        1 1W1     -0.126300
     12 N5          2.8820   -2.3700   -0.2850 nb        1 1W1     -0.703000
     13 N7          1.6690   -0.2560   -0.2000 nh        1 1W1     -0.722300
     14 C9         -0.3350    0.2960   -1.4960 c3        1 1W1     -0.071400
     15 C11        -0.2040    0.8690    1.0490 c3        1 1W1      0.114100
     16 C12         1.0990    0.0710    1.0990 c3        1 1W1      0.174800
     17 O13         0.1190    2.2630    1.2670 os        1 1W1     -0.458400
     18 C14        -0.6880    3.0080    0.3690 c2        1 1W1      0.765500
     19 N15        -1.3910    2.2920   -0.4900 n2        1 1W1     -0.679900
     20 N16        -0.6670    4.3780    0.5930 nh        1 1W1     -0.866800
     21 C18        -2.2650   -1.1000    0.7860 ca        1 1W1     -0.091000
     22 C19        -3.3620   -1.9170    1.0220 ca        1 1W1     -0.184000
     23 F23        -3.6750    1.2310   -1.6700 f         1 1W1     -0.112900
     24 F24        -5.6660   -2.4100    0.6130 f         1 1W1     -0.134900
     25 C25         4.1080    1.0980    0.3650 cg        1 1W1      0.248800
     26 N26         4.1260    2.2530    0.5050 n1        1 1W1     -0.357800
     27 H1          3.9910   -4.1120   -0.3970 h4        1 1W1      0.030100
     28 H2          1.1960   -1.1190   -2.0640 h1        1 1W1      0.052700
     29 H3          0.1300   -1.6740   -0.6930 h1        1 1W1      0.052700
     30 H4         -5.6150   -0.3450   -1.0360 ha        1 1W1      0.166000
     31 H5          6.2110   -2.9930    0.0780 ha        1 1W1      0.154000
     32 H6          6.2440   -0.4960    0.4510 ha        1 1W1      0.153000
     33 H7          0.1970    1.1230   -2.0370 hc        1 1W1      0.069700
     34 H8         -1.0800   -0.1420   -2.2100 hc        1 1W1      0.069700
     35 H9         -0.8320    0.5780    1.9380 h1        1 1W1      0.074700
     36 H10         0.8880   -0.8660    1.6970 h1        1 1W1      0.059200
     37 H11         1.8620    0.6830    1.6640 h1        1 1W1      0.059200
     38 H12         0.1420    4.6920    1.0820 hn        1 1W1      0.424300
     39 H13        -0.9320    4.9310   -0.1930 hn        1 1W1      0.424300
     40 H14        -1.3130   -1.3600    1.2780 ha        1 1W1      0.139000
     41 H15        -3.2890   -2.7790    1.7000 ha        1 1W1      0.153000
@<TRIPOS>BOND
     1    1   11 ar  
     2    1   12 ar  
     3    1   13 1   
     4    2    9 ar  
     5    2   12 ar  
     6    2   27 1   
     7    3   13 1   
     8    3   14 1   
     9    3   28 1   
    10    3   29 1   
    11    4    5 1   
    12    4   14 1   
    13    4   15 1   
    14    4   19 1   
    15    5    8 ar  
    16    5   21 ar  
    17    6    7 ar  
    18    6   22 ar  
    19    6   24 1   
    20    7    8 ar  
    21    7   30 1   
    22    8   23 1   
    23    9   10 ar  
    24    9   31 1   
    25   10   11 ar  
    26   10   32 1   
    27   11   25 1   
    28   13   16 1   
    29   14   33 1   
    30   14   34 1   
    31   15   16 1   
    32   15   17 1   
    33   15   35 1   
    34   16   36 1   
    35   16   37 1   
    36   17   18 1   
    37   18   19 2   
    38   18   20 1   
    39   20   38 1   
    40   20   39 1   
    41   21   22 ar  
    42   21   40 1   
    43   22   41 1   
    44   25   26 3   
@<TRIPOS>SUBSTRUCTURE
     1 1W1         1 TEMP              0 ****  ****    0 ROOT
