@<TRIPOS>MOLECULE
1W1
   42    45     1     0     0
SMALL
bcc


@<TRIPOS>ATOM
      1 C4          0.2010    0.1060   -0.0290 ca        1 1W1      0.621200
      2 C6          1.0570    0.0580    2.1250 ca        1 1W1      0.447200
      3 C8         -1.5440   -1.2720   -1.0220 c3        1 1W1      0.158800
      4 C10        -3.1440   -0.1480   -2.6900 c3        1 1W1      0.183500
      5 C17        -4.6180   -0.0690   -3.0220 ca        1 1W1     -0.171300
      6 C20        -7.4160    0.1360   -3.3780 ca        1 1W1      0.186900
      7 C21        -6.6250   -0.4410   -4.3780 ca        1 1W1     -0.206000
      8 C22        -5.2300   -0.5490   -4.1990 ca        1 1W1      0.183900
      9 C1          2.3800    0.2410    1.6760 ca        1 1W1     -0.237300
     10 C2          2.6050    0.3700    0.3090 ca        1 1W1     -0.039000
     11 C3          1.5110    0.3090   -0.5670 ca        1 1W1     -0.140300
     12 N5         -0.0090   -0.0090    1.3120 nb        1 1W1     -0.686000
     13 N7         -0.8870    0.0320   -0.9740 nh        1 1W1     -0.754300
     14 C9         -2.9550   -1.2210   -1.6010 c3        1 1W1     -0.075400
     15 C11        -2.6340    1.2670   -2.1630 c3        1 1W1      0.119100
     16 C12        -1.8240    1.1430   -0.8690 c3        1 1W1      0.154800
     17 O13        -1.7370    1.7480   -3.2180 os        1 1W1     -0.429400
     18 C14        -1.5400    0.6450   -4.0610 c2        1 1W1      0.629500
     19 N15        -2.2610   -0.4240   -3.8550 n2        1 1W1     -0.509900
     20 N16        -0.5060    0.8610   -5.0700 nz        1 1W1     -0.761600
     21 C18        -5.4470    0.4890   -2.0300 ca        1 1W1     -0.084000
     22 C19        -6.8170    0.6020   -2.1880 ca        1 1W1     -0.169000
     23 F23        -4.5310   -1.1290   -5.2010 f         1 1W1     -0.124900
     24 F24        -8.7500    0.2410   -3.5480 f         1 1W1     -0.108900
     25 C25         1.6610    0.4570   -1.9680 cg        1 1W1      0.346800
     26 N26         1.6960    0.5820   -3.1240 n1        1 1W1     -0.489800
     27 H1          0.8330   -0.0420    3.2060 h4        1 1W1      0.049100
     28 H2         -1.6120   -1.7630   -0.0080 h1        1 1W1      0.069200
     29 H3         -0.8910   -1.9240   -1.6710 h1        1 1W1      0.069200
     30 H4         -7.0850   -0.8200   -5.3050 ha        1 1W1      0.182000
     31 H5          3.2100    0.2820    2.3960 ha        1 1W1      0.173000
     32 H6          3.6240    0.5200   -0.0840 ha        1 1W1      0.165000
     33 H7         -3.6910   -1.0000   -0.7820 hc        1 1W1      0.085700
     34 H8         -3.2070   -2.2300   -2.0220 hc        1 1W1      0.085700
     35 H9         -3.4370    2.0420   -2.0910 h1        1 1W1      0.123700
     36 H10        -1.2440    2.0970   -0.7140 h1        1 1W1      0.079200
     37 H11        -2.5500    1.0290   -0.0140 h1        1 1W1      0.079200
     38 H12        -0.9520    1.0040   -5.9850 hn        1 1W1      0.494133
     39 H13         0.0390    1.6970   -4.8070 hn        1 1W1      0.494133
     40 H14        -4.9980    0.8410   -1.0860 ha        1 1W1      0.142000
     41 H15        -7.4450    1.0430   -1.3990 ha        1 1W1      0.172000
     42 H163        0.1190    0.0410   -5.1080 hn        1 1W1      0.494133
@<TRIPOS>BOND
     1    1   11 ar  
     2    1   12 ar  
     3    1   13 1   
     4    2    9 ar  
     5    2   12 ar  
     6    2   27 1   
     7    3   13 1   
     8    3   14 1   
     9    3   28 1   
    10    3   29 1   
    11    4    5 1   
    12    4   14 1   
    13    4   15 1   
    14    4   19 1   
    15    5    8 ar  
    16    5   21 ar  
    17    6    7 ar  
    18    6   22 ar  
    19    6   24 1   
    20    7    8 ar  
    21    7   30 1   
    22    8   23 1   
    23    9   10 ar  
    24    9   31 1   
    25   10   11 ar  
    26   10   32 1   
    27   11   25 1   
    28   13   16 1   
    29   14   33 1   
    30   14   34 1   
    31   15   16 1   
    32   15   17 1   
    33   15   35 1   
    34   16   36 1   
    35   16   37 1   
    36   17   18 1   
    37   18   19 2   
    38   18   20 1   
    39   20   38 1   
    40   20   39 1   
    41   20   42 1   
    42   21   22 ar  
    43   21   40 1   
    44   22   41 1   
    45   25   26 3   
@<TRIPOS>SUBSTRUCTURE
     1 1W1         1 TEMP              0 ****  ****    0 ROOT
