@<TRIPOS>MOLECULE
1W1
   42    45     1     0     0
SMALL
bcc


@<TRIPOS>ATOM
      1 C4          0.2510    0.1280    0.0080 ca        1 1W1      0.625200
      2 C6          1.1000    0.1050    2.1650 ca        1 1W1      0.450200
      3 C8         -1.5000   -1.2520   -0.9760 c3        1 1W1      0.159800
      4 C10        -3.0730   -0.1420   -2.6810 c3        1 1W1      0.184500
      5 C17        -4.5440   -0.0550   -3.0220 ca        1 1W1     -0.171300
      6 C20        -7.3380    0.1760   -3.4020 ca        1 1W1      0.186900
      7 C21        -6.5480   -0.4370   -4.3820 ca        1 1W1     -0.206000
      8 C22        -5.1560   -0.5580   -4.1900 ca        1 1W1      0.184900
      9 C1          2.4250    0.2790    1.7180 ca        1 1W1     -0.237300
     10 C2          2.6560    0.3900    0.3500 ca        1 1W1     -0.036000
     11 C3          1.5650    0.3210   -0.5270 ca        1 1W1     -0.147300
     12 N5          0.0360    0.0300    1.3490 nb        1 1W1     -0.684000
     13 N7         -0.8310    0.0460   -0.9440 nh        1 1W1     -0.757300
     14 C9         -2.9040   -1.1970   -1.5710 c3        1 1W1     -0.075400
     15 C11        -2.5510    1.2760   -2.1780 c3        1 1W1      0.118100
     16 C12        -1.7560    1.1700   -0.8730 c3        1 1W1      0.155800
     17 O13        -1.6380    1.7260   -3.2330 os        1 1W1     -0.429400
     18 C14        -1.4520    0.6070   -4.0580 c2        1 1W1      0.631500
     19 N15        -2.1890   -0.4490   -3.8370 n2        1 1W1     -0.513900
     20 N16        -0.4080    0.7930   -5.0600 n4        1 1W1     -0.783600
     21 C18        -5.3720    0.5380   -2.0510 ca        1 1W1     -0.084000
     22 C19        -6.7400    0.6640   -2.2210 ca        1 1W1     -0.169000
     23 F23        -4.4580   -1.1750   -5.1720 f         1 1W1     -0.123900
     24 F24        -8.6690    0.2950   -3.5840 f         1 1W1     -0.109900
     25 C25         1.7100    0.4480   -1.9310 cg        1 1W1      0.372800
     26 N26         1.7320    0.5540   -3.0890 n1        1 1W1     -0.502800
     27 H1          0.8720    0.0180    3.2460 h4        1 1W1      0.050100
     28 H2         -1.5830   -1.7240    0.0460 h1        1 1W1      0.069200
     29 H3         -0.8460   -1.9210   -1.6060 h1        1 1W1      0.069200
     30 H4         -7.0070   -0.8340   -5.3010 ha        1 1W1      0.182000
     31 H5          3.2530    0.3260    2.4410 ha        1 1W1      0.173000
     32 H6          3.6770    0.5320   -0.0410 ha        1 1W1      0.166000
     33 H7         -3.6460   -0.9550   -0.7630 hc        1 1W1      0.085700
     34 H8         -3.1610   -2.2120   -1.9760 hc        1 1W1      0.085700
     35 H9         -3.3450    2.0610   -2.1280 h1        1 1W1      0.122700
     36 H10        -1.1680    2.1200   -0.7300 h1        1 1W1      0.079200
     37 H11        -2.4930    1.0800   -0.0230 h1        1 1W1      0.079200
     38 H12        -0.5070    0.0950   -5.8080 hn        1 1W1      0.497133
     39 H13        -0.4920    1.7430   -5.4440 hn        1 1W1      0.497133
     40 H14        -4.9250    0.9080   -1.1120 ha        1 1W1      0.141000
     41 H15        -7.3670    1.1340   -1.4470 ha        1 1W1      0.172000
     42 H163        0.5230    0.6890   -4.5940 hn        1 1W1      0.497133
@<TRIPOS>BOND
     1    1   11 ar  
     2    1   12 ar  
     3    1   13 1   
     4    2    9 ar  
     5    2   12 ar  
     6    2   27 1   
     7    3   13 1   
     8    3   14 1   
     9    3   28 1   
    10    3   29 1   
    11    4    5 1   
    12    4   14 1   
    13    4   15 1   
    14    4   19 1   
    15    5    8 ar  
    16    5   21 ar  
    17    6    7 ar  
    18    6   22 ar  
    19    6   24 1   
    20    7    8 ar  
    21    7   30 1   
    22    8   23 1   
    23    9   10 ar  
    24    9   31 1   
    25   10   11 ar  
    26   10   32 1   
    27   11   25 1   
    28   13   16 1   
    29   14   33 1   
    30   14   34 1   
    31   15   16 1   
    32   15   17 1   
    33   15   35 1   
    34   16   36 1   
    35   16   37 1   
    36   17   18 1   
    37   18   19 2   
    38   18   20 1   
    39   20   38 1   
    40   20   39 1   
    41   20   42 1   
    42   21   22 ar  
    43   21   40 1   
    44   22   41 1   
    45   25   26 3   
@<TRIPOS>SUBSTRUCTURE
     1 1W1         1 TEMP              0 ****  ****    0 ROOT
