@<TRIPOS>MOLECULE
1W2
   42    45     1     0     0
SMALL
bcc


@<TRIPOS>ATOM
      1 C4          0.0110    0.1320    0.0670 ca        1 1W2      0.592200
      2 C6          0.3880    0.3170    2.3490 ca        1 1W2      0.429200
      3 C8         -1.6670   -1.2110   -1.0460 c3        1 1W2      0.162800
      4 C10        -2.8740   -0.2760   -3.1000 c3        1 1W2      0.145100
      5 C17        -1.6760    1.9410   -3.5860 ca        1 1W2     -0.173300
      6 C20        -0.0950    3.4600   -5.3700 ca        1 1W2      0.186900
      7 C21         0.1050    2.0760   -5.2710 ca        1 1W2     -0.199000
      8 C22        -0.6800    1.3230   -4.3780 ca        1 1W2      0.184900
      9 C1          1.7870    0.3150    2.1830 ca        1 1W2     -0.233300
     10 C2          2.3000    0.2200    0.8930 ca        1 1W2     -0.054000
     11 C3          1.4130    0.1280   -0.1930 ca        1 1W2     -0.088300
     12 N5         -0.4850    0.2290    1.3360 nb        1 1W2     -0.701000
     13 N7         -0.8830    0.0210   -1.0660 nh        1 1W2     -0.710300
     14 C9         -2.2780   -1.4840   -2.4150 c3        1 1W2     -0.090400
     15 C11        -2.5020    1.1760   -2.5790 c3        1 1W2      0.183500
     16 C12        -1.7360    1.1900   -1.2120 c3        1 1W2      0.180800
     17 N13        -3.8360    1.8260   -2.3620 n2        1 1W2     -0.527900
     18 C14        -4.7490    0.9200   -2.5750 c2        1 1W2      0.609500
     19 O15        -4.3460   -0.3590   -2.9530 os        1 1W2     -0.449400
     20 N16        -6.2020    1.0550   -2.4700 n4        1 1W2     -0.769600
     21 C18        -1.8270    3.3330   -3.6900 ca        1 1W2     -0.067000
     22 C19        -1.0660    4.0910   -4.5680 ca        1 1W2     -0.182000
     23 F23        -0.4390   -0.0060   -4.3070 f         1 1W2     -0.122900
     24 F24         0.6490    4.1890   -6.2290 f         1 1W2     -0.110900
     25 C25         1.9100    0.0370   -1.5180 cg        1 1W2      0.239800
     26 N26         2.3030   -0.0340   -2.6100 n1        1 1W2     -0.338800
     27 H1         -0.0620    0.3920    3.3580 h4        1 1W2      0.039100
     28 H2         -0.9810   -2.0660   -0.7850 h1        1 1W2      0.061700
     29 H3         -2.4830   -1.1790   -0.2670 h1        1 1W2      0.061700
     30 H4         -2.7160   -0.3350   -4.2140 h1        1 1W2      0.107700
     31 H5          0.8800    1.5760   -5.8730 ha        1 1W2      0.187000
     32 H6          2.4510    0.3870    3.0560 ha        1 1W2      0.167000
     33 H7          3.3880    0.2160    0.7160 ha        1 1W2      0.166000
     34 H8         -1.4770   -1.8850   -3.0980 hc        1 1W2      0.090700
     35 H9         -3.0650   -2.2770   -2.3070 hc        1 1W2      0.090700
     36 H10        -2.4780    1.2710   -0.3640 h1        1 1W2      0.071700
     37 H11        -1.0880    2.1110   -1.1900 h1        1 1W2      0.071700
     38 H12        -6.4530    2.0030   -2.1580 hn        1 1W2      0.490133
     39 H13        -6.5450    0.3560   -1.7960 hn        1 1W2      0.490133
     40 H14        -2.5540    3.8640   -3.0540 ha        1 1W2      0.151000
     41 H15        -1.2050    5.1810   -4.6380 ha        1 1W2      0.168000
     42 H163       -6.6130    0.8660   -3.3960 hn        1 1W2      0.490133
@<TRIPOS>BOND
     1    1   11 ar  
     2    1   12 ar  
     3    1   13 1   
     4    2    9 ar  
     5    2   12 ar  
     6    2   27 1   
     7    3   13 1   
     8    3   14 1   
     9    3   28 1   
    10    3   29 1   
    11    4   14 1   
    12    4   15 1   
    13    4   19 1   
    14    4   30 1   
    15    5    8 ar  
    16    5   15 1   
    17    5   21 ar  
    18    6    7 ar  
    19    6   22 ar  
    20    6   24 1   
    21    7    8 ar  
    22    7   31 1   
    23    8   23 1   
    24    9   10 ar  
    25    9   32 1   
    26   10   11 ar  
    27   10   33 1   
    28   11   25 1   
    29   13   16 1   
    30   14   34 1   
    31   14   35 1   
    32   15   16 1   
    33   15   17 1   
    34   16   36 1   
    35   16   37 1   
    36   17   18 2   
    37   18   19 1   
    38   18   20 1   
    39   20   38 1   
    40   20   39 1   
    41   20   42 1   
    42   21   22 ar  
    43   21   40 1   
    44   22   41 1   
    45   25   26 3   
@<TRIPOS>SUBSTRUCTURE
     1 1W2         1 TEMP              0 ****  ****    0 ROOT
