@<TRIPOS>MOLECULE
1W2
   42    45     1     0     0
SMALL
bcc


@<TRIPOS>ATOM
      1 C4          0.0590    0.1060    0.0720 ca        1 1W2      0.592200
      2 C6          0.4840    0.2640    2.3480 ca        1 1W2      0.429200
      3 C8         -1.6480   -1.2190   -1.0190 c3        1 1W2      0.162800
      4 C10        -2.8960   -0.2580   -3.0370 c3        1 1W2      0.145100
      5 C17        -1.7000    1.9610   -3.5240 ca        1 1W2     -0.173300
      6 C20        -0.1520    3.4940   -5.3250 ca        1 1W2      0.186900
      7 C21         0.0440    2.1080   -5.2450 ca        1 1W2     -0.199000
      8 C22        -0.7230    1.3480   -4.3440 ca        1 1W2      0.184900
      9 C1          1.8790    0.2600    2.1510 ca        1 1W2     -0.233300
     10 C2          2.3650    0.1780    0.8500 ca        1 1W2     -0.054000
     11 C3          1.4540    0.1010   -0.2170 ca        1 1W2     -0.088300
     12 N5         -0.4110    0.1910    1.3520 nb        1 1W2     -0.701000
     13 N7         -0.8610    0.0110   -1.0420 nh        1 1W2     -0.710300
     14 C9         -2.2890   -1.4750   -2.3780 c3        1 1W2     -0.090400
     15 C11        -2.5080    1.1870   -2.5080 c3        1 1W2      0.183500
     16 C12        -1.7120    1.1840   -1.1570 c3        1 1W2      0.180800
     17 N13        -3.8340    1.8390   -2.2560 n2        1 1W2     -0.527900
     18 C14        -4.7540    0.9390   -2.4590 c2        1 1W2      0.609500
     19 O15        -4.3640   -0.3370   -2.8580 os        1 1W2     -0.449400
     20 N16        -6.2050    1.0770   -2.3210 nz        1 1W2     -0.769600
     21 C18        -1.8490    3.3540   -3.6100 ca        1 1W2     -0.067000
     22 C19        -1.1050    4.1190   -4.4950 ca        1 1W2     -0.182000
     23 F23        -0.4860    0.0170   -4.2930 f         1 1W2     -0.122900
     24 F24         0.5750    4.2290   -6.1920 f         1 1W2     -0.110900
     25 C25         1.9230    0.0240   -1.5540 cg        1 1W2      0.239800
     26 N26         2.2910   -0.0360   -2.6550 n1        1 1W2     -0.338800
     27 H1          0.0560    0.3290    3.3660 h4        1 1W2      0.039100
     28 H2         -2.4470   -1.1930   -0.2230 h1        1 1W2      0.061700
     29 H3         -0.9600   -2.0790   -0.7820 h1        1 1W2      0.061700
     30 H4         -2.7620   -0.3050   -4.1540 h1        1 1W2      0.107700
     31 H5          0.8050    1.6120   -5.8690 ha        1 1W2      0.187000
     32 H6          2.5620    0.3200    3.0110 ha        1 1W2      0.167000
     33 H7          3.4480    0.1730    0.6500 ha        1 1W2      0.166000
     34 H8         -1.5040   -1.8710   -3.0820 hc        1 1W2      0.090700
     35 H9         -3.0760   -2.2670   -2.2610 hc        1 1W2      0.090700
     36 H10        -1.0600    2.1030   -1.1390 h1        1 1W2      0.071700
     37 H11        -2.4360    1.2580   -0.2930 h1        1 1W2      0.071700
     38 H12        -6.4450    2.0210   -1.9890 hn        1 1W2      0.490133
     39 H13        -6.6360    0.9030   -3.2400 hn        1 1W2      0.490133
     40 H14        -2.5600    3.8810   -2.9520 ha        1 1W2      0.151000
     41 H15        -1.2410    5.2100   -4.5500 ha        1 1W2      0.168000
     42 H163       -6.5350    0.3690   -1.6500 hn        1 1W2      0.490133
@<TRIPOS>BOND
     1    1   11 ar  
     2    1   12 ar  
     3    1   13 1   
     4    2    9 ar  
     5    2   12 ar  
     6    2   27 1   
     7    3   13 1   
     8    3   14 1   
     9    3   28 1   
    10    3   29 1   
    11    4   14 1   
    12    4   15 1   
    13    4   19 1   
    14    4   30 1   
    15    5    8 ar  
    16    5   15 1   
    17    5   21 ar  
    18    6    7 ar  
    19    6   22 ar  
    20    6   24 1   
    21    7    8 ar  
    22    7   31 1   
    23    8   23 1   
    24    9   10 ar  
    25    9   32 1   
    26   10   11 ar  
    27   10   33 1   
    28   11   25 1   
    29   13   16 1   
    30   14   34 1   
    31   14   35 1   
    32   15   16 1   
    33   15   17 1   
    34   16   36 1   
    35   16   37 1   
    36   17   18 2   
    37   18   19 1   
    38   18   20 1   
    39   20   38 1   
    40   20   39 1   
    41   20   42 1   
    42   21   22 ar  
    43   21   40 1   
    44   22   41 1   
    45   25   26 3   
@<TRIPOS>SUBSTRUCTURE
     1 1W2         1 TEMP              0 ****  ****    0 ROOT
