@<TRIPOS>MOLECULE
1W2
   41    44     1     0     0
SMALL
bcc


@<TRIPOS>ATOM
      1 C4         -2.5790    0.1390    0.0800 ca        1 1W2      0.667200
      2 C6         -3.8610    1.5860    1.3770 ca        1 1W2      0.436200
      3 C8         -1.5660    0.8350   -2.0620 c3        1 1W2      0.178800
      4 C10         0.8070    1.4710   -1.4220 c3        1 1W2      0.117100
      5 C17         2.0090   -0.2090    0.0810 ca        1 1W2     -0.120300
      6 C20         4.4530   -1.5250    0.6150 ca        1 1W2      0.154900
      7 C21         3.9530   -1.4970   -0.6950 ca        1 1W2     -0.208000
      8 C22         2.7350   -0.8450   -0.9540 ca        1 1W2      0.145900
      9 C1         -4.4920    0.5360    2.0680 ca        1 1W2     -0.272300
     10 C2         -4.1390   -0.7670    1.7350 ca        1 1W2     -0.043000
     11 C3         -3.1820   -0.9880    0.7340 ca        1 1W2     -0.136300
     12 N5         -2.9330    1.4150    0.4260 nb        1 1W2     -0.715000
     13 N7         -1.6440   -0.1280   -0.9690 nh        1 1W2     -0.734300
     14 C9         -0.1500    1.1360   -2.5480 c3        1 1W2     -0.104400
     15 C11         0.6940    0.4830   -0.1920 c3        1 1W2      0.147500
     16 C12        -0.3590   -0.6220   -0.5140 c3        1 1W2      0.194800
     17 N13         0.2340    1.3310    0.9220 n2        1 1W2     -0.698900
     18 C14         0.1380    2.5750    0.4820 c2        1 1W2      0.777500
     19 O15         0.4670    2.7720   -0.8820 os        1 1W2     -0.459400
     20 N16        -0.1690    3.7450    1.1670 nh        1 1W2     -0.859800
     21 C18         2.5330   -0.2700    1.3790 ca        1 1W2     -0.054000
     22 C19         3.7360   -0.9100    1.6560 ca        1 1W2     -0.184000
     23 F23         2.2800   -0.8500   -2.2320 f         1 1W2     -0.141900
     24 F24         5.6260   -2.1490    0.8730 f         1 1W2     -0.133900
     25 C25        -2.8460   -2.3180    0.3750 cg        1 1W2      0.248800
     26 N26        -2.5840   -3.4120    0.0780 n1        1 1W2     -0.363800
     27 H1         -4.1120    2.6390    1.6050 h4        1 1W2      0.020100
     28 H2         -2.1450    0.3710   -2.9140 h1        1 1W2      0.061700
     29 H3         -2.0570    1.8170   -1.8140 h1        1 1W2      0.061700
     30 H4          1.8600    1.5560   -1.7950 h1        1 1W2      0.086700
     31 H5          4.5030   -1.9820   -1.5150 ha        1 1W2      0.166000
     32 H6         -5.2400    0.7450    2.8430 ha        1 1W2      0.152000
     33 H7         -4.6060   -1.6250    2.2450 ha        1 1W2      0.151000
     34 H8          0.2670    0.2570   -3.1060 hc        1 1W2      0.070200
     35 H9         -0.2030    2.0040   -3.2560 hc        1 1W2      0.070200
     36 H10        -0.5000   -1.2660    0.3980 h1        1 1W2      0.078200
     37 H11         0.0580   -1.2590   -1.3450 h1        1 1W2      0.078200
     38 H12        -0.7330    3.6090    1.9770 hn        1 1W2      0.420300
     39 H13        -0.4650    4.4870    0.5700 hn        1 1W2      0.420300
     40 H14         1.9880    0.1960    2.2180 ha        1 1W2      0.169000
     41 H15         4.1300   -0.9420    2.6820 ha        1 1W2      0.155000
@<TRIPOS>BOND
     1    1   11 ar  
     2    1   12 ar  
     3    1   13 1   
     4    2    9 ar  
     5    2   12 ar  
     6    2   27 1   
     7    3   13 1   
     8    3   14 1   
     9    3   28 1   
    10    3   29 1   
    11    4   14 1   
    12    4   15 1   
    13    4   19 1   
    14    4   30 1   
    15    5    8 ar  
    16    5   15 1   
    17    5   21 ar  
    18    6    7 ar  
    19    6   22 ar  
    20    6   24 1   
    21    7    8 ar  
    22    7   31 1   
    23    8   23 1   
    24    9   10 ar  
    25    9   32 1   
    26   10   11 ar  
    27   10   33 1   
    28   11   25 1   
    29   13   16 1   
    30   14   34 1   
    31   14   35 1   
    32   15   16 1   
    33   15   17 1   
    34   16   36 1   
    35   16   37 1   
    36   17   18 2   
    37   18   19 1   
    38   18   20 1   
    39   20   38 1   
    40   20   39 1   
    41   21   22 ar  
    42   21   40 1   
    43   22   41 1   
    44   25   26 3   
@<TRIPOS>SUBSTRUCTURE
     1 1W2         1 TEMP              0 ****  ****    0 ROOT
