@<TRIPOS>MOLECULE
1W2
   42    45     1     0     0
SMALL
bcc


@<TRIPOS>ATOM
      1 C4         -0.3930   -0.0220    0.0160 ca        1 1W2      0.641200
      2 C6         -1.4310    0.5720    2.0090 ca        1 1W2      0.407200
      3 C8         -1.2620   -1.5920   -1.6640 c3        1 1W2      0.181800
      4 C10        -2.7190   -0.1060   -3.1220 c3        1 1W2      0.132100
      5 C17        -1.5700    2.0210   -4.0000 ca        1 1W2     -0.162300
      6 C20        -1.1490    3.7000   -6.2320 ca        1 1W2      0.186900
      7 C21        -1.0630    2.3070   -6.3860 ca        1 1W2     -0.197000
      8 C22        -1.2660    1.4780   -5.2710 ca        1 1W2      0.160900
      9 C1         -0.2150    0.6950    2.6980 ca        1 1W2     -0.228300
     10 C2          0.9640    0.4560    1.9940 ca        1 1W2     -0.039000
     11 C3          0.8910    0.0930    0.6430 ca        1 1W2     -0.080300
     12 N5         -1.5410    0.2390    0.7110 nb        1 1W2     -0.780000
     13 N7         -0.4070   -0.4550   -1.3530 nh        1 1W2     -0.753300
     14 C9         -2.0550   -1.4550   -2.9610 c3        1 1W2     -0.116400
     15 C11        -1.7690    1.1270   -2.8060 c3        1 1W2      0.133500
     16 C12        -0.3710    0.5860   -2.3480 c3        1 1W2      0.202800
     17 N13        -2.4240    1.8120   -1.6620 n2        1 1W2     -0.521900
     18 C14        -3.4700    1.1010   -1.3380 c2        1 1W2      0.632500
     19 O15        -3.7980   -0.0060   -2.1270 os        1 1W2     -0.439400
     20 N16        -4.3520    1.2600   -0.1850 n4        1 1W2     -0.763600
     21 C18        -1.6250    3.4160   -3.8780 ca        1 1W2     -0.060000
     22 C19        -1.4260    4.2530   -4.9670 ca        1 1W2     -0.176000
     23 F23        -1.1540    0.1390   -5.4490 f         1 1W2     -0.136900
     24 F24        -0.9590    4.5060   -7.2970 f         1 1W2     -0.108900
     25 C25         2.0800   -0.1660   -0.0860 cg        1 1W2      0.221800
     26 N26         3.0510   -0.3820   -0.6880 n1        1 1W2     -0.306800
     27 H1         -2.3860    0.7480    2.5390 h4        1 1W2      0.006100
     28 H2         -1.9810   -1.8180   -0.8280 h1        1 1W2      0.068700
     29 H3         -0.5710   -2.4810   -1.7630 h1        1 1W2      0.068700
     30 H4         -3.2270   -0.0000   -4.1160 h1        1 1W2      0.116700
     31 H5         -0.8310    1.8650   -7.3680 ha        1 1W2      0.184000
     32 H6         -0.1970    0.9680    3.7630 ha        1 1W2      0.171000
     33 H7          1.9450    0.5430    2.4910 ha        1 1W2      0.175000
     34 H8         -1.3810   -1.6110   -3.8480 hc        1 1W2      0.093700
     35 H9         -2.8390   -2.2580   -2.9840 hc        1 1W2      0.093700
     36 H10         0.2550    1.4460   -1.9820 h1        1 1W2      0.098700
     37 H11         0.1140    0.1490   -3.2700 h1        1 1W2      0.098700
     38 H12        -5.3190    1.0730   -0.4820 hn        1 1W2      0.490133
     39 H13        -4.0640    0.5670    0.5250 hn        1 1W2      0.490133
     40 H14        -1.8170    3.8870   -2.9000 ha        1 1W2      0.154000
     41 H15        -1.4760    5.3470   -4.8520 ha        1 1W2      0.170000
     42 H163       -4.2680    2.2100    0.1980 hn        1 1W2      0.490133
@<TRIPOS>BOND
     1    1   11 ar  
     2    1   12 ar  
     3    1   13 1   
     4    2    9 ar  
     5    2   12 ar  
     6    2   27 1   
     7    3   13 1   
     8    3   14 1   
     9    3   28 1   
    10    3   29 1   
    11    4   14 1   
    12    4   15 1   
    13    4   19 1   
    14    4   30 1   
    15    5    8 ar  
    16    5   15 1   
    17    5   21 ar  
    18    6    7 ar  
    19    6   22 ar  
    20    6   24 1   
    21    7    8 ar  
    22    7   31 1   
    23    8   23 1   
    24    9   10 ar  
    25    9   32 1   
    26   10   11 ar  
    27   10   33 1   
    28   11   25 1   
    29   13   16 1   
    30   14   34 1   
    31   14   35 1   
    32   15   16 1   
    33   15   17 1   
    34   16   36 1   
    35   16   37 1   
    36   17   18 2   
    37   18   19 1   
    38   18   20 1   
    39   20   38 1   
    40   20   39 1   
    41   20   42 1   
    42   21   22 ar  
    43   21   40 1   
    44   22   41 1   
    45   25   26 3   
@<TRIPOS>SUBSTRUCTURE
     1 1W2         1 TEMP              0 ****  ****    0 ROOT
