@<TRIPOS>MOLECULE
1W2
   41    36     1     0     0
SMALL
bcc


@<TRIPOS>ATOM
      1 C4          1.2420   -0.3150    2.2360 c1        1 1W2      0.121000
      2 C6          3.1480    0.3320    3.4630 c1        1 1W2     -0.114500
      3 C8          0.7950   -1.8330    0.2580 c3        1 1W2     -0.054000
      4 C10         0.6400   -0.8020   -2.0500 c3        1 1W2     -0.014000
      5 C17        -1.0970    0.8230   -1.1470 c1        1 1W2     -0.095000
      6 C20        -3.8400    1.1750   -0.9170 c1        1 1W2      0.121000
      7 C21        -3.3270    0.1820   -1.7510 c2        1 1W2     -0.213000
      8 C22        -1.9520    0.0100   -1.8620 c2        1 1W2      0.116000
      9 C1          2.6150   -0.2810    4.6270 c1        1 1W2     -0.114500
     10 C2          1.4060   -0.8990    4.5760 c1        1 1W2     -0.048000
     11 C3          0.7050   -0.9310    3.4050 c1        1 1W2     -0.064000
     12 N5          2.4450    0.3000    2.2890 n1        1 1W2     -0.178000
     13 N7          0.5080   -0.4110    0.9330 n3        1 1W2     -0.234000
     14 C9          0.1960   -1.9300   -1.2360 c3        1 1W2     -0.147000
     15 C11         0.3520    0.7010   -1.3240 c2        1 1W2      0.033000
     16 C12         0.9340    0.8290   -0.0210 c3        1 1W2     -0.036000
     17 N13         0.6180    1.3830   -2.0600 n2        1 1W2     -0.258000
     18 C14         0.2760    0.8030   -3.3600 c1        1 1W2      0.189000
     19 O15         0.1430   -0.6630   -3.2150 os        1 1W2     -0.237000
     20 N16         0.8240    1.3610   -4.5670 n2        1 1W2     -0.308000
     21 C18        -1.6160    1.8190   -0.3110 c1        1 1W2     -0.051000
     22 C19        -2.9810    1.9890   -0.2010 c1        1 1W2     -0.183000
     23 F23        -2.2260   -0.9320   -2.8070 f         1 1W2     -0.100000
     24 F24        -5.1700    1.4090   -0.8880 f         1 1W2     -0.101000
     25 C25        -0.7360   -1.4970    3.3880 c1        1 1W2     -0.085000
     26 N26        -1.7920   -1.9130    3.3760 n1        1 1W2     -0.031000
     27 H1          3.9960    0.7650    3.4990 ha        1 1W2      0.160500
     28 H2          1.7590   -1.9770    0.2230 h1        1 1W2      0.088000
     29 H3          0.3710   -2.5620    0.8320 h1        1 1W2      0.088000
     30 H4          1.5960   -0.8930   -2.1570 h1        1 1W2      0.100000
     31 H5         -3.9210   -0.3810   -2.2460 ha        1 1W2      0.162000
     32 H6          3.1330   -0.2580    5.4930 ha        1 1W2      0.160500
     33 H7          1.0170   -1.3460    5.4250 ha        1 1W2      0.153000
     34 H8          0.4920   -2.7480   -1.6410 hc        1 1W2      0.111500
     35 H9         -0.7460   -1.9280   -1.1930 hc        1 1W2      0.111500
     36 H10         1.9330    0.8480   -0.1080 h1        1 1W2      0.104000
     37 H11         0.6360    1.6550    0.3810 h1        1 1W2      0.104000
     38 H12         1.6500    1.6990   -4.5660 hn        1 1W2      0.221500
     39 H13         0.3320    1.3280   -5.3630 hn        1 1W2      0.221500
     40 H14        -1.0110    2.3940    0.1960 ha        1 1W2      0.148000
     41 H15        -3.3460    2.6940    0.3900 ha        1 1W2      0.153000
@<TRIPOS>BOND
     1    1   12 1   
     2    1   13 1   
     3    2    9 1   
     4    2   27 1   
     5    3   13 1   
     6    3   14 1   
     7    3   28 1   
     8    3   29 1   
     9    4   14 1   
    10    4   15 1   
    11    4   19 1   
    12    4   30 1   
    13    5    8 1   
    14    5   21 1   
    15    6    7 1   
    16    6   22 1   
    17    7    8 1   
    18    7   31 1   
    19    8   23 1   
    20    9   32 1   
    21   10   11 1   
    22   10   33 1   
    23   13   16 1   
    24   14   34 1   
    25   14   35 1   
    26   15   16 1   
    27   15   17 1   
    28   16   36 1   
    29   16   37 1   
    30   17   18 1   
    31   18   19 1   
    32   20   38 1   
    33   20   39 1   
    34   21   40 1   
    35   22   41 1   
    36   25   26 1   
@<TRIPOS>SUBSTRUCTURE
     1 1W2         1 TEMP              0 ****  ****    0 ROOT
