@<TRIPOS>MOLECULE
1W3
   42    34     1     0     0
SMALL
bcc


@<TRIPOS>ATOM
      1 CAC         1.3660   -2.7490   -1.7840 c3        1 1W3     -0.196000
      2 CAR         0.7300   -2.2010   -0.5370 c2        1 1W3      0.054000
      3 CAX         1.5070   -2.1630    0.7480 c2        1 1W3     -0.168000
      4 CAJ         2.8880   -2.3810    0.7340 c2        1 1W3     -0.036000
      5 CAI         3.6270   -2.2450    1.9080 c1        1 1W3     -0.240000
      6 CAQ         2.9850   -1.8900    3.1050 c1        1 1W3      0.124000
      7 OAE         3.7330   -1.7360    4.2840 oh        1 1W3     -0.240000
      8 CAM         1.6080   -1.6720    3.1210 c1        1 1W3     -0.184000
      9 CAW         0.8650   -1.8070    1.9460 c1        1 1W3      0.139000
     10 OAN        -0.6100   -1.5750    1.9640 o         1 1W3     -0.238500
     11 CAV        -1.3450   -1.5260    0.7340 c1        1 1W3      0.342000
     12 OAD        -2.5410   -1.3050    0.7490 o         1 1W3     -0.238500
     13 CAU        -0.6720   -1.8540   -0.5360 c1        1 1W3     -0.154000
     14 CAH        -1.4460   -1.8180   -1.8360 c1        1 1W3     -0.103500
     15 CAG        -1.9270   -0.6480   -2.3020 c1        1 1W3     -0.103500
     16 CAS        -1.6550    0.6360   -1.5470 c1        1 1W3     -0.086000
     17 CAK        -0.4700    1.3210   -1.7560 c1        1 1W3     -0.088000
     18 CAO        -0.2690    2.5540   -1.1570 c1        1 1W3     -0.153000
     19 CAA         1.0050    3.3190   -1.4170 c2        1 1W3     -0.174000
     20 CAT        -1.2520    3.1010   -0.3500 c1        1 1W3      0.082000
     21 OAF        -1.0670    4.3760    0.2170 o         1 1W3     -0.250000
     22 CAP        -2.4360    2.4160   -0.1410 c1        1 1W3     -0.089000
     23 CAB        -3.5060    3.0090    0.7430 c2        1 1W3     -0.174000
     24 CAL        -2.6380    1.1830   -0.7400 c2        1 1W3     -0.083000
     25 H1          2.0870   -2.1550   -2.0700 hc        1 1W3      0.098667
     26 H2          1.7320   -3.6430   -1.5990 hc        1 1W3      0.098667
     27 H3          0.6940   -2.8120   -2.4920 hc        1 1W3      0.098667
     28 H4          3.3350   -2.6280   -0.0990 ha        1 1W3      0.141000
     29 H5          4.5910   -2.3910    1.8970 ha        1 1W3      0.141000
     30 H6          3.8830   -2.5340    4.6470 ho        1 1W3      0.224000
     31 H7          1.1620   -1.4240    3.9550 ha        1 1W3      0.177000
     32 H8         -1.6210   -2.6450   -2.3230 ha        1 1W3      0.133000
     33 H9         -2.4250   -0.6240   -3.1390 ha        1 1W3      0.133000
     34 H10         0.2140    0.9470   -2.3440 ha        1 1W3      0.131000
     35 H11         1.6290    2.7540   -1.9200 ha        1 1W3      0.085833
     36 H12         0.8030    4.1230   -1.9350 ha        1 1W3      0.085833
     37 H13         1.4130    3.5750   -0.5620 ha        1 1W3      0.085833
     38 H14        -1.2900    4.9990   -0.3760 ho        1 1W3      0.218000
     39 H15        -4.1900    2.3320    0.9280 ha        1 1W3      0.085833
     40 H16        -3.1050    3.3070    1.5860 ha        1 1W3      0.085833
     41 H17        -3.9190    3.7750    0.2890 ha        1 1W3      0.085833
     42 H18        -3.4740    0.7000   -0.5920 ha        1 1W3      0.150000
@<TRIPOS>BOND
     1    1    2 1   
     2    1   25 1   
     3    1   26 1   
     4    1   27 1   
     5    2    3 1   
     6    2   13 1   
     7    3    4 1   
     8    3    9 1   
     9    4    5 1   
    10    4   28 1   
    11    5   29 1   
    12    6    7 1   
    13    6    8 1   
    14    7   30 1   
    15    8   31 1   
    16   10   11 1   
    17   11   12 1   
    18   14   15 1   
    19   14   32 1   
    20   15   33 1   
    21   16   24 1   
    22   17   18 1   
    23   17   34 1   
    24   18   20 1   
    25   19   35 1   
    26   19   36 1   
    27   19   37 1   
    28   20   22 1   
    29   21   38 1   
    30   22   24 1   
    31   23   39 1   
    32   23   40 1   
    33   23   41 1   
    34   24   42 1   
@<TRIPOS>SUBSTRUCTURE
     1 1W3         1 TEMP              0 ****  ****    0 ROOT
