@<TRIPOS>MOLECULE
1W3
   42    44     1     0     0
SMALL
bcc


@<TRIPOS>ATOM
      1 CAC         0.1360    1.3390   -0.4830 c3        1 1W3     -0.073900
      2 CAR         1.5880    1.1310   -0.6940 cc        1 1W3      0.064600
      3 CAX         2.2730    0.1570    0.1300 ca        1 1W3     -0.180800
      4 CAJ         1.6220   -0.6170    1.1110 ca        1 1W3     -0.044000
      5 CAI         2.3150   -1.5340    1.8780 ca        1 1W3     -0.184000
      6 CAQ         3.7040   -1.7000    1.6740 ca        1 1W3      0.173100
      7 OAE         4.3260   -2.6260    2.4720 oh        1 1W3     -0.488100
      8 CAM         4.3890   -0.9560    0.7130 ca        1 1W3     -0.245000
      9 CAW         3.6580   -0.0320   -0.0530 ca        1 1W3      0.191100
     10 OAN         4.3850    0.6700   -0.9850 os        1 1W3     -0.327200
     11 CAV         3.7280    1.6010   -1.7920 c         1 1W3      0.727800
     12 OAD         4.5260    2.1200   -2.5730 o         1 1W3     -0.565500
     13 CAU         2.2930    1.8270   -1.6290 cd        1 1W3     -0.176200
     14 CAH         1.7060    2.8640   -2.4690 cf        1 1W3     -0.121000
     15 CAG         1.1020    2.7020   -3.6520 ce        1 1W3     -0.074200
     16 CAS         0.9140    1.4580   -4.3850 ca        1 1W3     -0.097800
     17 CAK         1.9650    0.5470   -4.5520 ca        1 1W3     -0.085500
     18 CAO         1.7880   -0.6290   -5.2800 ca        1 1W3     -0.128300
     19 CAA         2.8930   -1.5950   -5.4630 c3        1 1W3     -0.048800
     20 CAT         0.5220   -0.8900   -5.8460 ca        1 1W3      0.127100
     21 OAF         0.4110   -2.0710   -6.5440 oh        1 1W3     -0.496100
     22 CAP        -0.5450    0.0160   -5.6950 ca        1 1W3     -0.128300
     23 CAB        -1.8710   -0.2570   -6.2960 c3        1 1W3     -0.048800
     24 CAL        -0.3290    1.1880   -4.9670 ca        1 1W3     -0.085500
     25 H1         -0.2630    2.1370   -1.1570 hc        1 1W3      0.059700
     26 H2         -0.0590    1.6390    0.5770 hc        1 1W3      0.059700
     27 H3         -0.4200    0.3900   -0.6930 hc        1 1W3      0.059700
     28 H4          0.5390   -0.4880    1.2680 ha        1 1W3      0.143000
     29 H5          1.8110   -2.1400    2.6440 ha        1 1W3      0.158000
     30 H6          5.2660   -2.6480    2.2360 ho        1 1W3      0.428000
     31 H7          5.4670   -1.0750    0.5420 ha        1 1W3      0.162000
     32 H8          1.8020    3.8810   -2.0420 ha        1 1W3      0.136000
     33 H9          0.6820    3.5910   -4.1600 ha        1 1W3      0.130000
     34 H10         2.9510    0.7720   -4.1110 ha        1 1W3      0.140500
     35 H11         2.6440   -2.5610   -4.9550 hc        1 1W3      0.046367
     36 H12         3.0370   -1.8100   -6.5520 hc        1 1W3      0.046367
     37 H13         3.8510   -1.2030   -5.0430 hc        1 1W3      0.046367
     38 H14        -0.4830   -2.1250   -6.9140 ho        1 1W3      0.419000
     39 H15        -2.5930    0.5640   -6.0660 hc        1 1W3      0.046367
     40 H16        -1.7880   -0.3430   -7.4100 hc        1 1W3      0.046367
     41 H17        -2.2940   -1.2140   -5.8980 hc        1 1W3      0.046367
     42 H18        -1.1530    1.9090   -4.8490 ha        1 1W3      0.140500
@<TRIPOS>BOND
     1    1    2 1   
     2    1   25 1   
     3    1   26 1   
     4    1   27 1   
     5    2    3 1   
     6    2   13 2   
     7    3    4 ar  
     8    3    9 ar  
     9    4    5 ar  
    10    4   28 1   
    11    5    6 ar  
    12    5   29 1   
    13    6    7 1   
    14    6    8 ar  
    15    7   30 1   
    16    8    9 ar  
    17    8   31 1   
    18    9   10 1   
    19   10   11 1   
    20   11   12 2   
    21   11   13 1   
    22   13   14 1   
    23   14   15 2   
    24   14   32 1   
    25   15   16 1   
    26   15   33 1   
    27   16   17 ar  
    28   16   24 ar  
    29   17   18 ar  
    30   17   34 1   
    31   18   19 1   
    32   18   20 ar  
    33   19   35 1   
    34   19   36 1   
    35   19   37 1   
    36   20   21 1   
    37   20   22 ar  
    38   21   38 1   
    39   22   23 1   
    40   22   24 ar  
    41   23   39 1   
    42   23   40 1   
    43   23   41 1   
    44   24   42 1   
@<TRIPOS>SUBSTRUCTURE
     1 1W3         1 TEMP              0 ****  ****    0 ROOT
