@<TRIPOS>MOLECULE
1W3
   42    44     1     0     0
SMALL
bcc


@<TRIPOS>ATOM
      1 CAC         0.1590    1.4500   -0.4490 c3        1 1W3     -0.073900
      2 CAR         1.5930    1.1590   -0.6870 cc        1 1W3      0.064600
      3 CAX         2.2410    0.1600    0.1370 ca        1 1W3     -0.180800
      4 CAJ         1.5690   -0.5630    1.1420 ca        1 1W3     -0.043000
      5 CAI         2.2280   -1.5060    1.9090 ca        1 1W3     -0.183000
      6 CAQ         3.6010   -1.7490    1.6800 ca        1 1W3      0.173100
      7 OAE         4.1890   -2.6960    2.4790 oh        1 1W3     -0.488100
      8 CAM         4.3050   -1.0580    0.6930 ca        1 1W3     -0.246000
      9 CAW         3.6080   -0.1070   -0.0720 ca        1 1W3      0.191100
     10 OAN         4.3520    0.5390   -1.0310 os        1 1W3     -0.327200
     11 CAV         3.7300    1.4930   -1.8390 c         1 1W3      0.728800
     12 OAD         4.5370    1.9520   -2.6470 o         1 1W3     -0.567500
     13 CAU         2.3140    1.8020   -1.6470 cd        1 1W3     -0.175200
     14 CAH         1.7640    2.8610   -2.4870 cf        1 1W3     -0.122000
     15 CAG         1.1530    2.7180   -3.6690 ce        1 1W3     -0.072200
     16 CAS         0.9240    1.4800   -4.4000 ca        1 1W3     -0.098800
     17 CAK         1.9570    0.5640   -4.6170 ca        1 1W3     -0.086000
     18 CAO         1.7400   -0.6080   -5.3470 ca        1 1W3     -0.128300
     19 CAA         2.8490   -1.5620   -5.5720 c3        1 1W3     -0.048800
     20 CAT         0.4530   -0.8540   -5.8600 ca        1 1W3      0.127100
     21 OAF         0.1350   -1.9810   -6.5840 oh        1 1W3     -0.498100
     22 CAP        -0.6030    0.0620   -5.6570 ca        1 1W3     -0.128300
     23 CAB        -1.9440   -0.2240   -6.2130 c3        1 1W3     -0.048800
     24 CAL        -0.3480    1.2240   -4.9320 ca        1 1W3     -0.086000
     25 H1         -0.2090    2.2620   -1.1240 hc        1 1W3      0.060033
     26 H2          0.0040    1.7720    0.6120 hc        1 1W3      0.060033
     27 H3         -0.4530    0.5320   -0.6360 hc        1 1W3      0.060033
     28 H4          0.4990   -0.3730    1.3190 ha        1 1W3      0.144000
     29 H5          1.7080   -2.0720    2.6950 ha        1 1W3      0.158000
     30 H6          5.1220   -2.7690    2.2290 ho        1 1W3      0.428000
     31 H7          5.3720   -1.2380    0.5030 ha        1 1W3      0.162000
     32 H8          1.8930    3.8730   -2.0590 ha        1 1W3      0.136000
     33 H9          0.7620    3.6200   -4.1780 ha        1 1W3      0.131000
     34 H10         2.9620    0.7770   -4.2130 ha        1 1W3      0.141500
     35 H11         3.7940   -1.1980   -5.0980 hc        1 1W3      0.046367
     36 H12         2.6040   -2.5620   -5.1340 hc        1 1W3      0.046367
     37 H13         3.0390   -1.6920   -6.6680 hc        1 1W3      0.046367
     38 H14         0.9340   -2.5190   -6.6760 ho        1 1W3      0.421000
     39 H15        -2.6610    0.6040   -5.9950 hc        1 1W3      0.046367
     40 H16        -1.8760   -0.3620   -7.3210 hc        1 1W3      0.046367
     41 H17        -2.3440   -1.1740   -5.7760 hc        1 1W3      0.046367
     42 H18        -1.1600    1.9510   -4.7740 ha        1 1W3      0.141500
@<TRIPOS>BOND
     1    1    2 1   
     2    1   25 1   
     3    1   26 1   
     4    1   27 1   
     5    2    3 1   
     6    2   13 2   
     7    3    4 ar  
     8    3    9 ar  
     9    4    5 ar  
    10    4   28 1   
    11    5    6 ar  
    12    5   29 1   
    13    6    7 1   
    14    6    8 ar  
    15    7   30 1   
    16    8    9 ar  
    17    8   31 1   
    18    9   10 1   
    19   10   11 1   
    20   11   12 2   
    21   11   13 1   
    22   13   14 1   
    23   14   15 2   
    24   14   32 1   
    25   15   16 1   
    26   15   33 1   
    27   16   17 ar  
    28   16   24 ar  
    29   17   18 ar  
    30   17   34 1   
    31   18   19 1   
    32   18   20 ar  
    33   19   35 1   
    34   19   36 1   
    35   19   37 1   
    36   20   21 1   
    37   20   22 ar  
    38   21   38 1   
    39   22   23 1   
    40   22   24 ar  
    41   23   39 1   
    42   23   40 1   
    43   23   41 1   
    44   24   42 1   
@<TRIPOS>SUBSTRUCTURE
     1 1W3         1 TEMP              0 ****  ****    0 ROOT
