@<TRIPOS>MOLECULE
1W3
   42    44     1     0     0
SMALL
bcc


@<TRIPOS>ATOM
      1 CAC         1.5700    2.4760    0.2760 c3        1 1W3     -0.073900
      2 CAR         1.9500    1.0580    0.0700 cc        1 1W3      0.049600
      3 CAX         3.3610    0.7330    0.0570 ca        1 1W3     -0.179800
      4 CAJ         4.3770    1.7020    0.1810 ca        1 1W3     -0.046000
      5 CAI         5.7130    1.3480    0.1570 ca        1 1W3     -0.183000
      6 CAQ         6.0690   -0.0110    0.0040 ca        1 1W3      0.173100
      7 OAE         7.4130   -0.2870   -0.0090 oh        1 1W3     -0.488100
      8 CAM         5.0970   -1.0030   -0.1260 ca        1 1W3     -0.245000
      9 CAW         3.7470   -0.6130   -0.0980 ca        1 1W3      0.191100
     10 OAN         2.8360   -1.6320   -0.2300 os        1 1W3     -0.325200
     11 CAV         1.4730   -1.3260   -0.2290 c         1 1W3      0.729800
     12 OAD         0.8170   -2.3620   -0.3410 o         1 1W3     -0.569500
     13 CAU         1.0290    0.0630   -0.1000 cd        1 1W3     -0.160200
     14 CAH        -0.3980    0.3220   -0.1830 cf        1 1W3     -0.143000
     15 CAG        -1.3520   -0.5210    0.2470 ce        1 1W3     -0.063200
     16 CAS        -2.7790   -0.2610    0.1650 ca        1 1W3     -0.092800
     17 CAK        -3.6670   -1.3490    0.2140 ca        1 1W3     -0.083000
     18 CAO        -5.0440   -1.1590    0.1410 ca        1 1W3     -0.129800
     19 CAA        -5.9850   -2.3010    0.1840 c3        1 1W3     -0.048300
     20 CAT        -5.5420    0.1570    0.0220 ca        1 1W3      0.130100
     21 OAF        -6.9110    0.2750   -0.0440 oh        1 1W3     -0.496100
     22 CAP        -4.6720    1.2620   -0.0210 ca        1 1W3     -0.129800
     23 CAB        -5.1960    2.6420   -0.1390 c3        1 1W3     -0.048300
     24 CAL        -3.2950    1.0340    0.0510 ca        1 1W3     -0.083000
     25 H1          1.8670    3.0820   -0.6170 hc        1 1W3      0.058367
     26 H2          0.4720    2.5990    0.4400 hc        1 1W3      0.058367
     27 H3          2.0960    2.8860    1.1750 hc        1 1W3      0.058367
     28 H4          4.1030    2.7630    0.2940 ha        1 1W3      0.142000
     29 H5          6.5080    2.1020    0.2530 ha        1 1W3      0.158000
     30 H6          7.5260   -1.2430   -0.1190 ho        1 1W3      0.428000
     31 H7          5.3570   -2.0630   -0.2470 ha        1 1W3      0.162000
     32 H8         -0.6680    1.2840   -0.6530 ha        1 1W3      0.128000
     33 H9         -1.0780   -1.5020    0.6800 ha        1 1W3      0.150000
     34 H10        -3.2660   -2.3710    0.3070 ha        1 1W3      0.137000
     35 H11        -6.6830   -2.1880    1.0510 hc        1 1W3      0.046033
     36 H12        -6.6010   -2.3230   -0.7500 hc        1 1W3      0.046033
     37 H13        -5.4420   -3.2720    0.2820 hc        1 1W3      0.046033
     38 H14        -7.1340    1.2130   -0.1300 ho        1 1W3      0.420000
     39 H15        -5.8650    2.8850    0.7240 hc        1 1W3      0.046033
     40 H16        -4.3640    3.3880   -0.1520 hc        1 1W3      0.046033
     41 H17        -5.7820    2.7610   -1.0860 hc        1 1W3      0.046033
     42 H18        -2.6100    1.8960    0.0250 ha        1 1W3      0.137000
@<TRIPOS>BOND
     1    1    2 1   
     2    1   25 1   
     3    1   26 1   
     4    1   27 1   
     5    2    3 1   
     6    2   13 2   
     7    3    4 ar  
     8    3    9 ar  
     9    4    5 ar  
    10    4   28 1   
    11    5    6 ar  
    12    5   29 1   
    13    6    7 1   
    14    6    8 ar  
    15    7   30 1   
    16    8    9 ar  
    17    8   31 1   
    18    9   10 1   
    19   10   11 1   
    20   11   12 2   
    21   11   13 1   
    22   13   14 1   
    23   14   15 2   
    24   14   32 1   
    25   15   16 1   
    26   15   33 1   
    27   16   17 ar  
    28   16   24 ar  
    29   17   18 ar  
    30   17   34 1   
    31   18   19 1   
    32   18   20 ar  
    33   19   35 1   
    34   19   36 1   
    35   19   37 1   
    36   20   21 1   
    37   20   22 ar  
    38   21   38 1   
    39   22   23 1   
    40   22   24 ar  
    41   23   39 1   
    42   23   40 1   
    43   23   41 1   
    44   24   42 1   
@<TRIPOS>SUBSTRUCTURE
     1 1W3         1 TEMP              0 ****  ****    0 ROOT
