@<TRIPOS>MOLECULE
1W4
   54    53     1     0     0
SMALL
bcc


@<TRIPOS>ATOM
      1 C1          0.1020    2.2910    0.3090 c2        1 1W4     -0.518000
      2 O2          1.1820    3.1080    0.4440 os        1 1W4      0.118000
      3 C3         -0.3900    1.5230    1.4290 c2        1 1W4     -0.079000
      4 C4          0.5070    0.6060    2.0950 c2        1 1W4      0.004000
      5 C5          0.0720   -0.1860    3.1190 c2        1 1W4     -0.244000
      6 C6         -1.2690   -0.1860    3.5620 c1        1 1W4     -0.079000
      7 C7         -2.2140    0.7520    2.9370 c3        1 1W4     -0.222000
      8 C8         -1.6910    1.5850    1.8260 c2        1 1W4     -0.098000
      9 N9         -2.1140   -1.9030    5.7010 n2        1 1W4     -0.388000
     10 C10        -2.4020   -2.6050    6.6000 c1        1 1W4      0.017000
     11 C11         1.7600    3.3620    1.5770 c2        1 1W4     -0.166000
     12 C12        -3.5030    0.0620    2.7300 c1        1 1W4      0.044000
     13 C13        -3.9830   -0.2170    1.3830 c3        1 1W4     -0.195000
     14 C14        -5.4710   -0.2650    1.3010 ca        1 1W4     -0.098000
     15 C15        -6.1070    0.1020    0.1110 ca        1 1W4     -0.088500
     16 C16        -7.4960    0.0460   -0.0040 ca        1 1W4     -0.122000
     17 C17        -8.2480   -0.3900    1.1080 ca        1 1W4      0.079000
     18 C18        -7.6230   -0.7610    2.3120 ca        1 1W4     -0.122000
     19 C19        -6.2290   -0.6920    2.3930 ca        1 1W4     -0.088500
     20 C26        -8.1830    0.4300   -1.2560 c3        1 1W4     -0.173500
     21 C27        -8.4140   -1.2160    3.4790 c3        1 1W4     -0.173500
     22 O28        -9.6140   -0.4220    0.9290 oh        1 1W4     -0.253000
     23 S1         -0.5320    2.3520   -1.2140 ss        1 1W4      0.504000
     24 H1          1.5480    0.5610    1.7310 ha        1 1W4      0.134000
     25 H2         -2.4460    1.4750    3.8120 hc        1 1W4      0.228000
     26 H3         -2.3990    2.2680    1.3280 ha        1 1W4      0.151000
     27 H4         -3.2020    2.5800    5.6290 ha        1 1W4      0.001500
     28 H5         -2.8110    3.0300    5.3070 ha        1 1W4      0.001500
     29 H6          0.7650   -0.8830    3.6210 ha        1 1W4      0.158000
     30 H7          2.6070    4.0590    1.4920 h4        1 1W4      0.165500
     31 H8          1.4270    2.9380    2.5300 h4        1 1W4      0.165500
     32 H9         -1.8780   -1.3060    4.9360 hn        1 1W4      0.325000
     33 H10        -3.5780    0.4600    0.5790 hc        1 1W4      0.124500
     34 H11        -3.5790   -1.2570    1.1570 hc        1 1W4      0.124500
     35 H12        -5.5100    0.4400   -0.7500 ha        1 1W4      0.149000
     36 H13        -5.7150   -0.9680    3.3300 ha        1 1W4      0.149000
     37 H14        -8.8920    1.2740   -1.0590 hc        1 1W4      0.085000
     38 H15        -7.4550    0.7460   -2.0410 hc        1 1W4      0.085000
     39 H16        -8.7820   -0.4320   -1.6430 hc        1 1W4      0.085000
     40 H17        -7.7490   -1.4630    4.3420 hc        1 1W4      0.085000
     41 H18        -9.0030   -2.1320    3.2210 hc        1 1W4      0.085000
     42 H19        -9.1270   -0.4170    3.8070 hc        1 1W4      0.085000
     43 H20       -10.0210   -0.7420    1.7470 ho        1 1W4      0.220000
     44 C2          0.1380    1.1040   -2.1080 c2        1 1W4     -0.375000
     45 C9         -1.3810   -0.7600   -2.6720 c1        1 1W4      0.205000
     46 C20        -0.6200   -1.7260   -3.1600 c2        1 1W4     -0.467000
     47 C21         0.8320   -1.7120   -3.2720 c2        1 1W4      0.142000
     48 C22         1.6190   -0.8120   -2.6270 c2        1 1W4     -0.198000
     49 C23         1.0980    0.2260   -1.7720 c2        1 1W4     -0.129000
     50 F1          1.3770   -2.6780   -4.0530 f         1 1W4     -0.105000
     51 H21        -0.2710    1.1320   -3.1400 h4        1 1W4      0.171000
     52 H22        -1.1190   -2.6520   -3.5150 ha        1 1W4      0.205000
     53 H23         2.7160   -0.8800   -2.7060 ha        1 1W4      0.155000
     54 H24         1.5630    0.2730   -0.7680 ha        1 1W4      0.129000
@<TRIPOS>BOND
     1    1    2 1   
     2    1    3 1   
     3    1   23 1   
     4    2   11 1   
     5    3    4 1   
     6    3    8 1   
     7    4    5 1   
     8    4   24 1   
     9    5    6 1   
    10    5   29 1   
    11    6    7 1   
    12    7    8 1   
    13    7   12 1   
    14    7   25 1   
    15    8   26 1   
    16    9   10 1   
    17    9   32 1   
    18   11   30 1   
    19   11   31 1   
    20   12   13 1   
    21   13   14 1   
    22   13   33 1   
    23   13   34 1   
    24   14   15 1   
    25   14   19 1   
    26   15   16 1   
    27   15   35 1   
    28   16   17 1   
    29   16   20 1   
    30   17   18 1   
    31   17   22 1   
    32   18   19 1   
    33   18   21 1   
    34   19   36 1   
    35   20   37 1   
    36   20   38 1   
    37   20   39 1   
    38   21   40 1   
    39   21   41 1   
    40   21   42 1   
    41   22   43 1   
    42   23   44 1   
    43   27   28 1   
    44   44   49 1   
    45   44   51 1   
    46   45   46 1   
    47   46   47 1   
    48   46   52 1   
    49   47   48 1   
    50   47   50 1   
    51   48   49 1   
    52   48   53 1   
    53   49   54 1   
@<TRIPOS>SUBSTRUCTURE
     1 1W4         1 TEMP              0 ****  ****    0 ROOT
