@<TRIPOS>MOLECULE
1W4
   55    56     1     0     0
SMALL
bcc


@<TRIPOS>ATOM
      1 C1          0.3490   -0.4310    0.0590 c2        1 1W4      0.102000
      2 O2          1.5170   -0.0220    0.0750 o         1 1W4     -0.273000
      3 C3         -0.4090   -0.5760    1.3300 c2        1 1W4     -0.218000
      4 C4          0.1400    0.0960    2.4740 c2        1 1W4      0.094000
      5 C5         -0.5090   -0.0040    3.6870 c2        1 1W4     -0.256000
      6 C6         -1.6970   -0.7560    3.8810 c1        1 1W4     -0.062000
      7 C7         -2.2670   -1.4570    2.7320 c3        1 1W4     -0.113000
      8 C8         -1.5620   -1.2980    1.4350 c2        1 1W4      0.015000
      9 N9         -0.0010    0.6910    4.8870 n4        1 1W4      0.073000
     10 C10        -1.0210    1.6570    5.3840 c3        1 1W4     -0.183500
     11 C11         0.3380   -0.3010    5.9460 c3        1 1W4     -0.183500
     12 C12        -3.7390   -1.1920    2.6530 c2        1 1W4     -0.182000
     13 C13        -4.3350   -0.5700    1.6260 c2        1 1W4     -0.060000
     14 C14        -5.7600   -0.3160    1.5250 ca        1 1W4     -0.114000
     15 C15        -6.2110    0.6140    0.5710 ca        1 1W4     -0.076000
     16 C16        -7.5650    0.9000    0.4290 ca        1 1W4     -0.118500
     17 C17        -8.4910    0.2280    1.2600 ca        1 1W4      0.107000
     18 C18        -8.0610   -0.7140    2.2150 ca        1 1W4     -0.118500
     19 C19        -6.6940   -0.9730    2.3340 ca        1 1W4     -0.076000
     20 C26        -8.0490    1.8810   -0.5670 c3        1 1W4     -0.179500
     21 C27        -9.0350   -1.4230    3.0770 c3        1 1W4     -0.179500
     22 O28        -9.8080    0.5570    1.0670 oh        1 1W4     -0.238000
     23 S1         -0.5890   -0.8590   -1.3040 ss        1 1W4      0.325000
     24 H1          1.0800    0.6640    2.3160 ha        1 1W4      0.182000
     25 H2         -2.1600   -2.5690    3.0150 hc        1 1W4      0.210000
     26 H3         -2.0060   -1.8090    0.5580 ha        1 1W4      0.184000
     27 H4         -1.9770    1.0990    5.5940 hx        1 1W4      0.145167
     28 H5         -0.6410    2.1400    6.3220 hx        1 1W4      0.145167
     29 H6         -1.2070    2.4330    4.5970 hx        1 1W4      0.145167
     30 H7         -0.5780   -0.9120    6.1770 hx        1 1W4      0.145167
     31 H8          1.1540   -0.9740    5.5730 hx        1 1W4      0.145167
     32 H9          0.6790    0.2470    6.8640 hx        1 1W4      0.145167
     33 H10        -3.7410   -0.1970    0.7700 ha        1 1W4      0.120000
     34 H11        -4.2920   -1.5430    3.5390 ha        1 1W4      0.160000
     35 H12        -5.4830    1.1290   -0.0750 ha        1 1W4      0.134000
     36 H13        -6.3570   -1.7150    3.0740 ha        1 1W4      0.134000
     37 H14        -8.6010    2.7080   -0.0520 hc        1 1W4      0.092000
     38 H15        -7.2060    2.3190   -1.1540 hc        1 1W4      0.092000
     39 H16        -8.7640    1.3860   -1.2730 hc        1 1W4      0.092000
     40 H17        -8.5190   -2.1290    3.7730 hc        1 1W4      0.092000
     41 H18        -9.7530   -2.0150    2.4540 hc        1 1W4      0.092000
     42 H19        -9.6180   -0.6930    3.6940 hc        1 1W4      0.092000
     43 H20       -10.3540    0.0290    1.6700 ho        1 1W4      0.229000
     44 C2          0.4380   -0.5610   -2.6210 c2        1 1W4     -0.390000
     45 C9          0.1440   -1.0160   -3.8500 c2        1 1W4     -0.031000
     46 C20         0.9200   -0.7350   -5.0310 c2        1 1W4     -0.232000
     47 C21         1.3520    0.5090   -5.3760 c2        1 1W4      0.185000
     48 C22         1.0630    1.7100   -4.6060 c2        1 1W4     -0.469000
     49 C23         0.6580    1.7840   -3.3500 c1        1 1W4      0.207000
     50 F1          2.0590    0.6960   -6.5150 f         1 1W4     -0.087000
     51 H21        -0.7460   -1.6520   -4.0240 ha        1 1W4      0.147000
     52 H22         1.1180   -1.5910   -5.7000 ha        1 1W4      0.173000
     53 H23         1.1990    2.6700   -5.1550 ha        1 1W4      0.217000
     54 H24         1.3910   -0.0460   -2.3890 h4        1 1W4      0.188000
     55 H91         0.8500    1.2090    4.6360 hn        1 1W4      0.232000
@<TRIPOS>BOND
     1    1    2 1   
     2    1    3 1   
     3    1   23 1   
     4    3    4 1   
     5    3    8 1   
     6    4    5 1   
     7    4   24 1   
     8    5    6 1   
     9    5    9 1   
    10    6    7 1   
    11    7    8 1   
    12    7   12 1   
    13    7   25 1   
    14    8   26 1   
    15    9   10 1   
    16    9   11 1   
    17    9   55 1   
    18   10   27 1   
    19   10   28 1   
    20   10   29 1   
    21   11   30 1   
    22   11   31 1   
    23   11   32 1   
    24   12   13 1   
    25   12   34 1   
    26   13   14 1   
    27   13   33 1   
    28   14   15 1   
    29   14   19 1   
    30   15   16 1   
    31   15   35 1   
    32   16   17 1   
    33   16   20 1   
    34   17   18 1   
    35   17   22 1   
    36   18   19 1   
    37   18   21 1   
    38   19   36 1   
    39   20   37 1   
    40   20   38 1   
    41   20   39 1   
    42   21   40 1   
    43   21   41 1   
    44   21   42 1   
    45   22   43 1   
    46   23   44 1   
    47   44   45 1   
    48   44   54 1   
    49   45   46 1   
    50   45   51 1   
    51   46   47 1   
    52   46   52 1   
    53   47   48 1   
    54   47   50 1   
    55   48   49 1   
    56   48   53 1   
@<TRIPOS>SUBSTRUCTURE
     1 1W4         1 TEMP              0 ****  ****    0 ROOT
