@<TRIPOS>MOLECULE
1W4
   54    45     1     0     0
SMALL
bcc


@<TRIPOS>ATOM
      1 C1          1.5270   -1.1780   -1.4320 c1        1 1W4      0.136000
      2 O2          2.7320   -0.9700   -1.4220 o         1 1W4     -0.286000
      3 C3          0.7550   -1.2250   -0.1220 c1        1 1W4     -0.127000
      4 C4          1.4370   -1.1930    1.0890 c1        1 1W4     -0.128000
      5 C5          0.7360   -1.2410    2.2820 c1        1 1W4      0.043000
      6 C6         -0.6630   -1.3220    2.2710 c1        1 1W4     -0.117000
      7 C7         -1.3460   -1.3540    1.0640 c1        1 1W4     -0.030000
      8 C8         -0.6400   -1.3050   -0.1370 c2        1 1W4     -0.112000
      9 N9          1.4530   -1.3050    3.5370 n3        1 1W4     -0.242000
     10 C10         1.2420   -2.4290    4.4400 c3        1 1W4     -0.106000
     11 C11         2.3820   -0.2670    3.8860 c3        1 1W4     -0.106000
     12 C12        -2.8620   -1.4670    1.0530 c1        1 1W4     -0.115000
     13 C13        -3.6150   -0.3620    0.9790 c1        1 1W4     -0.115000
     14 C14        -2.9470    1.0200    0.9010 c1        1 1W4     -0.089000
     15 C15        -2.5960    1.5430   -0.3250 c1        1 1W4     -0.076000
     16 C16        -2.1080    2.8540   -0.4160 c1        1 1W4     -0.147000
     17 C17        -1.9770    3.6290    0.7320 c1        1 1W4      0.084000
     18 C18        -2.3280    3.1050    1.9650 c1        1 1W4     -0.094000
     19 C19        -2.8150    1.7980    2.0550 c2        1 1W4     -0.093000
     20 C26        -1.7540    3.4390   -1.7640 c3        1 1W4     -0.181000
     21 C27        -2.2070    3.9660    3.2300 c2        1 1W4     -0.167000
     22 O28        -1.5650    4.9710    0.6320 o         1 1W4     -0.251000
     23 S1          0.6640   -1.2220   -2.9530 ss        1 1W4      0.266000
     24 H1          2.4270   -1.1360    1.0990 ha        1 1W4      0.153000
     25 H2         -1.1660   -1.3570    3.1310 ha        1 1W4      0.154000
     26 H3         -1.1160   -1.3270   -0.9820 ha        1 1W4      0.151000
     27 H4          1.1870   -2.0990    5.3750 h1        1 1W4      0.078667
     28 H5          2.0000   -3.0680    4.3580 h1        1 1W4      0.078667
     29 H6          0.3950   -2.8890    4.2020 h1        1 1W4      0.078667
     30 H7          3.1330   -0.6550    4.3940 h1        1 1W4      0.078667
     31 H8          1.9270    0.4080    4.4370 h1        1 1W4      0.078667
     32 H9          2.7270    0.1600    3.0580 h1        1 1W4      0.078667
     33 H10        -3.2870   -2.3440    1.1020 ha        1 1W4      0.127500
     34 H11        -4.5900   -0.4350    0.9730 ha        1 1W4      0.127500
     35 H12        -2.6870    1.0050   -1.1220 ha        1 1W4      0.145000
     36 H13        -3.0680    1.4210    2.9430 ha        1 1W4      0.135000
     37 H14        -2.2390    4.2930   -1.8900 hc        1 1W4      0.085667
     38 H15        -2.0080    2.8080   -2.4740 hc        1 1W4      0.085667
     39 H16        -0.8020    3.6010   -1.8030 hc        1 1W4      0.085667
     40 H17        -1.2600    4.2420    3.3540 ha        1 1W4      0.086000
     41 H18        -2.7680    4.7610    3.1390 ha        1 1W4      0.086000
     42 H19        -2.4950    3.4560    3.9930 ha        1 1W4      0.086000
     43 H20        -0.6780    5.0030    0.5240 ho        1 1W4      0.220000
     44 C2          1.7660   -1.7800   -4.2340 c2        1 1W4     -0.271000
     45 C9          2.4570   -0.8600   -4.9990 c2        1 1W4     -0.083000
     46 C20         3.3430   -1.3000   -5.9940 c1        1 1W4     -0.161000
     47 C21         3.5260   -2.6580   -6.2090 c1        1 1W4      0.098000
     48 C22         2.8290   -3.5900   -5.4370 c1        1 1W4     -0.163000
     49 C23         1.9530   -3.1580   -4.4540 c1        1 1W4     -0.081000
     50 F1          4.4100   -3.0820   -7.1490 f         1 1W4     -0.103000
     51 H21         2.3260    0.1110   -4.8450 ha        1 1W4      0.166000
     52 H22         3.8310   -0.6510   -6.5350 ha        1 1W4      0.153000
     53 H23         2.9600   -4.5540   -5.5910 ha        1 1W4      0.152000
     54 H24         1.4620   -3.8140   -3.9080 ha        1 1W4      0.147000
@<TRIPOS>BOND
     1    1    2 1   
     2    1   23 1   
     3    3    8 1   
     4    4    5 1   
     5    4   24 1   
     6    5    9 1   
     7    6    7 1   
     8    6   25 1   
     9    7    8 1   
    10    8   26 1   
    11    9   10 1   
    12    9   11 1   
    13   10   27 1   
    14   10   28 1   
    15   10   29 1   
    16   11   30 1   
    17   11   31 1   
    18   11   32 1   
    19   12   13 1   
    20   12   33 1   
    21   13   34 1   
    22   14   19 1   
    23   15   16 1   
    24   15   35 1   
    25   16   20 1   
    26   17   18 1   
    27   18   19 1   
    28   19   36 1   
    29   20   37 1   
    30   20   38 1   
    31   20   39 1   
    32   21   40 1   
    33   21   41 1   
    34   21   42 1   
    35   22   43 1   
    36   23   44 1   
    37   44   45 1   
    38   44   49 1   
    39   45   46 1   
    40   45   51 1   
    41   46   52 1   
    42   47   48 1   
    43   47   50 1   
    44   48   53 1   
    45   49   54 1   
@<TRIPOS>SUBSTRUCTURE
     1 1W4         1 TEMP              0 ****  ****    0 ROOT
