@<TRIPOS>MOLECULE
1W4
   54    55     1     0     0
SMALL
bcc


@<TRIPOS>ATOM
      1 C1          0.5680   -1.1030    0.5040 c2        1 1W4      0.092000
      2 O2          1.6870   -1.5230    0.2040 o         1 1W4     -0.273000
      3 C3         -0.1300   -1.5110    1.7970 c3        1 1W4     -0.064000
      4 C4          0.5280   -0.8630    2.9720 c2        1 1W4     -0.102000
      5 C5         -0.1330    0.0380    3.7490 c2        1 1W4      0.058000
      6 C6         -1.5490    0.4690    3.4770 c3        1 1W4     -0.102000
      7 C7         -2.2520   -0.3770    2.4700 c2        1 1W4     -0.027000
      8 C8         -1.5920   -1.2590    1.6970 c2        1 1W4     -0.194000
      9 N9          0.4640    0.6220    4.8510 n2        1 1W4     -0.302000
     10 C10         0.9730    1.1240    5.7940 c1        1 1W4      0.142000
     11 C11         1.9140   -1.3040    3.2600 c3        1 1W4     -0.195000
     12 C12        -3.6870   -0.1610    2.4000 c2        1 1W4     -0.156000
     13 C13        -4.4790   -0.5680    1.3930 c2        1 1W4     -0.079000
     14 C14        -5.9140   -0.3570    1.3330 ca        1 1W4     -0.088000
     15 C15        -6.5650   -0.4760    0.0930 ca        1 1W4     -0.083500
     16 C16        -7.9390   -0.2830   -0.0220 ca        1 1W4     -0.120500
     17 C17        -8.6790    0.0300    1.1390 ca        1 1W4      0.089000
     18 C18        -8.0500    0.1450    2.3920 ca        1 1W4     -0.120500
     19 C19        -6.6690   -0.0510    2.4710 ca        1 1W4     -0.083500
     20 C26        -8.6290   -0.4000   -1.3260 c3        1 1W4     -0.175000
     21 C27        -8.8280    0.4670    3.6110 c3        1 1W4     -0.175000
     22 O28       -10.0300    0.2050    0.9570 oh        1 1W4     -0.248000
     23 S1         -0.4740   -0.0580   -0.3890 ss        1 1W4      0.308000
     24 H1          0.0260   -2.6310    1.9010 hc        1 1W4      0.143000
     25 H2         -2.1410    0.4570    4.4370 hc        1 1W4      0.116000
     26 H3         -2.1230   -1.8920    0.9670 ha        1 1W4      0.144000
     27 H4         -4.3780    0.7160    5.4780 ha        1 1W4      0.001500
     28 H5         -5.0500    0.6990    5.3910 ha        1 1W4      0.001500
     29 H6         -1.5410    1.5330    3.1070 hc        1 1W4      0.116000
     30 H7          2.3200   -1.9330    2.4290 hc        1 1W4      0.098667
     31 H8          2.5950   -0.4250    3.3910 hc        1 1W4      0.098667
     32 H9          1.9370   -1.9070    4.2030 hc        1 1W4      0.098667
     33 H10        -4.0510   -1.0930    0.5180 ha        1 1W4      0.127000
     34 H11        -4.1130    0.3940    3.2560 ha        1 1W4      0.132000
     35 H12        -5.9790   -0.7220   -0.8060 ha        1 1W4      0.135500
     36 H13        -6.1750    0.0320    3.4530 ha        1 1W4      0.135500
     37 H14        -7.9150   -0.6620   -2.1440 hc        1 1W4      0.086833
     38 H15        -9.4220   -1.1880   -1.2700 hc        1 1W4      0.086833
     39 H16        -9.1300    0.5690   -1.5800 hc        1 1W4      0.086833
     40 H17        -8.1650    0.5160    4.5100 hc        1 1W4      0.086833
     41 H18        -9.6080   -0.3140    3.7970 hc        1 1W4      0.086833
     42 H19        -9.3370    1.4580    3.5020 hc        1 1W4      0.086833
     43 H20       -10.4320    0.4160    1.8120 ho        1 1W4      0.222000
     44 C2          0.2640    0.4470   -1.8200 c2        1 1W4     -0.284000
     45 C9          1.4940    0.1280   -2.2960 c2        1 1W4     -0.151000
     46 C20         1.9700    0.6480   -3.5430 c2        1 1W4     -0.070000
     47 C21         1.1800    1.4910   -4.2960 c2        1 1W4     -0.008000
     48 C22        -0.1330    1.8750   -3.8650 c1        1 1W4     -0.070000
     49 C23        -0.6200    1.3580   -2.6000 c3        1 1W4     -0.188000
     50 F1          1.6390    1.9760   -5.4760 f         1 1W4     -0.093000
     51 H21         2.1740   -0.5430   -1.7420 ha        1 1W4      0.167000
     52 H22         2.9780    0.3540   -3.8770 ha        1 1W4      0.152000
     53 H23        -1.6030    0.8420   -2.8280 hc        1 1W4      0.176500
     54 H24        -0.8870    2.2650   -1.9740 hc        1 1W4      0.176500
@<TRIPOS>BOND
     1    1    2 1   
     2    1    3 1   
     3    1   23 1   
     4    3    4 1   
     5    3    8 1   
     6    3   24 1   
     7    4    5 1   
     8    4   11 1   
     9    5    6 1   
    10    5    9 1   
    11    6    7 1   
    12    6   25 1   
    13    6   29 1   
    14    7    8 1   
    15    7   12 1   
    16    8   26 1   
    17    9   10 1   
    18   11   30 1   
    19   11   31 1   
    20   11   32 1   
    21   12   13 1   
    22   12   34 1   
    23   13   14 1   
    24   13   33 1   
    25   14   15 1   
    26   14   19 1   
    27   15   16 1   
    28   15   35 1   
    29   16   17 1   
    30   16   20 1   
    31   17   18 1   
    32   17   22 1   
    33   18   19 1   
    34   18   21 1   
    35   19   36 1   
    36   20   37 1   
    37   20   38 1   
    38   20   39 1   
    39   21   40 1   
    40   21   41 1   
    41   21   42 1   
    42   22   43 1   
    43   23   44 1   
    44   27   28 1   
    45   44   45 1   
    46   44   49 1   
    47   45   46 1   
    48   45   51 1   
    49   46   47 1   
    50   46   52 1   
    51   47   48 1   
    52   47   50 1   
    53   48   49 1   
    54   49   53 1   
    55   49   54 1   
@<TRIPOS>SUBSTRUCTURE
     1 1W4         1 TEMP              0 ****  ****    0 ROOT
