@<TRIPOS>MOLECULE
1W4
   54    56     1     0     0
SMALL
bcc


@<TRIPOS>ATOM
      1 C1         -2.7460   -0.9720    0.4400 c         1 1W4      0.578300
      2 O2         -3.7490   -1.4430    0.9860 o         1 1W4     -0.524100
      3 C3         -1.4820   -1.7250    0.2940 ca        1 1W4     -0.134600
      4 C4         -1.5520   -3.1120    0.1600 ca        1 1W4     -0.133000
      5 C5         -0.3710   -3.8780    0.0020 ca        1 1W4      0.152600
      6 C6          0.8660   -3.1940    0.0130 ca        1 1W4     -0.155000
      7 C7          0.9280   -1.8020    0.1510 ca        1 1W4     -0.023800
      8 C8         -0.2520   -1.0630    0.2970 ca        1 1W4     -0.125000
      9 N9         -0.4320   -5.2660   -0.2340 nh        1 1W4     -0.652000
     10 C10         0.7660   -6.0250    0.0210 c3        1 1W4      0.181100
     11 C11        -1.6760   -5.9300    0.0640 c3        1 1W4      0.181100
     12 C12         2.2350   -1.1610    0.1570 ce        1 1W4     -0.122200
     13 C13         2.4500    0.1270   -0.1590 cf        1 1W4     -0.084200
     14 C14         3.7490    0.7760   -0.1580 ca        1 1W4     -0.089800
     15 C15         3.8050    2.1790   -0.0940 ca        1 1W4     -0.086000
     16 C16         5.0220    2.8540   -0.0890 ca        1 1W4     -0.127300
     17 C17         6.2150    2.1000   -0.1570 ca        1 1W4      0.129100
     18 C18         6.1840    0.6960   -0.2310 ca        1 1W4     -0.127300
     19 C19         4.9440    0.0510   -0.2300 ca        1 1W4     -0.086000
     20 C26         5.0880    4.3300   -0.0140 c3        1 1W4     -0.048800
     21 C27         7.4340   -0.0930   -0.3100 c3        1 1W4     -0.048800
     22 O28         7.3830    2.8280   -0.1490 oh        1 1W4     -0.496100
     23 S1         -2.5590    0.5790   -0.2980 ss        1 1W4     -0.142500
     24 H1         -2.5460   -3.5870    0.1880 ha        1 1W4      0.154000
     25 H2          1.8120   -3.7480   -0.0950 ha        1 1W4      0.138000
     26 H3         -0.2090    0.0300    0.4310 ha        1 1W4      0.150000
     27 H4          1.1960   -5.8250    1.0410 h1        1 1W4      0.040033
     28 H5          0.5500   -7.1220   -0.0660 h1        1 1W4      0.040033
     29 H6          1.5360   -5.7580   -0.7520 h1        1 1W4      0.040033
     30 H7         -2.4680   -5.5500   -0.6360 h1        1 1W4      0.040033
     31 H8         -1.5650   -7.0340   -0.1030 h1        1 1W4      0.040033
     32 H9         -2.0170   -5.7590    1.1210 h1        1 1W4      0.040033
     33 H10         3.0740   -1.8210    0.4390 ha        1 1W4      0.127000
     34 H11         1.6060    0.7830   -0.4410 ha        1 1W4      0.129000
     35 H12         2.8690    2.7570   -0.0430 ha        1 1W4      0.134500
     36 H13         4.9140   -1.0470   -0.2970 ha        1 1W4      0.134500
     37 H14         5.6550    4.6410    0.8990 hc        1 1W4      0.046533
     38 H15         5.6300    4.7340   -0.9060 hc        1 1W4      0.046533
     39 H16         4.0670    4.7820    0.0230 hc        1 1W4      0.046533
     40 H17         8.0710    0.0870    0.5930 hc        1 1W4      0.046533
     41 H18         7.2170   -1.1880   -0.3680 hc        1 1W4      0.046533
     42 H19         8.0220    0.1910   -1.2200 hc        1 1W4      0.046533
     43 H20         8.1280    2.2120   -0.2000 ho        1 1W4      0.421000
     44 C2         -4.0040    1.4690   -0.1730 ca        1 1W4     -0.045100
     45 C9         -5.0410    1.2320    0.7320 ca        1 1W4     -0.082000
     46 C20        -6.1550    2.0670    0.7700 ca        1 1W4     -0.162000
     47 C21        -6.2320    3.1620   -0.1080 ca        1 1W4      0.132900
     48 C22        -5.1900    3.4080   -1.0250 ca        1 1W4     -0.162000
     49 C23        -4.0930    2.5590   -1.0530 ca        1 1W4     -0.082000
     50 F1         -7.3080    3.9820   -0.0750 f         1 1W4     -0.138900
     51 H21        -4.9920    0.3720    1.4220 ha        1 1W4      0.156500
     52 H22        -6.9720    1.8770    1.4800 ha        1 1W4      0.152500
     53 H23        -5.2580    4.2650   -1.7100 ha        1 1W4      0.152500
     54 H24        -3.2810    2.7420   -1.7750 ha        1 1W4      0.156500
@<TRIPOS>BOND
     1    1    2 2   
     2    1    3 1   
     3    1   23 1   
     4    3    4 ar  
     5    3    8 ar  
     6    4    5 ar  
     7    4   24 1   
     8    5    6 ar  
     9    5    9 1   
    10    6    7 ar  
    11    6   25 1   
    12    7    8 ar  
    13    7   12 1   
    14    8   26 1   
    15    9   10 1   
    16    9   11 1   
    17   10   27 1   
    18   10   28 1   
    19   10   29 1   
    20   11   30 1   
    21   11   31 1   
    22   11   32 1   
    23   12   13 2   
    24   12   33 1   
    25   13   14 1   
    26   13   34 1   
    27   14   15 ar  
    28   14   19 ar  
    29   15   16 ar  
    30   15   35 1   
    31   16   17 ar  
    32   16   20 1   
    33   17   18 ar  
    34   17   22 1   
    35   18   19 ar  
    36   18   21 1   
    37   19   36 1   
    38   20   37 1   
    39   20   38 1   
    40   20   39 1   
    41   21   40 1   
    42   21   41 1   
    43   21   42 1   
    44   22   43 1   
    45   23   44 1   
    46   44   45 ar  
    47   44   49 ar  
    48   45   46 ar  
    49   45   51 1   
    50   46   47 ar  
    51   46   52 1   
    52   47   48 ar  
    53   47   50 1   
    54   48   49 ar  
    55   48   53 1   
    56   49   54 1   
@<TRIPOS>SUBSTRUCTURE
     1 1W4         1 TEMP              0 ****  ****    0 ROOT
