@<TRIPOS>MOLECULE
1W6
   40    42     1     0     0
SMALL
bcc


@<TRIPOS>ATOM
      1 O12         0.2190   -0.8520   -0.1340 o         1 1W6     -0.413100
      2 C12         1.3500   -0.5030    0.1630 c         1 1W6      0.541800
      3 C26         1.9570   -0.2280    1.4430 cc        1 1W6      0.142200
      4 S27         3.5890    0.2800    1.7100 ss        1 1W6      0.038900
      5 C28         3.3380    0.3280    3.3730 ca        1 1W6     -0.022100
      6 C34         4.2070    0.6630    4.4100 ca        1 1W6     -0.117000
      7 C33         3.7440    0.6200    5.7190 ca        1 1W6     -0.024000
      8 C32         2.4170    0.2450    6.0140 ca        1 1W6     -0.124000
      9 C31         1.5270   -0.0930    5.0140 ca        1 1W6     -0.014000
     10 C29         1.9720   -0.0590    3.6640 ca        1 1W6      0.044400
     11 N30         1.2100   -0.3680    2.5610 nd        1 1W6     -0.361100
     12 N13         2.3170   -0.3360   -1.0350 n4        1 1W6     -0.528200
     13 C14         1.7040   -0.4120   -2.3350 cc        1 1W6     -0.144500
     14 S15         0.2250   -1.0780   -2.6840 ss        1 1W6      0.568200
     15 C16         0.3140   -0.7760   -4.2720 cc        1 1W6     -0.241100
     16 C17         1.4910   -0.1340   -4.6490 cd        1 1W6     -0.077000
     17 C18         2.3230    0.0890   -3.5240 cd        1 1W6     -0.217600
     18 C19         3.6140    0.7390   -3.5190 c         1 1W6      0.613700
     19 O19         4.2690    1.0690   -2.5320 o         1 1W6     -0.462100
     20 N20         4.2510    1.0770   -4.8450 n4        1 1W6     -0.552600
     21 C21         5.0810   -0.0680   -5.3860 c         1 1W6      0.631100
     22 O22         5.2740   -1.0840   -4.7370 o         1 1W6     -0.416000
     23 O21         5.5190    0.2330   -6.6100 os        1 1W6     -0.401900
     24 C37         6.4120   -0.7670   -7.2440 c3        1 1W6      0.167400
     25 C38         6.7540   -0.1610   -8.5750 c3        1 1W6     -0.123100
     26 H1          5.2470    0.9580    4.1970 ha        1 1W6      0.169000
     27 H2          4.4250    0.8840    6.5480 ha        1 1W6      0.176000
     28 H3          2.0890    0.2240    7.0690 ha        1 1W6      0.179000
     29 H4          0.4880   -0.3880    5.2420 ha        1 1W6      0.184000
     30 H5          3.0380   -1.0720   -0.9680 hn        1 1W6      0.476300
     31 H6         -0.4760   -1.0420   -4.9920 h4        1 1W6      0.240000
     32 H7          1.7160    0.1510   -5.6810 ha        1 1W6      0.181000
     33 H8          4.8860    1.8830   -4.7200 hn        1 1W6      0.490800
     34 H9          5.8320   -1.7220   -7.3240 h1        1 1W6      0.086200
     35 H10         7.2990   -0.8910   -6.5710 h1        1 1W6      0.086200
     36 H11         7.4380   -0.8700   -9.1100 hc        1 1W6      0.084700
     37 H12         5.8400   -0.0030   -9.1970 hc        1 1W6      0.084700
     38 H13         7.2770    0.8190   -8.4520 hc        1 1W6      0.084700
     39 H132        2.7930    0.5780   -0.9410 hn        1 1W6      0.476300
     40 H202        3.5390    1.3300   -5.5420 hn        1 1W6      0.490800
@<TRIPOS>BOND
     1    1    2 2   
     2    2    3 1   
     3    2   12 1   
     4    3    4 1   
     5    3   11 2   
     6    4    5 1   
     7    5    6 ar  
     8    5   10 ar  
     9    6    7 ar  
    10    6   26 1   
    11    7    8 ar  
    12    7   27 1   
    13    8    9 ar  
    14    8   28 1   
    15    9   10 ar  
    16    9   29 1   
    17   10   11 1   
    18   12   13 1   
    19   12   30 1   
    20   12   39 1   
    21   13   14 1   
    22   13   17 2   
    23   14   15 1   
    24   15   16 2   
    25   15   31 1   
    26   16   17 1   
    27   16   32 1   
    28   17   18 1   
    29   18   19 2   
    30   18   20 1   
    31   20   21 1   
    32   20   33 1   
    33   20   40 1   
    34   21   22 2   
    35   21   23 1   
    36   23   24 1   
    37   24   25 1   
    38   24   34 1   
    39   24   35 1   
    40   25   36 1   
    41   25   37 1   
    42   25   38 1   
@<TRIPOS>SUBSTRUCTURE
     1 1W6         1 TEMP              0 ****  ****    0 ROOT
