@<TRIPOS>MOLECULE
1W6
   39    41     1     0     0
SMALL
bcc


@<TRIPOS>ATOM
      1 O12        -0.2180    1.1420   -0.0950 o         1 1W6     -0.558100
      2 C12         0.9800    0.8060   -0.0430 c         1 1W6      0.622800
      3 C26         1.7140    0.6120    1.2220 cc        1 1W6      0.222200
      4 S27         0.9320    0.8580    2.7340 ss        1 1W6      0.176900
      5 C28         2.3360    0.4670    3.5560 ca        1 1W6     -0.110100
      6 C34         2.5950    0.4120    4.9330 ca        1 1W6     -0.094000
      7 C33         3.8570    0.0560    5.3700 ca        1 1W6     -0.087000
      8 C32         4.8850   -0.2520    4.4540 ca        1 1W6     -0.122000
      9 C31         4.6680   -0.2100    3.0930 ca        1 1W6     -0.063000
     10 C29         3.3830    0.1520    2.6180 ca        1 1W6      0.071400
     11 N30         2.9990    0.2430    1.2860 nd        1 1W6     -0.496100
     12 N13         1.6690    0.6010   -1.2540 ns        1 1W6     -0.412100
     13 C14         1.0490    0.7680   -2.4630 cc        1 1W6      0.137500
     14 S15        -0.5650    1.2210   -2.6560 ss        1 1W6      0.273200
     15 C16        -0.4960    1.1920   -4.3190 cc        1 1W6     -0.212100
     16 C17         0.7350    0.8440   -4.8010 cd        1 1W6     -0.109000
     17 C18         1.6700    0.5880   -3.7380 cd        1 1W6     -0.344600
     18 C19         3.0330    0.2050   -3.8780 c         1 1W6      0.619700
     19 O19         3.8840   -0.0630   -3.0370 o         1 1W6     -0.472100
     20 N20         3.5230    0.1100   -5.3340 ny        1 1W6     -0.553600
     21 C21         4.9930   -0.1300   -5.4330 c         1 1W6      0.629100
     22 O22         5.8030    0.7850   -5.4620 o         1 1W6     -0.423000
     23 O21         5.2630   -1.4460   -5.5030 os        1 1W6     -0.401900
     24 C37         6.6750   -1.8230   -5.5350 c3        1 1W6      0.154400
     25 C38         7.2510   -1.6110   -6.9070 c3        1 1W6     -0.145100
     26 H1          1.7970    0.6520    5.6530 ha        1 1W6      0.153000
     27 H2          4.0710    0.0110    6.4500 ha        1 1W6      0.153000
     28 H3          5.8780   -0.5310    4.8430 ha        1 1W6      0.152000
     29 H4          5.4680   -0.4490    2.3770 ha        1 1W6      0.156000
     30 H5          2.6350    0.3280   -1.2380 hn        1 1W6      0.376500
     31 H6         -1.3640    1.4310   -4.9410 h4        1 1W6      0.203000
     32 H7          0.9740    0.7660   -5.8640 ha        1 1W6      0.146000
     33 H8          3.3070    0.9950   -5.8090 hn        1 1W6      0.475800
     34 H9          7.2210   -1.2410   -4.7480 h1        1 1W6      0.096200
     35 H10         6.6030   -2.9120   -5.2580 h1        1 1W6      0.096200
     36 H11         6.6510   -2.1460   -7.6820 hc        1 1W6      0.071033
     37 H12         7.2820   -0.5230   -7.1600 hc        1 1W6      0.071033
     38 H13         8.2960   -2.0110   -6.9260 hc        1 1W6      0.071033
     39 H202        3.0190   -0.6580   -5.7920 hn        1 1W6      0.475800
@<TRIPOS>BOND
     1    1    2 2   
     2    2    3 1   
     3    2   12 1   
     4    3    4 1   
     5    3   11 2   
     6    4    5 1   
     7    5    6 ar  
     8    5   10 ar  
     9    6    7 ar  
    10    6   26 1   
    11    7    8 ar  
    12    7   27 1   
    13    8    9 ar  
    14    8   28 1   
    15    9   10 ar  
    16    9   29 1   
    17   10   11 1   
    18   12   13 1   
    19   12   30 1   
    20   13   14 1   
    21   13   17 2   
    22   14   15 1   
    23   15   16 2   
    24   15   31 1   
    25   16   17 1   
    26   16   32 1   
    27   17   18 1   
    28   18   19 2   
    29   18   20 1   
    30   20   21 1   
    31   20   33 1   
    32   20   39 1   
    33   21   22 2   
    34   21   23 1   
    35   23   24 1   
    36   24   25 1   
    37   24   34 1   
    38   24   35 1   
    39   25   36 1   
    40   25   37 1   
    41   25   38 1   
@<TRIPOS>SUBSTRUCTURE
     1 1W6         1 TEMP              0 ****  ****    0 ROOT
