@<TRIPOS>MOLECULE
1W6
   38    40     1     0     0
SMALL
bcc


@<TRIPOS>ATOM
      1 O12         1.8030   -2.6430    1.6110 o         1 1W6     -0.585100
      2 C12         1.6530   -1.5650    1.0020 c         1 1W6      0.607800
      3 C26         2.8070   -0.6630    0.7330 cc        1 1W6      0.273200
      4 S27         4.4070   -1.3070    0.6370 ss        1 1W6      0.101900
      5 C28         5.0330    0.2270    0.3570 ca        1 1W6     -0.108100
      6 C34         6.3530    0.6430    0.1460 ca        1 1W6     -0.095000
      7 C33         6.6150    1.9860   -0.0620 ca        1 1W6     -0.106000
      8 C32         5.5750    2.9370   -0.0630 ca        1 1W6     -0.132000
      9 C31         4.2620    2.5620    0.1430 ca        1 1W6     -0.061000
     10 C29         3.9700    1.1950    0.3560 ca        1 1W6      0.074400
     11 N30         2.7010    0.6540    0.5730 nd        1 1W6     -0.489100
     12 N13         0.4100   -1.1690    0.5310 n         1 1W6     -0.410100
     13 C14        -0.7390   -1.9130    0.7230 cc        1 1W6      0.094500
     14 S15        -0.7950   -3.4280    1.4850 ss        1 1W6      0.150200
     15 C16        -2.4340   -3.5960    1.2770 cc        1 1W6     -0.233100
     16 C17        -3.0000   -2.5200    0.6370 cd        1 1W6     -0.103000
     17 C18        -2.0300   -1.5220    0.3120 cd        1 1W6     -0.263600
     18 C19        -2.3130   -0.2580   -0.3810 c         1 1W6      0.723700
     19 O19        -1.4440    0.3950   -0.9820 o         1 1W6     -0.562100
     20 N20        -3.6400    0.1990   -0.3190 n         1 1W6     -0.578500
     21 C21        -4.1050    1.3460   -0.9530 c         1 1W6      0.747100
     22 O22        -3.5190    2.1390   -1.6980 o         1 1W6     -0.527000
     23 O21        -5.4400    1.5600   -0.6630 os        1 1W6     -0.457900
     24 C37        -6.0150    2.7280   -1.2830 c3        1 1W6      0.150400
     25 C38        -7.4550    2.7660   -0.8340 c3        1 1W6     -0.102100
     26 H1          7.1690   -0.0950    0.1450 ha        1 1W6      0.143000
     27 H2          7.6490    2.3220   -0.2290 ha        1 1W6      0.140000
     28 H3          5.8210    3.9960   -0.2320 ha        1 1W6      0.141000
     29 H4          3.4470    3.3010    0.1400 ha        1 1W6      0.158000
     30 H5          0.3120   -0.3000    0.0340 hn        1 1W6      0.380500
     31 H6         -2.9790   -4.4770    1.6180 h4        1 1W6      0.179000
     32 H7         -4.0610   -2.4430    0.3840 ha        1 1W6      0.153000
     33 H8         -4.2960   -0.3020    0.2380 hn        1 1W6      0.338500
     34 H9         -5.4430    3.6310   -0.9470 h1        1 1W6      0.055700
     35 H10        -5.9220    2.6260   -2.3960 h1        1 1W6      0.055700
     36 H11        -7.9930    1.8440   -1.1580 hc        1 1W6      0.049033
     37 H12        -7.5190    2.8380    0.2780 hc        1 1W6      0.049033
     38 H13        -7.9510    3.6580   -1.2880 hc        1 1W6      0.049033
@<TRIPOS>BOND
     1    1    2 2   
     2    2    3 1   
     3    2   12 1   
     4    3    4 1   
     5    3   11 2   
     6    4    5 1   
     7    5    6 ar  
     8    5   10 ar  
     9    6    7 ar  
    10    6   26 1   
    11    7    8 ar  
    12    7   27 1   
    13    8    9 ar  
    14    8   28 1   
    15    9   10 ar  
    16    9   29 1   
    17   10   11 1   
    18   12   13 1   
    19   12   30 1   
    20   13   14 1   
    21   13   17 2   
    22   14   15 1   
    23   15   16 2   
    24   15   31 1   
    25   16   17 1   
    26   16   32 1   
    27   17   18 1   
    28   18   19 2   
    29   18   20 1   
    30   20   21 1   
    31   20   33 1   
    32   21   22 2   
    33   21   23 1   
    34   23   24 1   
    35   24   25 1   
    36   24   34 1   
    37   24   35 1   
    38   25   36 1   
    39   25   37 1   
    40   25   38 1   
@<TRIPOS>SUBSTRUCTURE
     1 1W6         1 TEMP              0 ****  ****    0 ROOT
