@<TRIPOS>MOLECULE
1W6
   38    30     1     0     0
SMALL
bcc


@<TRIPOS>ATOM
      1 O12         2.5110   -2.0070   -1.9980 o         1 1W6     -0.343000
      2 C12         1.8930   -1.6490   -1.0260 c1        1 1W6      0.372000
      3 C26         2.6040   -1.4970    0.3140 c2        1 1W6     -0.315000
      4 S27         4.1020   -1.7360    0.6200 ss        1 1W6      0.573000
      5 C28         4.3950   -1.1300    2.0110 c1        1 1W6     -0.339000
      6 C34         5.5500   -1.1100    2.8000 c1        1 1W6     -0.094000
      7 C33         5.5150   -0.5460    4.0710 c1        1 1W6     -0.118000
      8 C32         4.3030    0.0140    4.5730 c1        1 1W6     -0.118000
      9 C31         3.1420   -0.0040    3.7850 c1        1 1W6     -0.063000
     10 C29         3.1750   -0.5670    2.5120 c1        1 1W6     -0.064000
     11 N30         2.0330   -0.8020    1.4310 n1        1 1W6     -0.075000
     12 N13         0.5160   -1.3880   -1.1270 n2        1 1W6     -0.272000
     13 C14        -0.1420   -1.5460   -2.3690 c2        1 1W6     -0.209000
     14 S15         0.3160   -2.4620   -3.5280 ss        1 1W6      0.689000
     15 C16        -0.6820   -2.2780   -4.6920 c1        1 1W6     -0.500000
     16 C17        -1.6860   -1.3120   -4.2710 c1        1 1W6     -0.083000
     17 C18        -1.3430   -0.8480   -2.7990 c1        1 1W6     -0.232000
     18 C19        -2.1350    0.1610   -1.9730 c1        1 1W6      0.383000
     19 O19        -3.1170    0.6780   -2.4370 o         1 1W6     -0.284000
     20 N20        -1.7590    0.4290   -0.6380 n2        1 1W6     -0.371000
     21 C21        -2.3800    1.5020    0.0760 c1        1 1W6      0.398000
     22 O22        -2.1450    1.6600    1.2600 o         1 1W6     -0.392000
     23 O21        -3.2750    2.3750   -0.5920 o         1 1W6     -0.232000
     24 C37        -4.4300    2.7440    0.1970 c3        1 1W6     -0.006000
     25 C38        -5.6170    2.9410   -0.7090 c3        1 1W6     -0.248000
     26 H1          6.3810   -1.4940    2.4570 ha        1 1W6      0.144000
     27 H2          6.3420   -0.5330    4.6330 ha        1 1W6      0.141500
     28 H3          4.2810    0.4100    5.4690 ha        1 1W6      0.141500
     29 H4          2.3140    0.3790    4.1280 ha        1 1W6      0.156000
     30 H5          0.0420   -1.1280   -0.3850 hn        1 1W6      0.269000
     31 H6         -0.6450   -2.7320   -5.5580 DU        1 1W6      0.174500
     32 H7         -2.4340   -1.0070   -4.8010 DU        1 1W6      0.174500
     33 H8         -1.1290   -0.0800   -0.2330 hn        1 1W6      0.256000
     34 H9         -4.6240    2.0390    0.8360 h1        1 1W6      0.106000
     35 H10        -4.2440    3.5800    0.6770 h1        1 1W6      0.106000
     36 H11        -6.4130    3.1470   -0.1670 hc        1 1W6      0.091333
     37 H12        -5.4390    3.6800   -1.3200 hc        1 1W6      0.091333
     38 H13        -5.7760    2.1190   -1.2250 hc        1 1W6      0.091333
@<TRIPOS>BOND
     1    1    2 1   
     2    2    3 1   
     3    3    4 1   
     4    3   11 1   
     5    4    5 1   
     6    5    6 1   
     7    6   26 1   
     8    7    8 1   
     9    7   27 1   
    10    8   28 1   
    11    9   10 1   
    12    9   29 1   
    13   12   13 1   
    14   12   30 1   
    15   13   14 1   
    16   13   17 1   
    17   14   15 1   
    18   15   16 1   
    19   16   17 1   
    20   18   19 1   
    21   20   21 1   
    22   20   33 1   
    23   21   22 1   
    24   23   24 1   
    25   24   25 1   
    26   24   34 1   
    27   24   35 1   
    28   25   36 1   
    29   25   37 1   
    30   25   38 1   
@<TRIPOS>SUBSTRUCTURE
     1 1W6         1 TEMP              0 ****  ****    0 ROOT
