@<TRIPOS>MOLECULE
1W6
   39    41     1     0     0
SMALL
bcc


@<TRIPOS>ATOM
      1 O12        -0.2580    0.9980   -0.0870 o         1 1W6     -0.558100
      2 C12         0.9520    0.7090   -0.0380 c         1 1W6      0.622800
      3 C26         1.6970    0.5450    1.2260 cc        1 1W6      0.222200
      4 S27         0.9110    0.7660    2.7390 ss        1 1W6      0.176900
      5 C28         2.3300    0.4290    3.5590 ca        1 1W6     -0.110100
      6 C34         2.5950    0.3880    4.9340 ca        1 1W6     -0.094000
      7 C33         3.8700    0.0800    5.3690 ca        1 1W6     -0.087000
      8 C32         4.9070   -0.1930    4.4510 ca        1 1W6     -0.122000
      9 C31         4.6840   -0.1620    3.0900 ca        1 1W6     -0.063000
     10 C29         3.3850    0.1510    2.6180 ca        1 1W6      0.071400
     11 N30         2.9950    0.2240    1.2870 nd        1 1W6     -0.496100
     12 N13         1.6460    0.5280   -1.2500 n         1 1W6     -0.412100
     13 C14         1.0170    0.6690   -2.4580 cc        1 1W6      0.137500
     14 S15        -0.6140    1.0590   -2.6470 ss        1 1W6      0.273200
     15 C16        -0.5480    1.0300   -4.3110 cc        1 1W6     -0.212100
     16 C17         0.6940    0.7300   -4.7950 cd        1 1W6     -0.109000
     17 C18         1.6410    0.5120   -3.7340 cd        1 1W6     -0.344600
     18 C19         3.0180    0.1830   -3.8780 c         1 1W6      0.619700
     19 O19         3.8810   -0.0500   -3.0380 o         1 1W6     -0.472100
     20 N20         3.5080    0.1060   -5.3340 n4        1 1W6     -0.553600
     21 C21         4.9870   -0.0710   -5.4360 c         1 1W6      0.629100
     22 O22         5.7570    0.8770   -5.4680 o         1 1W6     -0.423000
     23 O21         5.3120   -1.3750   -5.5060 os        1 1W6     -0.401900
     24 C37         6.7390   -1.6920   -5.5410 c3        1 1W6      0.154400
     25 C38         7.3020   -1.4570   -6.9150 c3        1 1W6     -0.144100
     26 H1          1.7910    0.6000    5.6560 ha        1 1W6      0.153000
     27 H2          4.0890    0.0450    6.4490 ha        1 1W6      0.153000
     28 H3          5.9100   -0.4340    4.8370 ha        1 1W6      0.152000
     29 H4          5.4910   -0.3740    2.3720 ha        1 1W6      0.156000
     30 H5          2.6220    0.2940   -1.2360 hn        1 1W6      0.376500
     31 H6         -1.4270    1.2340   -4.9300 h4        1 1W6      0.203000
     32 H7          0.9330    0.6590   -5.8590 ha        1 1W6      0.146000
     33 H8          3.2540    0.9800   -5.8110 hn        1 1W6      0.475800
     34 H9          6.7140   -2.7820   -5.2630 h1        1 1W6      0.096200
     35 H10         7.2620   -1.0860   -4.7570 h1        1 1W6      0.096200
     36 H11         6.7230   -2.0170   -7.6880 hc        1 1W6      0.071033
     37 H12         7.2860   -0.3680   -7.1690 hc        1 1W6      0.071033
     38 H13         8.3630   -1.8120   -6.9360 hc        1 1W6      0.071033
     39 H202        3.0360   -0.6840   -5.7900 hn        1 1W6      0.475800
@<TRIPOS>BOND
     1    1    2 2   
     2    2    3 1   
     3    2   12 1   
     4    3    4 1   
     5    3   11 2   
     6    4    5 1   
     7    5    6 ar  
     8    5   10 ar  
     9    6    7 ar  
    10    6   26 1   
    11    7    8 ar  
    12    7   27 1   
    13    8    9 ar  
    14    8   28 1   
    15    9   10 ar  
    16    9   29 1   
    17   10   11 1   
    18   12   13 1   
    19   12   30 1   
    20   13   14 1   
    21   13   17 2   
    22   14   15 1   
    23   15   16 2   
    24   15   31 1   
    25   16   17 1   
    26   16   32 1   
    27   17   18 1   
    28   18   19 2   
    29   18   20 1   
    30   20   21 1   
    31   20   33 1   
    32   20   39 1   
    33   21   22 2   
    34   21   23 1   
    35   23   24 1   
    36   24   25 1   
    37   24   34 1   
    38   24   35 1   
    39   25   36 1   
    40   25   37 1   
    41   25   38 1   
@<TRIPOS>SUBSTRUCTURE
     1 1W6         1 TEMP              0 ****  ****    0 ROOT
