@<TRIPOS>MOLECULE
1W7
   44    39     1     0     0
SMALL
bcc


@<TRIPOS>ATOM
      1 C1         -1.2200    0.9470   -3.6000 c1        1 1W7      0.073000
      2 C2          0.2310    1.0630   -3.6160 c2        1 1W7     -0.098000
      3 C3         -1.8910    0.7760   -2.3870 c1        1 1W7     -0.146000
      4 C4         -1.1640    0.7180   -1.1850 c1        1 1W7     -0.141000
      5 C5          0.2590    0.8320   -1.2020 c1        1 1W7      0.041000
      6 C7          0.9410    1.0040   -2.4290 c1        1 1W7     -0.130000
      7 C8         -3.3780    1.2140   -4.9000 c3        1 1W7     -0.082000
      8 C9          0.9400    1.1080   -4.9840 c3        1 1W7     -0.119000
      9 C10         0.4060   -0.5000    5.9210 c1        1 1W7     -0.131000
     10 C11         0.6000   -1.8730    6.1830 c1        1 1W7     -0.058000
     11 C12         0.1280    0.8850   -6.1420 c3        1 1W7     -0.176000
     12 C13        -1.2300    1.4320   -5.9930 c1        1 1W7      0.311000
     13 C15         1.9730   -0.1650    2.4500 c3        1 1W7     -0.798000
     14 C16         1.4520   -0.7750    3.7640 c1        1 1W7     -0.075000
     15 C17         1.6420   -2.1230    4.0230 c1        1 1W7     -0.118000
     16 C18         0.8310    0.0410    4.7190 c1        1 1W7     -0.102000
     17 C19         1.2090   -2.6730    5.2480 c2        1 1W7     -0.126000
     18 N1          0.9790    0.9030    0.0250 n3        1 1W7     -0.833000
     19 N2         -1.9490    1.0730   -4.8980 n1        1 1W7     -0.278000
     20 O1          0.5920   -1.6010    0.6490 o         1 1W7     -0.921500
     21 O2         -1.7650    1.9560   -6.9110 o         1 1W7     -0.348000
     22 O3         -0.6080   -0.0790    1.8110 o         1 1W7     -0.921500
     23 S1          0.7020   -0.2420    1.2220 s6        1 1W7      2.803000
     24 C20         0.0310   -2.4620    7.4420 c2        1 1W7     -0.182000
     25 H1         -2.8710    0.6990   -2.3730 ha        1 1W7      0.147000
     26 H2         -1.6480    0.5930   -0.3110 ha        1 1W7      0.174000
     27 H3          1.9420    1.0840   -2.4400 ha        1 1W7      0.137000
     28 H4         -3.6200    2.1220   -4.6020 h1        1 1W7      0.093667
     29 H5         -3.7270    1.0630   -5.8160 h1        1 1W7      0.093667
     30 H6         -3.7760    0.5450   -4.2790 h1        1 1W7      0.093667
     31 H7          1.6600    0.4200   -4.9770 hc        1 1W7      0.100500
     32 H8          1.3520    1.9700   -5.0740 hc        1 1W7      0.100500
     33 H9         -0.0240    0.0650    6.5830 ha        1 1W7      0.134000
     34 H10         0.0020   -0.0520   -6.4770 hc        1 1W7      0.122000
     35 H11         0.6230    1.2750   -6.8880 hc        1 1W7      0.122000
     36 H12         2.7510   -0.6700    2.1440 h1        1 1W7      0.154000
     37 H13         2.2340    0.7930    2.6030 h1        1 1W7      0.154000
     38 H14         2.0730   -2.6910    3.3600 ha        1 1W7      0.152000
     39 H15         0.6940    1.0120    4.5340 ha        1 1W7      0.132000
     40 H16         1.3380   -3.5920    5.4250 ha        1 1W7      0.136000
     41 H17         1.5410    1.6530    0.2040 hn        1 1W7      0.252000
     42 H18         0.7800   -2.6800    8.0790 ha        1 1W7      0.085667
     43 H19        -0.4490   -3.2610    7.2310 ha        1 1W7      0.085667
     44 H20        -0.5850   -1.8070    7.8650 ha        1 1W7      0.085667
@<TRIPOS>BOND
     1    1    2 1   
     2    1    3 1   
     3    2    6 1   
     4    2    8 1   
     5    3   25 1   
     6    4    5 1   
     7    4   26 1   
     8    5   18 1   
     9    6   27 1   
    10    7   19 1   
    11    7   28 1   
    12    7   29 1   
    13    7   30 1   
    14    8   11 1   
    15    8   31 1   
    16    8   32 1   
    17    9   10 1   
    18    9   33 1   
    19   10   17 1   
    20   11   12 1   
    21   11   34 1   
    22   11   35 1   
    23   12   21 1   
    24   13   14 1   
    25   13   23 1   
    26   13   36 1   
    27   13   37 1   
    28   14   16 1   
    29   15   17 1   
    30   15   38 1   
    31   16   39 1   
    32   17   40 1   
    33   18   23 1   
    34   18   41 1   
    35   20   23 1   
    36   22   23 1   
    37   24   42 1   
    38   24   43 1   
    39   24   44 1   
@<TRIPOS>SUBSTRUCTURE
     1 1W7         1 TEMP              0 ****  ****    0 ROOT
