@<TRIPOS>MOLECULE
1W7
   44    46     1     0     0
SMALL
bcc


@<TRIPOS>ATOM
      1 C1          3.4750   -0.1560   -0.4420 ca        1 1W7      0.065600
      2 C2          3.2570    0.5810    0.7500 ca        1 1W7     -0.105300
      3 C3          2.4470   -0.1790   -1.4080 ca        1 1W7     -0.146000
      4 C4          1.2560    0.5030   -1.2060 ca        1 1W7     -0.141000
      5 C5          1.0300    1.2220   -0.0130 ca        1 1W7      0.122600
      6 C7          2.0550    1.2490    0.9560 ca        1 1W7     -0.130000
      7 C9          4.3340    0.6570    1.7740 c3        1 1W7     -0.033100
      8 C10        -5.7610   -0.2660    0.6710 ca        1 1W7     -0.128500
      9 C11        -5.9110   -1.5440    0.1180 ca        1 1W7     -0.065300
     10 C12         5.1650   -0.6040    1.7980 c3        1 1W7     -0.147400
     11 C13         5.5710   -1.0650    0.4160 c         1 1W7      0.702500
     12 C15        -2.0030    0.1230    0.7280 c3        1 1W7     -0.251300
     13 C16        -3.3530   -0.4470    0.4960 ca        1 1W7     -0.082300
     14 C17        -3.4990   -1.7240   -0.0570 ca        1 1W7     -0.110000
     15 C18        -4.4950    0.2790    0.8610 ca        1 1W7     -0.110000
     16 C19        -4.7680   -2.2660   -0.2460 ca        1 1W7     -0.128500
     17 N1         -0.1730    1.9120    0.2160 nh        1 1W7     -0.783500
     18 N2          4.6920   -0.8330   -0.6480 n         1 1W7     -0.375000
     19 O1         -1.6710    1.0950   -1.6220 o         1 1W7     -0.642300
     20 O2          6.6470   -1.6590    0.2220 o         1 1W7     -0.623500
     21 O3         -2.5300    2.5490    0.0960 o         1 1W7     -0.642300
     22 S1         -1.6700    1.4940   -0.2760 s6        1 1W7      1.447900
     23 H1          2.5740   -0.7380   -2.3490 ha        1 1W7      0.147000
     24 H2          0.4860    0.4730   -1.9990 ha        1 1W7      0.174000
     25 H3          1.9180    1.8140    1.8920 ha        1 1W7      0.137000
     26 H4          6.0880   -1.6400   -1.9980 h1        1 1W7      0.054367
     27 H5          4.3590   -2.1800   -2.2390 h1        1 1W7      0.054367
     28 H6          4.8620   -0.4880   -2.7180 h1        1 1W7      0.054367
     29 H7          4.9900    1.5410    1.5400 hc        1 1W7      0.061700
     30 H8          3.8970    0.8300    2.7940 hc        1 1W7      0.061700
     31 H9         -6.6530    0.3140    0.9540 ha        1 1W7      0.135000
     32 H10         6.1000   -0.4430    2.3980 hc        1 1W7      0.082200
     33 H11         4.5920   -1.4440    2.2760 hc        1 1W7      0.082200
     34 H12        -1.9320    0.3990    1.8160 h1        1 1W7      0.114700
     35 H13        -1.2350   -0.6830    0.5740 h1        1 1W7      0.114700
     36 H14        -2.6110   -2.3030   -0.3490 ha        1 1W7      0.142500
     37 H15        -4.3880    1.2920    1.2810 ha        1 1W7      0.142500
     38 H16        -4.8730   -3.2690   -0.6860 ha        1 1W7      0.135000
     39 H17        -0.0510    2.7320    0.7690 hn        1 1W7      0.457800
     40 H18        -7.5900   -2.6310    0.8760 hc        1 1W7      0.046367
     41 H19        -8.0050   -1.3310   -0.3180 hc        1 1W7      0.046367
     42 H20        -7.2610   -2.8840   -0.8890 hc        1 1W7      0.046367
     43 C8          5.0140   -1.3080   -1.9680 c3        1 1W7      0.072300
     44 C20        -7.2600   -2.1260   -0.0680 c3        1 1W7     -0.056800
@<TRIPOS>BOND
     1    1    2 ar  
     2    1    3 ar  
     3    1   18 1   
     4    2    6 ar  
     5    2    7 1   
     6    3    4 ar  
     7    3   23 1   
     8    4    5 ar  
     9    4   24 1   
    10    5    6 ar  
    11    5   17 1   
    12    6   25 1   
    13    7   10 1   
    14    7   29 1   
    15    7   30 1   
    16    8    9 ar  
    17    8   15 ar  
    18    8   31 1   
    19    9   16 ar  
    20    9   44 1   
    21   10   11 1   
    22   10   32 1   
    23   10   33 1   
    24   11   18 1   
    25   11   20 2   
    26   12   13 1   
    27   12   22 1   
    28   12   34 1   
    29   12   35 1   
    30   13   14 ar  
    31   13   15 ar  
    32   14   16 ar  
    33   14   36 1   
    34   15   37 1   
    35   16   38 1   
    36   17   22 1   
    37   17   39 1   
    38   18   43 1   
    39   19   22 2   
    40   21   22 2   
    41   26   43 1   
    42   27   43 1   
    43   28   43 1   
    44   40   44 1   
    45   41   44 1   
    46   42   44 1   
@<TRIPOS>SUBSTRUCTURE
     1 1W7         1 TEMP              0 ****  ****    0 ROOT
