@<TRIPOS>MOLECULE
1W7
   44    46     1     0     0
SMALL
bcc


@<TRIPOS>ATOM
      1 C1         -0.2300   -0.2160    0.0970 ca        1 1W7      0.150000
      2 C2          1.1890   -0.0310    0.1430 ca        1 1W7     -0.208000
      3 C3         -0.9060   -0.4980    1.3130 ca        1 1W7     -0.210000
      4 C4         -0.2190   -0.5860    2.5070 ca        1 1W7     -0.051000
      5 C5          1.1900   -0.4180    2.5620 ca        1 1W7     -0.026000
      6 C7          1.8690   -0.1370    1.3710 ca        1 1W7     -0.007000
      7 C9          1.9440    0.2580   -1.0160 c1        1 1W7     -0.062000
      8 C10         1.7210   -4.7840    7.1690 cu        1 1W7     -0.143000
      9 C11         0.5230   -5.4210    7.6400 cu        1 1W7      0.049000
     10 C12         1.2610    0.3710   -2.2880 c3        1 1W7     -0.223000
     11 C13        -0.2380    0.1650   -2.3200 c2        1 1W7      0.282000
     12 C15         2.4130   -3.0120    4.2280 c3        1 1W7     -0.844000
     13 C16         2.2900   -4.3180    4.9780 c3        1 1W7     -0.040000
     14 C17         0.8330   -4.9320    4.9220 c3        1 1W7     -0.069000
     15 C18         2.6830   -4.2110    6.4560 c2        1 1W7     -0.217000
     16 C19         0.5800   -5.2590    6.3200 cu        1 1W7     -0.168000
     17 N1          1.8850   -0.5020    3.7820 nu        1 1W7     -0.836000
     18 N2         -0.9140   -0.1200   -1.1120 n         1 1W7     -0.266000
     19 O1          0.3110   -1.8750    5.1470 o         1 1W7     -0.924000
     20 O2         -0.8870    0.2400   -3.3770 o         1 1W7     -0.336000
     21 O3          2.4470   -1.1950    6.0510 o         1 1W7     -0.924000
     22 S1          1.6830   -1.6260    4.9510 s6        1 1W7      2.812000
     23 H1         -1.9980   -0.6460    1.3280 ha        1 1W7      0.150000
     24 H2         -0.7840   -0.8030    3.4350 ha        1 1W7      0.178000
     25 H3          2.9620    0.0210    1.3580 ha        1 1W7      0.162000
     26 H4         -2.8420    0.4570   -0.4770 h1        1 1W7      0.099667
     27 H5         -2.7310   -0.1990   -2.1790 h1        1 1W7      0.099667
     28 H6         -2.6000   -1.3370   -0.7550 h1        1 1W7      0.099667
     29 H7          1.7700    3.5290   -3.4750 ha        1 1W7      0.001500
     30 H8          2.2070    3.2110   -3.8840 ha        1 1W7      0.001500
     31 H9          3.6150   -3.7440    6.7630 ha        1 1W7      0.168000
     32 H10         1.4770    1.3990   -2.7130 hc        1 1W7      0.175000
     33 H11         1.7260   -0.3680   -3.0060 hc        1 1W7      0.175000
     34 H12         2.0100   -3.1880    3.1950 h1        1 1W7      0.148000
     35 H13         3.5150   -2.8210    4.0950 h1        1 1W7      0.148000
     36 H14         0.8160   -5.8310    4.2590 hc        1 1W7      0.120000
     37 H15         2.9850   -5.0580    4.4930 hc        1 1W7      0.099000
     38 H16         0.0910   -4.1820    4.5440 hc        1 1W7      0.120000
     39 H17         2.5710    0.2110    3.8910 hn        1 1W7      0.254000
     40 H18        -1.1530   -6.3400    8.5420 hc        1 1W7      0.103667
     41 H19         0.4480   -6.6540    9.3530 hc        1 1W7      0.103667
     42 H20        -0.3490   -5.0300    9.5190 hc        1 1W7      0.103667
     43 C8         -2.3440   -0.3100   -1.1300 c3        1 1W7     -0.098000
     44 C20        -0.1680   -5.8850    8.8170 c3        1 1W7     -0.151000
@<TRIPOS>BOND
     1    1    2 1   
     2    1    3 1   
     3    1   18 1   
     4    2    6 1   
     5    2    7 1   
     6    3    4 1   
     7    3   23 1   
     8    4    5 1   
     9    4   24 1   
    10    5    6 1   
    11    5   17 1   
    12    6   25 1   
    13    7   10 1   
    14    8    9 1   
    15    8   15 1   
    16    8   16 1   
    17    9   16 1   
    18    9   44 1   
    19   10   11 1   
    20   10   32 1   
    21   10   33 1   
    22   11   18 1   
    23   11   20 1   
    24   12   13 1   
    25   12   22 1   
    26   12   34 1   
    27   12   35 1   
    28   13   14 1   
    29   13   15 1   
    30   13   37 1   
    31   14   16 1   
    32   14   36 1   
    33   14   38 1   
    34   15   31 1   
    35   17   22 1   
    36   17   39 1   
    37   18   43 1   
    38   19   22 1   
    39   21   22 1   
    40   26   43 1   
    41   27   43 1   
    42   28   43 1   
    43   29   30 1   
    44   40   44 1   
    45   41   44 1   
    46   42   44 1   
@<TRIPOS>SUBSTRUCTURE
     1 1W7         1 TEMP              0 ****  ****    0 ROOT
