@<TRIPOS>MOLECULE
1W7
   44    44     1     0     0
SMALL
bcc


@<TRIPOS>ATOM
      1 C1          0.2490    0.2150   -0.1790 c2        1 1W7      0.005000
      2 C2          1.4790    0.8740    0.3950 c3        1 1W7     -0.214000
      3 C3         -0.6250   -0.3910    0.6810 c2        1 1W7     -0.168000
      4 C4         -0.3620   -0.5090    2.0800 c2        1 1W7     -0.047000
      5 C5          0.8310   -0.0620    2.6230 c2        1 1W7     -0.038000
      6 C7          1.7470    0.6710    1.8130 c1        1 1W7     -0.133000
      7 C9          2.6570    0.6870   -0.4650 c1        1 1W7      0.018000
      8 C10         2.3910   -4.7300    7.8240 c1        1 1W7     -0.072000
      9 C11         1.5170   -5.8400    7.6030 c2        1 1W7     -0.159000
     10 C12        -0.8310   -0.6440   -3.7480 c3        1 1W7     -0.216000
     11 C13        -0.6180   -0.8120   -2.2710 c2        1 1W7      0.334000
     12 C15         1.6500   -2.7220    4.6150 c3        1 1W7     -0.813000
     13 C16         1.5810   -3.7980    5.6290 c2        1 1W7     -0.068000
     14 C17         0.7900   -4.8890    5.4730 c2        1 1W7     -0.154000
     15 C18         2.4280   -3.6590    6.8430 c3        1 1W7     -0.212000
     16 C19         0.7510   -5.9200    6.4740 c2        1 1W7     -0.040000
     17 N1          1.1710   -0.2280    3.9770 n3        1 1W7     -0.819000
     18 N2          0.0660    0.2750   -1.5930 n         1 1W7     -0.166000
     19 O1         -0.6860   -1.7030    4.7640 o         1 1W7     -0.922000
     20 O2         -0.9860   -1.8090   -1.6420 o         1 1W7     -0.305000
     21 O3          0.9870   -0.9340    6.3240 o         1 1W7     -0.922000
     22 S1          0.6540   -1.3570    5.0210 s6        1 1W7      2.798000
     23 H1         -1.5600   -0.8560    0.3200 ha        1 1W7      0.174000
     24 H2         -1.1490   -0.9940    2.6930 ha        1 1W7      0.184000
     25 H3          1.3200    2.0190    0.3530 hc        1 1W7      0.233000
     26 H4         -1.1870    2.9620   -2.6670 ha        1 1W7      0.003500
     27 H5          1.1210    2.0490   -1.8810 ha        1 1W7      0.050000
     28 H6         -1.2470    2.5760   -3.2220 ha        1 1W7      0.003500
     29 H7          0.1570   -0.5970   -4.2700 hc        1 1W7      0.121667
     30 H8          3.6290    0.7860    0.0460 ha        1 1W7      0.072000
     31 H9          3.5090   -3.5180    6.5450 hc        1 1W7      0.178000
     32 H10        -1.3780    0.3090   -3.9560 hc        1 1W7      0.121667
     33 H11        -1.4210   -1.5140   -4.1270 hc        1 1W7      0.121667
     34 H12         2.7280   -2.4250    4.5000 h1        1 1W7      0.156500
     35 H13         1.3450   -3.1380    3.6160 h1        1 1W7      0.156500
     36 H14         0.1520   -5.0160    4.5840 ha        1 1W7      0.139000
     37 H15         2.1390   -2.7080    7.3980 hc        1 1W7      0.178000
     38 H16         0.0800   -6.7760    6.2900 ha        1 1W7      0.134000
     39 H17         1.8800    0.4210    4.2540 hn        1 1W7      0.271000
     40 H18         0.8000   -7.7300    8.3650 hc        1 1W7      0.084000
     41 H19         2.5150   -7.3070    8.7960 hc        1 1W7      0.084000
     42 H20         1.1460   -6.4570    9.6160 hc        1 1W7      0.084000
     43 C8          0.5740    1.2210   -2.3750 c1        1 1W7     -0.076000
     44 C20         1.4860   -6.8940    8.6430 c3        1 1W7     -0.161000
@<TRIPOS>BOND
     1    1    2 1   
     2    1    3 1   
     3    1   18 1   
     4    2    6 1   
     5    2    7 1   
     6    2   25 1   
     7    3    4 1   
     8    3   23 1   
     9    4    5 1   
    10    4   24 1   
    11    5    6 1   
    12    5   17 1   
    13    7   30 1   
    14    8    9 1   
    15    8   15 1   
    16    9   16 1   
    17    9   44 1   
    18   10   11 1   
    19   10   29 1   
    20   10   32 1   
    21   10   33 1   
    22   11   18 1   
    23   11   20 1   
    24   12   13 1   
    25   12   22 1   
    26   12   34 1   
    27   12   35 1   
    28   13   14 1   
    29   13   15 1   
    30   14   16 1   
    31   14   36 1   
    32   15   31 1   
    33   15   37 1   
    34   16   38 1   
    35   17   22 1   
    36   17   39 1   
    37   18   43 1   
    38   19   22 1   
    39   21   22 1   
    40   26   28 1   
    41   27   43 1   
    42   40   44 1   
    43   41   44 1   
    44   42   44 1   
@<TRIPOS>SUBSTRUCTURE
     1 1W7         1 TEMP              0 ****  ****    0 ROOT
