@<TRIPOS>MOLECULE
1W7
   45    47     1     0     0
SMALL
bcc


@<TRIPOS>ATOM
      1 C1         -0.0680    0.5580    0.2620 c2        1 1W7      0.234000
      2 C2         -0.2420   -0.6360    1.1680 c3        1 1W7     -0.029000
      3 C3          0.4340    1.7910    0.8390 c2        1 1W7     -0.196000
      4 C4          0.8920    1.8350    2.1050 c2        1 1W7     -0.002000
      5 C5          0.8530    0.6680    3.0030 c2        1 1W7      0.222000
      6 C7          0.2920   -0.5150    2.5490 c2        1 1W7     -0.965000
      7 C9          0.2800   -1.8640    0.4110 c3        1 1W7     -0.172000
      8 C10         2.1060   -4.4240    6.8600 c1        1 1W7     -0.048000
      9 C11         1.8750   -5.7740    6.4370 c2        1 1W7     -0.135000
     10 C12        -0.5160   -2.0650   -0.8550 c3        1 1W7     -0.187000
     11 C13        -0.7560   -0.8110   -1.6450 c2        1 1W7      0.299000
     12 C15         1.5120   -2.6210    3.4980 c3        1 1W7     -0.803000
     13 C16         1.6210   -3.7180    4.4890 c2        1 1W7     -0.117000
     14 C17         1.4360   -5.0180    4.1550 c2        1 1W7     -0.119000
     15 C18         1.9740   -3.3500    5.8860 c3        1 1W7     -0.210000
     16 C19         1.5560   -6.0610    5.1410 c2        1 1W7     -0.058000
     17 N1          1.3970    0.8310    4.2410 n3        1 1W7     -0.330000
     18 N2         -0.3730    0.4700   -1.0390 n         1 1W7     -0.173000
     19 O1         -1.0000   -2.6280    2.9470 o         1 1W7     -0.924000
     20 O2         -1.2510   -0.7770   -2.7660 o         1 1W7     -0.196000
     21 O3         -0.2400   -1.3600    4.8570 o         1 1W7     -0.924000
     22 S1         -0.0150   -1.8430    3.5590 s6        1 1W7      2.843000
     23 H1          0.4590    2.7070    0.2180 ha        1 1W7      0.182000
     24 H2          1.2990    2.7870    2.5020 ha        1 1W7      0.180000
     25 H3         -1.3750   -0.7700    1.2860 hc        1 1W7      0.182000
     26 H4          0.7660    1.9960   -1.9650 h1        1 1W7      0.139000
     27 H5         -0.6330    1.3500   -2.9500 h1        1 1W7      0.139000
     28 H6         -0.9650    2.4440   -1.5270 h1        1 1W7      0.139000
     29 H7          0.0070   -2.7970   -1.5330 hc        1 1W7      0.167500
     30 H8          1.3720   -1.7440    0.1910 hc        1 1W7      0.133500
     31 H9          2.9550   -2.7870    5.8990 hc        1 1W7      0.170000
     32 H10         0.1530   -2.7870    1.0420 hc        1 1W7      0.133500
     33 H11        -1.5300   -2.5000   -0.6130 hc        1 1W7      0.167500
     34 H12         1.7210   -3.0330    2.4730 h1        1 1W7      0.156000
     35 H13         2.3490   -1.8940    3.6940 h1        1 1W7      0.156000
     36 H14         1.1830   -5.3220    3.1270 ha        1 1W7      0.135000
     37 H15         1.1950   -2.6380    6.3060 hc        1 1W7      0.170000
     38 H16         1.3820   -7.0960    4.8030 ha        1 1W7      0.146000
     39 H17         1.2120    0.1700    4.9700 hn        1 1W7      0.261500
     40 H18         3.0300   -6.8020    7.9140 hc        1 1W7      0.094333
     41 H19         1.2680   -6.6500    8.2890 hc        1 1W7      0.094333
     42 H20         1.8250   -7.8480    7.0390 hc        1 1W7      0.094333
     43 C8         -0.2940    1.6290   -1.9130 c3        1 1W7     -0.145000
     44 H121        1.6880    1.7380    4.5270 hn        1 1W7      0.261500
     45 C20         2.0040   -6.8320    7.4660 c3        1 1W7     -0.170000
@<TRIPOS>BOND
     1    1    2 1   
     2    1    3 1   
     3    1   18 1   
     4    2    6 1   
     5    2    7 1   
     6    2   25 1   
     7    3    4 1   
     8    3   23 1   
     9    4    5 1   
    10    4   24 1   
    11    5    6 1   
    12    5   17 1   
    13    6   22 1   
    14    7   10 1   
    15    7   30 1   
    16    7   32 1   
    17    8    9 1   
    18    8   15 1   
    19    9   16 1   
    20    9   45 1   
    21   10   11 1   
    22   10   29 1   
    23   10   33 1   
    24   11   18 1   
    25   11   20 1   
    26   12   13 1   
    27   12   22 1   
    28   12   34 1   
    29   12   35 1   
    30   13   14 1   
    31   13   15 1   
    32   14   16 1   
    33   14   36 1   
    34   15   31 1   
    35   15   37 1   
    36   16   38 1   
    37   17   39 1   
    38   17   44 1   
    39   18   43 1   
    40   19   22 1   
    41   21   22 1   
    42   26   43 1   
    43   27   43 1   
    44   28   43 1   
    45   40   45 1   
    46   41   45 1   
    47   42   45 1   
@<TRIPOS>SUBSTRUCTURE
     1 1W7         1 TEMP              0 ****  ****    0 ROOT
