@<TRIPOS>MOLECULE
1W8
   60    65     1     0     0
SMALL
bcc


@<TRIPOS>ATOM
      1 N           1.3430   -0.4490    0.1040 n2        1 1W8     -0.253200
      2 C           4.5960   -0.3930   -1.3310 c3        1 1W8     -0.117100
      3 O           2.3210   -0.5120   -0.7430 os        1 1W8     -0.191300
      4 C1          3.6670   -0.3350   -0.1470 c3        1 1W8      0.155400
      5 N1         -2.2440   -0.1560    0.0470 nc        1 1W8     -0.656100
      6 O1          0.0950   -1.9600   -2.4060 o         1 1W8     -0.390100
      7 S1         -3.0130   -0.4450   -4.6540 ss        1 1W8     -0.348200
      8 C2          0.1320   -0.6200   -0.3740 cf        1 1W8      0.221300
      9 N2         -0.9390   -0.9080    1.8680 nd        1 1W8     -0.708000
     10 O2          0.0540    2.8930   -3.7990 o         1 1W8     -0.465500
     11 S2         -4.6410    3.0760   -6.7200 s4        1 1W8     -0.399500
     12 C3         -1.0480   -0.5550    0.5230 cd        1 1W8      0.591700
     13 O3         -3.2670    4.3150   -6.8260 os        1 1W8     -0.326900
     14 S3         -6.8030    0.7880   -6.7140 ss        1 1W8     -0.134300
     15 C4         -2.1690   -0.7580    2.4450 cc        1 1W8      0.694300
     16 N4         -0.9430    0.1390   -2.5310 n4        1 1W8     -0.646800
     17 O4         -1.0770    4.3730   -6.3850 o         1 1W8     -0.637500
     18 C5         -0.1900   -0.9430   -1.7980 c         1 1W8      0.472800
     19 N5         -1.2890    1.6030   -5.4240 n         1 1W8     -0.257000
     20 C6         -0.4280    0.3990   -3.8880 cy        1 1W8     -0.049500
     21 N6         -7.1840    3.1900   -7.5380 nc        1 1W8     -0.642000
     22 C7         -1.4100    0.1750   -5.0930 cy        1 1W8      0.132800
     23 N7        -11.7560    4.3280   -9.5340 na        1 1W8     -0.006100
     24 C8         -0.4830    1.9300   -4.3050 c         1 1W8      0.703500
     25 C9         -2.3690    2.3530   -5.8930 ce        1 1W8     -0.158600
     26 C10        -3.6640    1.9010   -6.0070 c2        1 1W8      0.051500
     27 C11        -4.1390    0.5750   -5.6010 c3        1 1W8      0.080900
     28 C12        -6.2440    2.4280   -7.0020 cd        1 1W8      0.616000
     29 C13        -8.3690    2.4620   -7.7410 cc        1 1W8      0.304800
     30 C14        -8.3010    1.1250   -7.3250 cd        1 1W8     -0.201400
     31 C15        -9.5150    3.0900   -8.3390 ca        1 1W8      0.063500
     32 C16        -9.4780    4.4470   -8.7530 ca        1 1W8     -0.156500
     33 C17       -10.5910    5.0320   -9.3380 ca        1 1W8     -0.032300
     34 C18       -11.8140    3.0160   -9.1400 ca        1 1W8     -0.032300
     35 C19       -10.7240    2.3860   -8.5490 ca        1 1W8     -0.156500
     36 C21        -2.1520    3.7680   -6.3870 c         1 1W8      0.749800
     37 S          -3.3430   -0.1890    1.2430 ss        1 1W8      0.119700
     38 HC1         4.3820    0.4360   -2.0480 hc        1 1W8      0.065700
     39 HC2         5.6460   -0.2920   -0.9620 hc        1 1W8      0.065700
     40 HC3         4.4920   -1.3650   -1.8710 hc        1 1W8      0.065700
     41 H11C        3.8430   -1.1710    0.5750 h1        1 1W8      0.073700
     42 H12C        3.7000    0.6550    0.3740 h1        1 1W8      0.073700
     43 H7         -0.9650   -0.4600   -5.9010 h2        1 1W8      0.139700
     44 H111       -5.0400    0.6580   -4.9330 h1        1 1W8      0.100700
     45 H112       -4.4200   -0.0280   -6.5080 h1        1 1W8      0.100700
     46 H14        -9.1080    0.3990   -7.3930 h4        1 1W8      0.174000
     47 H4         -1.9520   -0.1350   -2.6030 hn        1 1W8      0.485800
     48 H6          0.5710   -0.0860   -4.0360 hx        1 1W8      0.145700
     49 H17       -10.5850    6.0890   -9.6720 h4        1 1W8      0.195000
     50 H18       -12.7670    2.4780   -9.3140 h4        1 1W8      0.195000
     51 H201      -13.0400    5.9920   -9.7290 h1        1 1W8      0.089700
     52 H202      -12.6980    5.0600  -11.2720 h1        1 1W8      0.089700
     53 H203      -13.8210    4.3600  -10.0040 h1        1 1W8      0.089700
     54 H16        -8.5610    5.0520   -8.6160 ha        1 1W8      0.201000
     55 H19       -10.8200    1.3310   -8.2490 ha        1 1W8      0.201000
     56 N3         -2.4780   -1.0350    3.7330 nh        1 1W8     -0.926500
     57 H31N       -3.3740   -0.7950    4.0800 hn        1 1W8      0.460800
     58 H32N       -1.7730   -1.3230    4.3700 hn        1 1W8      0.460800
     59 H42        -0.8910    1.0090   -1.9820 hn        1 1W8      0.485800
     60 C20       -12.8920    4.9680  -10.1690 c3        1 1W8     -0.021400
@<TRIPOS>BOND
     1    1    3 1   
     2    1    8 2   
     3    2    4 1   
     4    2   38 1   
     5    2   39 1   
     6    2   40 1   
     7    3    4 1   
     8    4   41 1   
     9    4   42 1   
    10    5   12 2   
    11    5   37 1   
    12    6   18 2   
    13    7   22 1   
    14    7   27 1   
    15    8   12 1   
    16    8   18 1   
    17    9   12 1   
    18    9   15 2   
    19   10   24 2   
    20   11   13 1   
    21   11   26 1   
    22   11   28 1   
    23   13   36 1   
    24   14   28 1   
    25   14   30 1   
    26   15   37 1   
    27   15   56 1   
    28   16   18 1   
    29   16   20 1   
    30   16   47 1   
    31   16   59 1   
    32   17   36 2   
    33   19   22 1   
    34   19   24 1   
    35   19   25 1   
    36   20   22 1   
    37   20   24 1   
    38   20   48 1   
    39   21   28 2   
    40   21   29 1   
    41   22   43 1   
    42   23   33 1   
    43   23   34 2   
    44   23   60 1   
    45   25   26 2   
    46   25   36 1   
    47   26   27 1   
    48   27   44 1   
    49   27   45 1   
    50   29   30 2   
    51   29   31 1   
    52   30   46 1   
    53   31   32 ar  
    54   31   35 ar  
    55   32   33 ar  
    56   32   54 1   
    57   33   49 1   
    58   34   35 ar  
    59   34   50 1   
    60   35   55 1   
    61   51   60 1   
    62   52   60 1   
    63   53   60 1   
    64   56   57 1   
    65   56   58 1   
@<TRIPOS>SUBSTRUCTURE
     1 1W8         1 TEMP              0 ****  ****    0 ROOT
