@<TRIPOS>MOLECULE
1W8
   59    64     1     0     0
SMALL
bcc


@<TRIPOS>ATOM
      1 N           6.6650   -1.4310    0.8150 n2        1 1W8     -0.348200
      2 C           7.6050    1.1890    3.0380 c3        1 1W8     -0.110100
      3 O           6.8080   -0.2480    1.3610 os        1 1W8     -0.175300
      4 C1          7.5930   -0.2540    2.5980 c3        1 1W8      0.147400
      5 N1          6.6580   -3.7510   -1.0130 nc        1 1W8     -0.503100
      6 O1          6.0610    0.3780   -1.8420 o         1 1W8     -0.571100
      7 S1          1.1980   -0.6670   -1.4470 ss        1 1W8     -0.326200
      8 C2          5.9830   -1.4670   -0.3000 cf        1 1W8      0.272300
      9 N2          4.5210   -2.9560   -1.6410 nd        1 1W8     -0.727000
     10 O2          3.2590    2.8850    0.6290 o         1 1W8     -0.496500
     11 S2         -2.1130    1.4460    0.4790 s4        1 1W8     -0.448500
     12 C3          5.7550   -2.7620   -0.9850 cd        1 1W8      0.581700
     13 O3         -1.3950    3.0450    1.1040 os        1 1W8     -0.346900
     14 S3         -3.1920   -1.0490   -1.0990 ss        1 1W8     -0.115300
     15 C4          4.5340   -4.1780   -2.2180 cc        1 1W8      0.645300
     16 N4          4.0900    0.0350   -0.6890 n         1 1W8     -0.531900
     17 O4          0.4490    4.2550    0.7910 o         1 1W8     -0.641500
     18 C5          5.3930   -0.2780   -1.0270 c         1 1W8      0.594800
     19 N5          1.5080    2.0080   -0.8350 n         1 1W8     -0.327000
     20 C6          3.4120    1.1350   -1.2650 cy        1 1W8      0.028700
     21 N6         -4.5100    0.2770    0.6710 nc        1 1W8     -0.677000
     22 C7          1.9210    0.9320   -1.7410 cy        1 1W8      0.115800
     23 N7         -9.3610   -1.1030    1.5070 na        1 1W8     -0.032100
     24 C8          2.8080    2.1820   -0.2530 c         1 1W8      0.689500
     25 C9          0.2660    2.0230   -0.2220 ce        1 1W8     -0.052600
     26 C10        -0.6780    1.0310   -0.3360 c2        1 1W8      0.003500
     27 C11        -0.4840   -0.2280   -1.0630 c3        1 1W8      0.068900
     28 C12        -3.3110    0.2510    0.1040 cd        1 1W8      0.656000
     29 C13        -5.3480   -0.7170    0.1430 cc        1 1W8      0.302800
     30 C14        -4.7410   -1.5230   -0.8400 cd        1 1W8     -0.215400
     31 C15        -6.6940   -0.8540    0.5980 ca        1 1W8      0.067500
     32 C16        -7.2310    0.0220    1.5850 ca        1 1W8     -0.166000
     33 C17        -8.5380   -0.1190    2.0110 ca        1 1W8     -0.036300
     34 C18        -8.8660   -1.9580    0.5540 ca        1 1W8     -0.036300
     35 C19        -7.5620   -1.8570    0.0950 ca        1 1W8     -0.166000
     36 C21        -0.1890    3.2150    0.6000 c         1 1W8      0.737800
     37 S           6.0660   -4.9990   -1.8870 ss        1 1W8      0.047700
     38 HC1         6.5640    1.5590    3.2030 hc        1 1W8      0.056033
     39 HC2         8.1800    1.2710    3.9910 hc        1 1W8      0.056033
     40 HC3         8.0850    1.8330    2.2630 hc        1 1W8      0.056033
     41 H11C        8.6230   -0.6330    2.3770 h1        1 1W8      0.051200
     42 H12C        7.0920   -0.9160    3.3500 h1        1 1W8      0.051200
     43 H7          1.7610    1.2210   -2.8080 h2        1 1W8      0.102700
     44 H111       -1.0620   -0.2060   -2.0270 h1        1 1W8      0.076700
     45 H112       -0.8410   -1.1010   -0.4490 h1        1 1W8      0.076700
     46 H14        -5.2270   -2.3480   -1.3580 h4        1 1W8      0.165000
     47 H4          3.5530   -0.6100   -0.1530 hn        1 1W8      0.341500
     48 H6          4.0480    1.6340   -2.0460 h1        1 1W8      0.126700
     49 H17        -8.9780    0.5500    2.7760 h4        1 1W8      0.184500
     50 H18        -9.5560   -2.7340    0.1700 h4        1 1W8      0.184500
     51 H201      -11.3410   -0.3790    1.5080 h1        1 1W8      0.080033
     52 H202      -11.1660   -2.1950    1.6640 h1        1 1W8      0.080033
     53 H203      -10.7610   -1.1150    3.0830 h1        1 1W8      0.080033
     54 H16        -6.6020    0.8240    2.0160 ha        1 1W8      0.197500
     55 H19        -7.2100   -2.5670   -0.6690 ha        1 1W8      0.197500
     56 N3          3.5680   -4.7020   -3.0480 nh        1 1W8     -0.900500
     57 H31N        2.7190   -4.1830   -3.1270 hn        1 1W8      0.419800
     58 H32N        3.4500   -5.6880   -2.9820 hn        1 1W8      0.419800
     59 C20       -10.7310   -1.2050    1.9640 c3        1 1W8     -0.012400
@<TRIPOS>BOND
     1    1    3 1   
     2    1    8 2   
     3    2    4 1   
     4    2   38 1   
     5    2   39 1   
     6    2   40 1   
     7    3    4 1   
     8    4   41 1   
     9    4   42 1   
    10    5   12 2   
    11    5   37 1   
    12    6   18 2   
    13    7   22 1   
    14    7   27 1   
    15    8   12 1   
    16    8   18 1   
    17    9   12 1   
    18    9   15 2   
    19   10   24 2   
    20   11   13 1   
    21   11   26 1   
    22   11   28 1   
    23   13   36 1   
    24   14   28 1   
    25   14   30 1   
    26   15   37 1   
    27   15   56 1   
    28   16   18 1   
    29   16   20 1   
    30   16   47 1   
    31   17   36 2   
    32   19   22 1   
    33   19   24 1   
    34   19   25 1   
    35   20   22 1   
    36   20   24 1   
    37   20   48 1   
    38   21   28 2   
    39   21   29 1   
    40   22   43 1   
    41   23   33 1   
    42   23   34 2   
    43   23   59 1   
    44   25   26 2   
    45   25   36 1   
    46   26   27 1   
    47   27   44 1   
    48   27   45 1   
    49   29   30 2   
    50   29   31 1   
    51   30   46 1   
    52   31   32 ar  
    53   31   35 ar  
    54   32   33 ar  
    55   32   54 1   
    56   33   49 1   
    57   34   35 ar  
    58   34   50 1   
    59   35   55 1   
    60   51   59 1   
    61   52   59 1   
    62   53   59 1   
    63   56   57 1   
    64   56   58 1   
@<TRIPOS>SUBSTRUCTURE
     1 1W8         1 TEMP              0 ****  ****    0 ROOT
