@<TRIPOS>MOLECULE
1W8
   60    61     1     0     0
SMALL
bcc


@<TRIPOS>ATOM
      1 N          -0.3460   -1.4530   -0.4870 n2        1 1W8      0.077000
      2 C           4.5280   -1.6140   -0.2230 c3        1 1W8     -0.269000
      3 O           0.9380   -1.8680   -0.5110 os        1 1W8     -0.155000
      4 C1          1.1280   -3.1630   -0.2290 c1        1 1W8      0.052000
      5 N1         -3.0430   -0.5460   -1.9770 n2        1 1W8     -0.315000
      6 O1          0.7350   -0.7140   -3.2970 o         1 1W8     -0.346000
      7 S1         -5.5200   -0.4960   -3.6780 sh        1 1W8      0.021000
      8 C2         -0.6610   -0.5320   -1.3480 c2        1 1W8     -0.004000
      9 N2         -2.2520    1.2460   -0.6340 n2        1 1W8     -0.241000
     10 O2          0.4160    4.0520   -4.7120 o         1 1W8     -0.214000
     11 S2         -3.6980    2.3500   -7.6220 s4        1 1W8      1.730000
     12 C3         -2.0370    0.0460   -1.3300 c2        1 1W8      0.013000
     13 O3         -3.5300    3.9430   -6.8720 os        1 1W8     -0.478000
     14 S3         -5.5010    0.6980   -5.7660 ss        1 1W8      0.870000
     15 C4         -3.5630    1.5800   -0.7860 c2        1 1W8     -0.135000
     16 N4          0.3350    1.4030   -2.5020 ns        1 1W8     -0.372000
     17 O4         -2.2330    5.0980   -5.4890 o         1 1W8     -0.209000
     18 C5          0.1990    0.0290   -2.4540 c2        1 1W8      0.337000
     19 N5         -0.7380    2.1460   -5.2820 n         1 1W8     -0.089000
     20 C6          1.0980    2.0560   -3.5110 c3        1 1W8     -0.031000
     21 N6         -6.2340    2.1630   -7.7750 n2        1 1W8      0.011000
     22 C7         -0.7060    0.7790   -5.6200 c2        1 1W8     -0.093000
     23 N7        -11.7160    3.3190   -8.2550 n3        1 1W8     -0.009000
     24 C8          0.2530    2.8490   -4.5210 c2        1 1W8      0.283000
     25 C9         -1.8230    2.6970   -5.9290 c2        1 1W8     -0.066000
     26 C10        -2.4990    1.6910   -6.6880 c2        1 1W8     -0.663000
     27 C11        -1.7790    0.4760   -6.4730 c2        1 1W8     -0.071000
     28 C12        -5.0780    1.8000   -7.1070 c2        1 1W8     -1.149000
     29 C13        -7.3170    1.5670   -7.2060 c2        1 1W8     -0.049000
     30 C14        -6.9830    0.7510   -6.0930 c1        1 1W8     -0.676000
     31 C15        -8.6240    1.7420   -7.6780 c1        1 1W8      0.153000
     32 C16        -9.7550    1.8870   -8.0520 c1        1 1W8     -0.356000
     33 C17       -11.0990    1.9840   -8.5110 c3        1 1W8      0.097000
     34 C18       -11.0640    4.2750   -7.7280 c1        1 1W8      0.030000
     35 C19       -10.3610    5.2240   -7.1890 c2        1 1W8     -0.071000
     36 C21        -2.4600    4.0240   -6.0170 c2        1 1W8      0.373000
     37 S          -4.4010    0.3770   -1.7990 ss        1 1W8      0.418000
     38 HC1         2.2470   -3.2780   -0.2270 ha        1 1W8      0.051000
     39 HC2         5.1050   -1.3480   -1.1360 hc        1 1W8      0.067500
     40 HC3         4.5960   -2.7100   -0.0480 hc        1 1W8      0.067500
     41 H11C        3.4620   -1.3260   -0.3610 hc        1 1W8      0.067500
     42 H12C        4.9480   -1.0720    0.6520 hc        1 1W8      0.067500
     43 H7          1.7220    1.3070   -4.0840 h1        1 1W8      0.149500
     44 H111       -5.1190   -1.7550   -3.8530 hs        1 1W8      0.077000
     45 H112       -2.0050   -0.5030   -6.8910 ha        1 1W8      0.183000
     46 H14        -6.8030   -0.7610   -3.4290 hs        1 1W8      0.077000
     47 H4          0.0710    0.1130   -5.2230 h4        1 1W8      0.223000
     48 H6          1.7880    2.8170   -3.0350 h1        1 1W8      0.149500
     49 H17       -11.1580    1.8250   -9.6310 h1        1 1W8      0.146000
     50 H18        -9.7750    5.9350   -7.8020 ha        1 1W8      0.214500
     51 H201      -13.1970    3.2270   -9.7500 h1        1 1W8      0.138333
     52 H202      -13.4890    4.4890   -8.4500 h1        1 1W8      0.138333
     53 H203      -13.7240    2.7100   -8.0680 h1        1 1W8      0.138333
     54 H16       -11.7590    1.2270   -7.9880 h1        1 1W8      0.146000
     55 H19       -10.3150    5.3640   -6.0920 ha        1 1W8      0.214500
     56 N3         -4.1430    2.7300   -0.3340 nv        1 1W8     -0.305000
     57 H31N       -5.1270    2.7070   -0.2080 hn        1 1W8      0.225500
     58 H32N       -3.6320    3.3050    0.2990 hn        1 1W8      0.225500
     59 H42        -0.0480    1.9630   -1.7720 hn        1 1W8      0.268000
     60 C20       -13.1140    3.4510   -8.6520 c3        1 1W8     -0.136000
@<TRIPOS>BOND
     1    1    3 1   
     2    1    8 1   
     3    2   39 1   
     4    2   40 1   
     5    2   41 1   
     6    2   42 1   
     7    3    4 1   
     8    4   38 1   
     9    5   12 1   
    10    5   37 1   
    11    6   18 1   
    12    7   44 1   
    13    7   46 1   
    14    8   12 1   
    15    8   18 1   
    16    9   12 1   
    17    9   15 1   
    18   10   24 1   
    19   11   13 1   
    20   11   26 1   
    21   11   28 1   
    22   13   36 1   
    23   14   28 1   
    24   14   30 1   
    25   15   37 1   
    26   15   56 1   
    27   16   18 1   
    28   16   20 1   
    29   16   59 1   
    30   17   36 1   
    31   19   22 1   
    32   19   24 1   
    33   19   25 1   
    34   20   24 1   
    35   20   43 1   
    36   20   48 1   
    37   21   28 1   
    38   21   29 1   
    39   22   27 1   
    40   22   47 1   
    41   23   33 1   
    42   23   34 1   
    43   23   60 1   
    44   25   26 1   
    45   25   36 1   
    46   26   27 1   
    47   27   45 1   
    48   29   30 1   
    49   29   31 1   
    50   31   32 1   
    51   32   33 1   
    52   33   49 1   
    53   33   54 1   
    54   34   35 1   
    55   35   50 1   
    56   35   55 1   
    57   51   60 1   
    58   52   60 1   
    59   53   60 1   
    60   56   57 1   
    61   56   58 1   
@<TRIPOS>SUBSTRUCTURE
     1 1W8         1 TEMP              0 ****  ****    0 ROOT
