@<TRIPOS>MOLECULE
1W8
   59    57     1     0     0
SMALL
bcc


@<TRIPOS>ATOM
      1 N           6.4040    0.5160   -1.7410 n1        1 1W8      0.050000
      2 C           9.3270    0.0560   -3.7230 c3        1 1W8     -0.223000
      3 O           7.6010    0.1500   -1.9850 o         1 1W8     -0.189000
      4 C1          8.0560    0.7700   -3.2320 c3        1 1W8     -0.022000
      5 N1          7.5950   -1.1950    1.1190 n2        1 1W8     -0.279000
      6 O1          4.1370    1.9520    0.2130 o         1 1W8     -0.226000
      7 S1          1.0200   -1.4920    1.2750 ss        1 1W8      0.077000
      8 C2          5.9150    0.4500   -0.4670 c1        1 1W8     -0.115000
      9 N2          7.5560    1.2350    1.3650 n2        1 1W8     -0.221000
     10 O2          2.0170    0.9840   -2.1300 o         1 1W8     -0.256000
     11 S2         -3.0630   -2.5260    0.1760 ss        1 1W8      0.462000
     12 C3          6.8570   -0.0800    0.7340 c1        1 1W8      0.003000
     13 N3          9.7600    1.3280    3.0780 n3        1 1W8     -0.299000
     14 O3         -1.5560   -0.1810   -2.8700 o         1 1W8     -0.443000
     15 S3         -3.8010    0.1360    1.2520 ss        1 1W8      1.275000
     16 C4          8.6980    0.8190    2.1070 c2        1 1W8     -0.123000
     17 N4          2.7050   -0.3070   -0.1660 n         1 1W8     -0.243000
     18 O4         -1.6510   -2.2530   -3.3230 o         1 1W8     -0.443000
     19 C5          4.2840    0.9860   -0.1300 c2        1 1W8      0.300000
     20 N5          0.9530   -0.9660   -1.2210 n         1 1W8     -0.274000
     21 C6          2.7050   -0.3060   -0.1660 cy        1 1W8     -0.103000
     22 N6         -5.6160   -1.2600    0.3830 n2        1 1W8     -0.031000
     23 C7          1.7330   -1.4820   -0.0790 cy        1 1W8     -0.017000
     24 N7        -10.4450    0.9480    1.0910 n2        1 1W8     -0.164000
     25 C8          1.9250    0.1360   -1.4140 cv        1 1W8      0.315000
     26 C9         -0.4650   -1.5510   -1.4100 c2        1 1W8      0.069000
     27 C10        -1.3910   -1.9810    0.2240 c2        1 1W8     -0.419000
     28 C11        -0.5330   -2.3980    1.3170 c3        1 1W8     -0.228000
     29 C12        -4.1560   -1.1830    0.4820 c2        1 1W8     -0.633000
     30 C13        -6.2530    0.0240    1.0930 c1        1 1W8     -0.141000
     31 C14        -5.1660    0.8520    1.6120 c1        1 1W8     -0.746000
     32 C15        -7.7130    0.3770    1.1030 c1        1 1W8      0.144000
     33 C16        -8.2660    1.0420    0.0300 c2        1 1W8     -0.183000
     34 C17        -9.6370    1.3320    0.0160 c1        1 1W8     -0.020000
     35 C18        -9.9070    0.2950    2.1470 c1        1 1W8     -0.010000
     36 C19        -8.5100   -0.0030    2.1650 c1        1 1W8     -0.199000
     37 C20       -11.8590    1.3760    0.9730 c3        1 1W8     -0.089000
     38 C21        -1.2170   -1.2830   -2.6220 c2        1 1W8      0.386000
     39 S           8.7930   -0.7030    2.0030 ss        1 1W8      0.412000
     40 HC1         9.1260   -0.8550   -3.9260 hc        1 1W8      0.088667
     41 HC2        10.0740    0.0950   -2.9550 hc        1 1W8      0.088667
     42 HC3         9.6790    0.5260   -4.5690 hc        1 1W8      0.088667
     43 H11C        8.2860    1.8560   -3.0540 h1        1 1W8      0.120500
     44 H12C        7.3160    0.6880   -3.9420 h1        1 1W8      0.120500
     45 H7          2.2100   -2.4020   -0.3000 h2        1 1W8      0.127000
     46 H111       -0.4940   -3.3030    1.4360 h1        1 1W8      0.129000
     47 H112       -0.9850   -2.1320    2.1760 h1        1 1W8      0.129000
     48 H31N       10.0070    2.1510    3.0430 hn        1 1W8      0.216000
     49 H32N       10.3360    0.6060    3.6910 hn        1 1W8      0.216000
     50 H14        -5.2810    1.8290    2.1670 DU        1 1W8      0.177000
     51 H4          2.7350   -1.2270   -0.9000 hn        1 1W8      0.198000
     52 H6          3.0030    0.2950    0.6230 h1        1 1W8      0.170000
     53 H17       -10.0690    1.7470   -0.8350 ha        1 1W8      0.164000
     54 H18       -10.4800    0.1710    3.0330 ha        1 1W8      0.163000
     55 H201      -11.9090    2.4500    0.9680 h1        1 1W8      0.101000
     56 H202      -12.3840    1.0180    1.7520 h1        1 1W8      0.101000
     57 H203      -12.2340    1.0300    0.1420 h1        1 1W8      0.101000
     58 H16        -7.6630    1.3310   -0.7760 ha        1 1W8      0.183000
     59 H19        -8.1080   -0.4880    2.9470 ha        1 1W8      0.166000
@<TRIPOS>BOND
     1    1    8 1   
     2    2    4 1   
     3    2   40 1   
     4    2   41 1   
     5    2   42 1   
     6    3    4 1   
     7    4   43 1   
     8    4   44 1   
     9    5   12 1   
    10    5   39 1   
    11    6   19 1   
    12    7   23 1   
    13    7   28 1   
    14    8   19 1   
    15    9   12 1   
    16    9   16 1   
    17   10   25 1   
    18   11   27 1   
    19   11   29 1   
    20   13   16 1   
    21   13   48 1   
    22   13   49 1   
    23   14   38 1   
    24   15   29 1   
    25   15   31 1   
    26   16   39 1   
    27   17   19 1   
    28   17   21 1   
    29   17   51 1   
    30   18   38 1   
    31   20   23 1   
    32   20   25 1   
    33   20   26 1   
    34   21   23 1   
    35   21   25 1   
    36   21   52 1   
    37   22   29 1   
    38   22   30 1   
    39   23   45 1   
    40   24   35 1   
    41   24   37 1   
    42   26   27 1   
    43   26   38 1   
    44   27   28 1   
    45   28   46 1   
    46   28   47 1   
    47   30   31 1   
    48   32   33 1   
    49   32   36 1   
    50   33   34 1   
    51   33   58 1   
    52   34   53 1   
    53   35   54 1   
    54   36   59 1   
    55   37   55 1   
    56   37   56 1   
    57   37   57 1   
@<TRIPOS>SUBSTRUCTURE
     1 1W8         1 TEMP              0 ****  ****    0 ROOT
