@<TRIPOS>MOLECULE
1W9
   34    31     1     0     0
SMALL
bcc


@<TRIPOS>ATOM
      1 C         -48.8580  -40.7510   68.7430 c2        1 1W9      0.326000
      2 N         -49.6070  -41.3310   66.4060 n3        1 1W9     -0.140000
      3 O         -48.5400  -41.9110   69.1350 o         1 1W9     -0.575000
      4 P         252.0820  186.1840 -318.4140 p3        1 1W9      2.389000
      5 N1        -53.5030  -43.0330   63.5310 n2        1 1W9     -0.119000
      6 C2        -52.5720  -43.7150   64.2640 c2        1 1W9     -0.440000
      7 C3        -51.3500  -43.1430   64.7180 c2        1 1W9      0.265000
      8 O3        -50.4910  -43.8220   65.3500 o         1 1W9     -0.491000
      9 C4        -51.0550  -41.6820   64.4090 c3        1 1W9     -0.148000
     10 C5        -50.4520  -41.5860   63.0170 c3        1 1W9     -0.164000
     11 C6        -54.3250  -42.4870   62.8880 c1        1 1W9     -0.211000
     12 CA        -48.7830  -40.4430   67.2120 c3        1 1W9     -0.100000
     13 CB        -47.2980  -40.4730   66.8070 c3        1 1W9     -0.005000
     14 OG        -46.6680  -41.7290   66.9560 oh        1 1W9     -0.380000
     15 O1P       251.1870  186.2660 -319.5820 o         1 1W9     -1.130333
     16 O2P       253.3240  185.3960 -318.4800 o         1 1W9     -1.130333
     17 O3P       251.7570  186.9410 -317.1860 o         1 1W9     -1.130333
     18 C4A       -50.1800  -40.8840   65.3230 c1        1 1W9     -0.218000
     19 C5A       250.2300  185.1530 -315.6370 c1        1 1W9      0.201000
     20 OXT       -49.1730  -39.8000   69.5080 o         1 1W9     -0.575000
     21 H1        -47.1680  -40.2020   65.7250 h1        1 1W9      0.055000
     22 H2        -49.5010  -42.1690   62.9710 hc        1 1W9      0.058000
     23 H3        -49.6510  -42.2800   66.7380 hn        1 1W9      0.214000
     24 H4        -46.7540  -39.7220   67.4450 h1        1 1W9      0.055000
     25 H5        -49.1500  -39.3880   67.0530 h1        1 1W9      0.111000
     26 H6        -47.1180  -42.2010   67.6780 ho        1 1W9      0.246000
     27 H8        -52.9630  -45.7690   63.6820 hc        1 1W9      0.030667
     28 H9        -52.0330  -45.5390   65.2240 hc        1 1W9      0.030667
     29 H10       -53.8230  -45.2380   65.1750 hc        1 1W9      0.030667
     30 H12       -52.0280  -41.1060   64.4220 hc        1 1W9      0.105000
     31 H13       -51.1610  -42.0010   62.2610 hc        1 1W9      0.058000
     32 H14       -50.2310  -40.5220   62.7630 hc        1 1W9      0.058000
     33 C2A       -52.8660  -45.1310   64.6000 c3        1 1W9     -0.078000
     34 O4P       250.6880  184.9380 -316.6940 o         1 1W9     -0.200000
@<TRIPOS>BOND
     1    1    3 1   
     2    1   12 1   
     3    1   20 1   
     4    2   12 1   
     5    2   18 1   
     6    2   23 1   
     7    4   15 1   
     8    4   16 1   
     9    4   17 1   
    10    5    6 1   
    11    5   11 1   
    12    6    7 1   
    13    6   33 1   
    14    7    8 1   
    15    7    9 1   
    16    9   10 1   
    17    9   18 1   
    18    9   30 1   
    19   10   22 1   
    20   10   31 1   
    21   10   32 1   
    22   12   13 1   
    23   12   25 1   
    24   13   14 1   
    25   13   21 1   
    26   13   24 1   
    27   14   26 1   
    28   19   34 1   
    29   27   33 1   
    30   28   33 1   
    31   29   33 1   
@<TRIPOS>SUBSTRUCTURE
     1 1W9         1 TEMP              0 ****  ****    0 ROOT
