@<TRIPOS>MOLECULE
1WB
   20    20     1     0     0
SMALL
bcc


@<TRIPOS>ATOM
      1 C1         -0.0010   -0.0030    0.0070 ca        1 1WB     -0.129600
      2 CO1         1.4000   -0.0060   -0.0050 ca        1 1WB     -0.096000
      3 CO2        -0.6800    0.0000    1.2290 ca        1 1WB     -0.161000
      4 CM1         2.1320   -0.0060    1.1870 ca        1 1WB     -0.129600
      5 CM2         0.0570    0.0000    2.4220 ca        1 1WB      0.033100
      6 OM         -0.7140    0.0040    3.5920 os        1 1WB     -0.358900
      7 CZ          1.4520   -0.0030    2.4120 ca        1 1WB     -0.161000
      8 CC         -0.8110   -0.0030   -1.2750 c         1 1WB      0.905200
      9 CV          0.0260    0.0030    4.7980 c3        1 1WB      0.128700
     10 O1         -0.2120   -0.0030   -2.3900 o         1 1WB     -0.858550
     11 O2         -2.0790   -0.0020   -1.1910 o         1 1WB     -0.858550
     12 CCC         3.6470   -0.0100    1.2070 c         1 1WB      0.905200
     13 O11         4.2360   -0.0100    2.3340 o         1 1WB     -0.858550
     14 O22         4.2890   -0.0140    0.1160 o         1 1WB     -0.858550
     15 H1          1.9330   -0.0090   -0.9710 ha        1 1WB      0.163000
     16 H2         -1.7780    0.0030    1.2400 ha        1 1WB      0.139500
     17 H3          2.0520   -0.0030    3.3330 ha        1 1WB      0.139500
     18 H4          0.6620   -0.9120    4.8780 h1        1 1WB      0.018033
     19 H5          0.6670    0.9160    4.8760 h1        1 1WB      0.018033
     20 H6         -0.7540    0.0060    5.6000 h1        1 1WB      0.018033
@<TRIPOS>BOND
     1    1    2 ar  
     2    1    3 ar  
     3    1    8 1   
     4    2    4 ar  
     5    2   15 1   
     6    3    5 ar  
     7    3   16 1   
     8    4    7 ar  
     9    4   12 1   
    10    5    6 1   
    11    5    7 ar  
    12    6    9 1   
    13    7   17 1   
    14    8   10 1   
    15    8   11 1   
    16    9   18 1   
    17    9   19 1   
    18    9   20 1   
    19   12   13 1   
    20   12   14 1   
@<TRIPOS>SUBSTRUCTURE
     1 1WB         1 TEMP              0 ****  ****    0 ROOT
