@<TRIPOS>MOLECULE
1WC
   22    23     1     0     0
SMALL
bcc


@<TRIPOS>ATOM
      1 C1         -0.0160   -0.0530   -0.1710 c3        1 1WC     -0.038800
      2 C2          1.4460   -0.0560   -0.0150 cc        1 1WC     -0.064600
      3 C6          3.6070   -0.0290    0.6700 cd        1 1WC      0.315200
      4 C7          2.2390   -0.0450    1.1530 cd        1 1WC     -0.225300
      5 C8          1.8290   -0.0230    2.5350 ca        1 1WC      0.014000
      6 C10         1.7650    1.1620    4.6590 ca        1 1WC     -0.131000
      7 C11         1.0800    0.0970    5.2430 ca        1 1WC     -0.123000
      8 C12         0.7710   -1.0310    4.4870 ca        1 1WC     -0.129000
      9 C13         1.1460   -1.0930    3.1400 ca        1 1WC      0.024400
     10 N3          2.3510   -0.0450   -1.0870 na        1 1WC     -0.021600
     11 N5          3.6220   -0.0360   -0.6860 nc        1 1WC     -0.514800
     12 C9          2.1360    1.1010    3.3190 ca        1 1WC     -0.112000
     13 Cl1         0.7660   -2.5020    2.2650 cl        1 1WC     -0.093400
     14 H16        -0.4940   -0.2330    0.8250 hc        1 1WC      0.057700
     15 H17        -0.3500   -0.8550   -0.8760 hc        1 1WC      0.057700
     16 H15        -0.3680    0.9340   -0.5640 hc        1 1WC      0.057700
     17 H18         4.5190   -0.0220    1.2660 h4        1 1WC      0.046100
     18 H20         2.0130    2.0510    5.2570 ha        1 1WC      0.136000
     19 H21         0.7850    0.1430    6.3020 ha        1 1WC      0.137000
     20 H22         0.2370   -1.8750    4.9490 ha        1 1WC      0.146000
     21 H4          2.1250   -0.0700   -2.0520 hn        1 1WC      0.320700
     22 H19         2.6770    1.9420    2.8570 ha        1 1WC      0.142000
@<TRIPOS>BOND
     1    1    2 1   
     2    1   14 1   
     3    1   15 1   
     4    1   16 1   
     5    2    4 2   
     6    2   10 1   
     7    3    4 1   
     8    3   11 2   
     9    3   17 1   
    10    4    5 1   
    11    5    9 ar  
    12    5   12 ar  
    13    6    7 ar  
    14    6   12 ar  
    15    6   18 1   
    16    7    8 ar  
    17    7   19 1   
    18    8    9 ar  
    19    8   20 1   
    20    9   13 1   
    21   10   11 1   
    22   10   21 1   
    23   12   22 1   
@<TRIPOS>SUBSTRUCTURE
     1 1WC         1 TEMP              0 ****  ****    0 ROOT
