@<TRIPOS>MOLECULE
1WC
   22    23     1     0     0
SMALL
bcc


@<TRIPOS>ATOM
      1 C1         -0.0140   -0.0300   -0.1730 c3        1 1WC     -0.038800
      2 C2          1.4480   -0.0370   -0.0150 cc        1 1WC     -0.064600
      3 C6          3.6080   -0.0180    0.6720 cd        1 1WC      0.315200
      4 C7          2.2400   -0.0380    1.1530 cd        1 1WC     -0.225300
      5 C8          1.8280   -0.0290    2.5350 ca        1 1WC      0.014000
      6 C10         1.7630    1.1360    4.6700 ca        1 1WC     -0.131000
      7 C11         1.0770    0.0650    5.2440 ca        1 1WC     -0.123000
      8 C12         0.7690   -1.0550    4.4770 ca        1 1WC     -0.129000
      9 C13         1.1440   -1.1040    3.1290 ca        1 1WC      0.024400
     10 N3          2.3540   -0.0160   -1.0860 na        1 1WC     -0.021600
     11 N5          3.6250   -0.0120   -0.6840 nc        1 1WC     -0.514800
     12 C9          2.1350    1.0880    3.3300 ca        1 1WC     -0.112000
     13 CL1         0.7650   -2.5050    2.2400 cl        1 1WC     -0.093400
     14 H16        -0.4930   -0.2230    0.8200 hc        1 1WC      0.057700
     15 H17        -0.3480   -0.8230   -0.8890 hc        1 1WC      0.057700
     16 H15        -0.3640    0.9630   -0.5530 hc        1 1WC      0.057700
     17 H18         4.5200   -0.0180    1.2700 h4        1 1WC      0.046100
     18 H20         2.0100    2.0190    5.2770 ha        1 1WC      0.136000
     19 H21         0.7810    0.1010    6.3030 ha        1 1WC      0.137000
     20 H22         0.2340   -1.9040    4.9300 ha        1 1WC      0.146000
     21 H4          2.1290   -0.0310   -2.0520 hn        1 1WC      0.320700
     22 H19         2.6760    1.9320    2.8770 ha        1 1WC      0.142000
@<TRIPOS>BOND
     1    1    2 1   
     2    1   14 1   
     3    1   15 1   
     4    1   16 1   
     5    2    4 2   
     6    2   10 1   
     7    3    4 1   
     8    3   11 2   
     9    3   17 1   
    10    4    5 1   
    11    5    9 ar  
    12    5   12 ar  
    13    6    7 ar  
    14    6   12 ar  
    15    6   18 1   
    16    7    8 ar  
    17    7   19 1   
    18    8    9 ar  
    19    8   20 1   
    20    9   13 1   
    21   10   11 1   
    22   10   21 1   
    23   12   22 1   
@<TRIPOS>SUBSTRUCTURE
     1 1WC         1 TEMP              0 ****  ****    0 ROOT
