@<TRIPOS>MOLECULE
1WD
   14    14     1     0     0
SMALL
bcc


@<TRIPOS>ATOM
      1 O10         0.0300   -0.0340    0.1150 o         1 1WD     -0.774800
      2 C8          1.2770    0.0220    0.0460 c         1 1WD      0.807100
      3 O9          2.0430    0.0750    1.0680 o         1 1WD     -0.774800
      4 C3          2.0110    0.0340   -1.3030 ca        1 1WD      0.349800
      5 N4          1.3490   -0.0170   -2.4700 nb        1 1WD     -0.621000
      6 C5          2.0740   -0.0030   -3.6110 ca        1 1WD      0.334200
      7 C6          3.4730    0.0620   -3.6430 ca        1 1WD     -0.248300
      8 C1          4.1600    0.1150   -2.4310 ca        1 1WD     -0.154000
      9 C2          3.4430    0.1020   -1.2300 ca        1 1WD     -0.105400
     10 S7          4.1300    0.1600    0.2970 sh        1 1WD      0.015300
     11 H2          1.4870   -0.0470   -4.5430 h4        1 1WD     -0.006900
     12 H3          4.0120    0.0710   -4.5980 ha        1 1WD      0.112000
     13 H4          5.2580    0.1670   -2.4200 ha        1 1WD      0.117000
     14 H5          5.3990    0.2140   -0.0870 hs        1 1WD     -0.050200
@<TRIPOS>BOND
     1    1    2 1   
     2    2    3 1   
     3    2    4 1   
     4    4    5 ar  
     5    4    9 ar  
     6    5    6 ar  
     7    6    7 ar  
     8    6   11 1   
     9    7    8 ar  
    10    7   12 1   
    11    8    9 ar  
    12    8   13 1   
    13    9   10 1   
    14   10   14 1   
@<TRIPOS>SUBSTRUCTURE
     1 1WD         1 TEMP              0 ****  ****    0 ROOT
