@<TRIPOS>MOLECULE
1WE
   24    24     1     0     0
SMALL
bcc


@<TRIPOS>ATOM
      1 N           0.0490    0.1760   -0.1080 n4        1 1WE     -0.845600
      2 CA          1.5370   -0.0160    0.0570 c3        1 1WE      0.128500
      3 C           1.9150   -0.1450    1.5230 c3        1 1WE     -0.138100
      4 CB          2.0110   -1.2410   -0.7380 c3        1 1WE     -0.057100
      5 CG          1.5790   -1.1750   -2.1590 ca        1 1WE     -0.160300
      6 CD1         0.4060   -1.8240   -2.5690 ca        1 1WE     -0.136000
      7 CD2         2.3580   -0.4970   -3.1030 ca        1 1WE     -0.136000
      8 CE1         0.0150   -1.7870   -3.9050 ca        1 1WE     -0.112000
      9 CE2         1.9630   -0.4600   -4.4400 ca        1 1WE     -0.112000
     10 CZ          0.7920   -1.1020   -4.8430 ca        1 1WE     -0.098000
     11 H1         -0.1860    0.1250   -1.1090 hn        1 1WE      0.459800
     12 H2         -0.2320    1.0820    0.2720 hn        1 1WE      0.459800
     13 H4          2.0160    0.9120   -0.3830 hx        1 1WE      0.111700
     14 H5          3.0300   -0.2260    1.5910 hc        1 1WE      0.081367
     15 H6          1.5970    0.7500    2.1110 hc        1 1WE      0.081367
     16 H7          1.4730   -1.0630    1.9830 hc        1 1WE      0.081367
     17 H8          3.1340   -1.2590   -0.6720 hc        1 1WE      0.093700
     18 H9          1.6370   -2.1830   -0.2530 hc        1 1WE      0.093700
     19 H10        -0.1840   -2.4070   -1.8450 ha        1 1WE      0.135500
     20 H11         3.2950   -0.0060   -2.7950 ha        1 1WE      0.135500
     21 H12        -0.8990   -2.3120   -4.2260 ha        1 1WE      0.157000
     22 H13         2.5850    0.0670   -5.1810 ha        1 1WE      0.157000
     23 H14         0.4860   -1.0810   -5.9010 ha        1 1WE      0.160000
     24 HN3        -0.4530   -0.5660    0.3870 hn        1 1WE      0.459800
@<TRIPOS>BOND
     1    1    2 1   
     2    1   11 1   
     3    1   12 1   
     4    1   24 1   
     5    2    3 1   
     6    2    4 1   
     7    2   13 1   
     8    3   14 1   
     9    3   15 1   
    10    3   16 1   
    11    4    5 1   
    12    4   17 1   
    13    4   18 1   
    14    5    6 ar  
    15    5    7 ar  
    16    6    8 ar  
    17    6   19 1   
    18    7    9 ar  
    19    7   20 1   
    20    8   10 ar  
    21    8   21 1   
    22    9   10 ar  
    23    9   22 1   
    24   10   23 1   
@<TRIPOS>SUBSTRUCTURE
     1 1WE         1 TEMP              0 ****  ****    0 ROOT
