@<TRIPOS>MOLECULE
1WE
   24    24     1     0     0
SMALL
bcc


@<TRIPOS>ATOM
      1 N           0.0590    0.1900   -0.1080 n4        1 1WE     -0.845600
      2 CA          1.5450   -0.0180    0.0570 c3        1 1WE      0.128500
      3 C           1.9210   -0.1510    1.5220 c3        1 1WE     -0.138100
      4 CB          2.0050   -1.2490   -0.7380 c3        1 1WE     -0.057100
      5 CG          1.5740   -1.1790   -2.1590 ca        1 1WE     -0.160300
      6 CD1         0.3930   -1.8140   -2.5680 ca        1 1WE     -0.136000
      7 CD2         2.3600   -0.5110   -3.1040 ca        1 1WE     -0.136000
      8 CE1         0.0020   -1.7730   -3.9040 ca        1 1WE     -0.112000
      9 CE2         1.9650   -0.4700   -4.4410 ca        1 1WE     -0.112000
     10 CZ          0.7860   -1.0990   -4.8420 ca        1 1WE     -0.098000
     11 H1         -0.1770    0.1420   -1.1090 hn        1 1WE      0.459800
     12 H2         -0.2120    1.0990    0.2720 hn        1 1WE      0.459800
     13 H4          2.0340    0.9040   -0.3830 hx        1 1WE      0.111700
     14 H5          1.4700   -1.0640    1.9830 hc        1 1WE      0.081367
     15 H6          3.0350   -0.2440    1.5900 hc        1 1WE      0.081367
     16 H7          1.6130    0.7480    2.1110 hc        1 1WE      0.081367
     17 H8          3.1280   -1.2800   -0.6730 hc        1 1WE      0.093700
     18 H9          1.6200   -2.1860   -0.2530 hc        1 1WE      0.093700
     19 H10        -0.2040   -2.3890   -1.8440 ha        1 1WE      0.135500
     20 H11         3.3030   -0.0310   -2.7970 ha        1 1WE      0.135500
     21 H12        -0.9190   -2.2870   -4.2240 ha        1 1WE      0.157000
     22 H13         2.5940    0.0490   -5.1820 ha        1 1WE      0.157000
     23 H14         0.4800   -1.0750   -5.9010 ha        1 1WE      0.160000
     24 HN3        -0.4510   -0.5470    0.3860 hn        1 1WE      0.459800
@<TRIPOS>BOND
     1    1    2 1   
     2    1   11 1   
     3    1   12 1   
     4    1   24 1   
     5    2    3 1   
     6    2    4 1   
     7    2   13 1   
     8    3   14 1   
     9    3   15 1   
    10    3   16 1   
    11    4    5 1   
    12    4   17 1   
    13    4   18 1   
    14    5    6 ar  
    15    5    7 ar  
    16    6    8 ar  
    17    6   19 1   
    18    7    9 ar  
    19    7   20 1   
    20    8   10 ar  
    21    8   21 1   
    22    9   10 ar  
    23    9   22 1   
    24   10   23 1   
@<TRIPOS>SUBSTRUCTURE
     1 1WE         1 TEMP              0 ****  ****    0 ROOT
