@<TRIPOS>MOLECULE
1WE
   23    20     1     0     0
SMALL
bcc


@<TRIPOS>ATOM
      1 N          -2.2250    0.5760    1.0180 n3        1 1WE     -0.915800
      2 CA         -0.8830    0.3230    1.4180 c3        1 1WE      0.175500
      3 C          -0.8410    0.0600    2.9060 c3        1 1WE     -0.091100
      4 CB         -0.3550   -0.8850    0.6780 c3        1 1WE     -0.073300
      5 CG          0.3770   -0.4340   -0.5670 c1        1 1WE     -0.051100
      6 CD1        -0.2510   -0.4950   -1.8010 c1        1 1WE     -0.072500
      7 CD2         1.7000   -0.0270   -0.4820 c1        1 1WE     -0.071500
      8 CE1         0.4420   -0.1490   -2.9500 c1        1 1WE     -0.072500
      9 CE2         2.3930    0.3190   -1.6310 c1        1 1WE     -0.072500
     10 CZ          1.7650    0.2580   -2.8650 c1        1 1WE     -0.072500
     11 H1         -2.7430    0.7150    1.7600 hn        1 1WE      0.352300
     12 H2         -2.2490    1.3200    0.4840 hn        1 1WE      0.352300
     13 H4         -0.3280    1.1010    1.2090 h1        1 1WE      0.008700
     14 H5         -1.2250    0.8240    3.3830 hc        1 1WE      0.039033
     15 H6         -1.3590   -0.7470    3.1090 hc        1 1WE      0.039033
     16 H7          0.0880   -0.0680    3.1890 hc        1 1WE      0.039033
     17 H8          0.2590   -1.3790    1.2560 hc        1 1WE      0.057200
     18 H9         -1.1020   -1.4640    0.4250 hc        1 1WE      0.057200
     19 H10        -1.1820   -0.7810   -1.8600 ha        1 1WE      0.075500
     20 H11         2.1420    0.0170    0.3860 ha        1 1WE      0.072500
     21 H12        -0.0000   -0.1920   -3.8180 ha        1 1WE      0.075500
     22 H13         3.3240    0.6060   -1.5720 ha        1 1WE      0.075500
     23 H14         2.2530    0.5020   -3.6740 ha        1 1WE      0.075500
@<TRIPOS>BOND
     1    1    2 1   
     2    1   11 1   
     3    1   12 1   
     4    2    3 1   
     5    2    4 1   
     6    2   13 1   
     7    3   14 1   
     8    3   15 1   
     9    3   16 1   
    10    4    5 1   
    11    4   17 1   
    12    4   18 1   
    13    5    7 3   
    14    6    8 3   
    15    6   19 1   
    16    7   20 1   
    17    8   21 1   
    18    9   10 3   
    19    9   22 1   
    20   10   23 1   
@<TRIPOS>SUBSTRUCTURE
     1 1WE         1 TEMP              0 ****  ****    0 ROOT
