@<TRIPOS>MOLECULE
1WE
   24    24     1     0     0
SMALL
bcc


@<TRIPOS>ATOM
      1 N           0.0580    0.1910   -0.1090 nz        1 1WE     -0.845600
      2 CA          1.5440   -0.0170    0.0570 c3        1 1WE      0.128500
      3 C           1.9190   -0.1490    1.5220 c3        1 1WE     -0.138100
      4 CB          2.0050   -1.2490   -0.7370 c3        1 1WE     -0.057100
      5 CG          1.5740   -1.1800   -2.1580 ca        1 1WE     -0.160300
      6 CD1         0.3940   -1.8150   -2.5670 ca        1 1WE     -0.136000
      7 CD2         2.3610   -0.5110   -3.1030 ca        1 1WE     -0.136000
      8 CE1         0.0030   -1.7750   -3.9050 ca        1 1WE     -0.112000
      9 CE2         1.9670   -0.4720   -4.4410 ca        1 1WE     -0.112000
     10 CZ          0.7880   -1.1010   -4.8420 ca        1 1WE     -0.098000
     11 H1         -0.1780    0.1420   -1.1110 hn        1 1WE      0.459800
     12 H2         -0.2140    1.1000    0.2700 hn        1 1WE      0.459800
     13 H4          2.0330    0.9050   -0.3840 hx        1 1WE      0.111700
     14 H5          1.6110    0.7500    2.1100 hc        1 1WE      0.081367
     15 H6          1.4680   -1.0610    1.9840 hc        1 1WE      0.081367
     16 H7          3.0340   -0.2420    1.5910 hc        1 1WE      0.081367
     17 H8          3.1270   -1.2790   -0.6710 hc        1 1WE      0.093700
     18 H9          1.6190   -2.1860   -0.2510 hc        1 1WE      0.093700
     19 H10        -0.2040   -2.3900   -1.8440 ha        1 1WE      0.135500
     20 H11         3.3030   -0.0310   -2.7960 ha        1 1WE      0.135500
     21 H12        -0.9160   -2.2900   -4.2250 ha        1 1WE      0.157000
     22 H13         2.5960    0.0470   -5.1820 ha        1 1WE      0.157000
     23 H14         0.4830   -1.0780   -5.9010 ha        1 1WE      0.160000
     24 HN3        -0.4530   -0.5450    0.3860 hn        1 1WE      0.459800
@<TRIPOS>BOND
     1    1    2 1   
     2    1   11 1   
     3    1   12 1   
     4    1   24 1   
     5    2    3 1   
     6    2    4 1   
     7    2   13 1   
     8    3   14 1   
     9    3   15 1   
    10    3   16 1   
    11    4    5 1   
    12    4   17 1   
    13    4   18 1   
    14    5    6 ar  
    15    5    7 ar  
    16    6    8 ar  
    17    6   19 1   
    18    7    9 ar  
    19    7   20 1   
    20    8   10 ar  
    21    8   21 1   
    22    9   10 ar  
    23    9   22 1   
    24   10   23 1   
@<TRIPOS>SUBSTRUCTURE
     1 1WE         1 TEMP              0 ****  ****    0 ROOT
