@<TRIPOS>MOLECULE
1WE
   23    23     1     0     0
SMALL
bcc


@<TRIPOS>ATOM
      1 N           2.0790    1.3910   -0.6520 n3        1 1WE     -0.899800
      2 CA          2.0820   -0.0290   -0.3490 c3        1 1WE      0.163500
      3 C           3.4590   -0.6050   -0.0060 c3        1 1WE     -0.136100
      4 CB          1.1150   -0.3820    0.7960 c3        1 1WE     -0.030100
      5 CG         -0.3110   -0.2160    0.4070 ca        1 1WE     -0.072300
      6 CD1        -0.9240    1.0420    0.4680 ca        1 1WE     -0.118000
      7 CD2        -1.0600   -1.3220   -0.0120 ca        1 1WE     -0.118000
      8 CE1        -2.2640    1.1890    0.1150 ca        1 1WE     -0.132000
      9 CE2        -2.4010   -1.1720   -0.3640 ca        1 1WE     -0.132000
     10 CZ         -3.0050    0.0830   -0.3000 ca        1 1WE     -0.132000
     11 H1          2.3240    1.9260    0.1590 hn        1 1WE      0.344300
     12 H2          2.7380    1.5870   -1.3800 hn        1 1WE      0.344300
     13 H4          1.7130   -0.5500   -1.2840 h1        1 1WE      0.064700
     14 H5          4.1960   -0.3770   -0.8130 hc        1 1WE      0.037033
     15 H6          3.8390   -0.1800    0.9540 hc        1 1WE      0.037033
     16 H7          3.3900   -1.7140    0.1010 hc        1 1WE      0.037033
     17 H8          1.3030   -1.4500    1.0870 hc        1 1WE      0.047200
     18 H9          1.3400    0.2530    1.6940 hc        1 1WE      0.047200
     19 H10        -0.3370    1.9180    0.7830 ha        1 1WE      0.130500
     20 H11        -0.5890   -2.3140   -0.0640 ha        1 1WE      0.130500
     21 H12        -2.7360    2.1810    0.1630 ha        1 1WE      0.128500
     22 H13        -2.9820   -2.0460   -0.6920 ha        1 1WE      0.128500
     23 H14        -4.0620    0.2000   -0.5780 ha        1 1WE      0.128000
@<TRIPOS>BOND
     1    1    2 1   
     2    1   11 1   
     3    1   12 1   
     4    2    3 1   
     5    2    4 1   
     6    2   13 1   
     7    3   14 1   
     8    3   15 1   
     9    3   16 1   
    10    4    5 1   
    11    4   17 1   
    12    4   18 1   
    13    5    6 ar  
    14    5    7 ar  
    15    6    8 ar  
    16    6   19 1   
    17    7    9 ar  
    18    7   20 1   
    19    8   10 ar  
    20    8   21 1   
    21    9   10 ar  
    22    9   22 1   
    23   10   23 1   
@<TRIPOS>SUBSTRUCTURE
     1 1WE         1 TEMP              0 ****  ****    0 ROOT
