@<TRIPOS>MOLECULE
1WF
   28    28     1     0     0
SMALL
bcc


@<TRIPOS>ATOM
      1 C          -0.0390    0.1450    0.0670 c3        1 1WF     -0.133100
      2 OH          7.7160    1.1410   -0.8870 oh        1 1WF     -0.473100
      3 CZ          6.3490    1.1270   -0.8990 ca        1 1WF      0.163100
      4 CE1         5.7100    1.8950    0.0950 ca        1 1WF     -0.178000
      5 CD1         4.3240    1.9150    0.1450 ca        1 1WF     -0.092000
      6 CE2         5.5960    0.3930   -1.8290 ca        1 1WF     -0.178000
      7 CD2         4.2070    0.4270   -1.7610 ca        1 1WF     -0.092000
      8 CG          3.5590    1.1750   -0.7710 ca        1 1WF     -0.206300
      9 CB          2.0760    1.2310   -0.7230 c3        1 1WF     -0.049100
     10 CA          1.4720    0.0080   -0.0130 c3        1 1WF      0.126500
     11 N           2.0930   -0.1690    1.3560 ny        1 1WF     -0.764000
     12 C10         1.9570   -1.5440    1.8770 c3        1 1WF      0.080100
     13 H1         -0.4380    0.2380   -0.9750 hc        1 1WF      0.077700
     14 H2         -0.3400    1.0590    0.6350 hc        1 1WF      0.077700
     15 H3         -0.5110   -0.7510    0.5390 hc        1 1WF      0.077700
     16 H4          8.0400    0.6430   -1.6550 ho        1 1WF      0.439000
     17 H7          6.1000   -0.1900   -2.6150 ha        1 1WF      0.165000
     18 H8          3.6150   -0.1310   -2.5040 ha        1 1WF      0.138000
     19 H9          1.7310    2.1740   -0.2190 hc        1 1WF      0.089200
     20 H10         1.6550    1.2410   -1.7670 hc        1 1WF      0.089200
     21 H11         1.7420   -0.9220   -0.6010 hx        1 1WF      0.106700
     22 H12         3.0940    0.0770    1.2840 hn        1 1WF      0.456800
     23 H14         2.4050   -1.5950    2.9060 hx        1 1WF      0.106700
     24 H15         2.4960   -2.2600    1.2000 hx        1 1WF      0.106700
     25 H16         0.8710   -1.8250    1.9260 hx        1 1WF      0.106700
     26 H5          6.3200    2.4810    0.8000 ha        1 1WF      0.165000
     27 HN3         1.6480    0.4900    2.0030 hn        1 1WF      0.456800
     28 H6          3.8230    2.5530    0.8910 ha        1 1WF      0.138000
@<TRIPOS>BOND
     1    1   10 1   
     2    1   13 1   
     3    1   14 1   
     4    1   15 1   
     5    2    3 1   
     6    2   16 1   
     7    3    4 ar  
     8    3    6 ar  
     9    4    5 ar  
    10    4   26 1   
    11    5    8 ar  
    12    5   28 1   
    13    6    7 ar  
    14    6   17 1   
    15    7    8 ar  
    16    7   18 1   
    17    8    9 1   
    18    9   10 1   
    19    9   19 1   
    20    9   20 1   
    21   10   11 1   
    22   10   21 1   
    23   11   12 1   
    24   11   22 1   
    25   11   27 1   
    26   12   23 1   
    27   12   24 1   
    28   12   25 1   
@<TRIPOS>SUBSTRUCTURE
     1 1WF         1 TEMP              0 ****  ****    0 ROOT
