@<TRIPOS>MOLECULE
1WF
   27    24     1     0     0
SMALL
bcc


@<TRIPOS>ATOM
      1 C           1.7430   -2.4390    0.0910 c3        1 1WF     -0.208000
      2 OH         -0.9010    4.3910    1.6250 oh        1 1WF     -0.252000
      3 CZ         -0.4610    3.1680    0.9740 c2        1 1WF      0.075000
      4 CE1        -1.2030    2.6320   -0.0780 c2        1 1WF     -0.154000
      5 CD1        -0.7950    1.4780   -0.6890 c1        1 1WF     -0.098000
      6 CE2         0.7000    2.5260    1.4050 c1        1 1WF     -0.209000
      7 CD2         1.1130    1.3550    0.7830 c1        1 1WF     -0.092000
      8 CG          0.3710    0.8290   -0.2610 c1        1 1WF     -0.104000
      9 CB          0.8700   -0.4210   -1.0050 c2        1 1WF     -0.155000
     10 CA          0.4820   -1.6200   -0.2500 c3        1 1WF     -0.018000
     11 N          -0.4240   -2.4170   -1.0500 n3        1 1WF     -0.305000
     12 C10        -1.7130   -2.3980   -0.4720 c3        1 1WF     -0.124000
     13 H1          1.5480   -3.0450    0.8020 hc        1 1WF      0.077667
     14 H2          2.0150   -2.9200   -0.6630 hc        1 1WF      0.077667
     15 H3          2.4480   -1.8440    0.3620 hc        1 1WF      0.077667
     16 H4         -1.3870    4.1840    2.3560 ho        1 1WF      0.218000
     17 H5         -2.0590    3.1060   -0.4000 ha        1 1WF      0.150000
     18 H6         -1.2950    1.1230   -1.3930 ha        1 1WF      0.133000
     19 H7          1.1950    2.8820    2.1040 ha        1 1WF      0.133000
     20 H8          1.9380    0.8940    1.0840 ha        1 1WF      0.134000
     21 H9          0.4760   -0.4510   -1.8730 ha        1 1WF      0.090500
     22 H10         1.8520   -0.3850   -1.0900 ha        1 1WF      0.090500
     23 H11         0.0210   -1.3420    0.6020 h1        1 1WF      0.096000
     24 H12        -0.4650   -2.0840   -1.8610 hn        1 1WF      0.153000
     25 H14        -2.4320   -2.5230   -1.2180 h1        1 1WF      0.071000
     26 H15        -1.8520   -1.5780   -0.0390 h1        1 1WF      0.071000
     27 H16        -1.7850   -3.1020    0.1530 h1        1 1WF      0.071000
@<TRIPOS>BOND
     1    1   10 1   
     2    1   13 1   
     3    1   14 1   
     4    1   15 1   
     5    2    3 1   
     6    2   16 1   
     7    3    4 1   
     8    3    6 1   
     9    4    5 1   
    10    4   17 1   
    11    5   18 1   
    12    6   19 1   
    13    7    8 1   
    14    7   20 1   
    15    9   10 1   
    16    9   21 1   
    17    9   22 1   
    18   10   11 1   
    19   10   23 1   
    20   11   12 1   
    21   11   24 1   
    22   12   25 1   
    23   12   26 1   
    24   12   27 1   
@<TRIPOS>SUBSTRUCTURE
     1 1WF         1 TEMP              0 ****  ****    0 ROOT
