@<TRIPOS>MOLECULE
1WF
   27    27     1     0     0
SMALL
bcc


@<TRIPOS>ATOM
      1 C           3.5830    0.9940    0.1970 c3        1 1WF     -0.131100
      2 OH         -4.1320   -0.3350    0.5140 oh        1 1WF     -0.500100
      3 CZ         -2.8200   -0.0480    0.2070 ca        1 1WF      0.120100
      4 CE1        -2.0600   -0.8320   -0.6720 ca        1 1WF     -0.187000
      5 CD1        -0.7400   -0.4750   -0.9340 ca        1 1WF     -0.083000
      6 CE2        -2.2660    1.0860    0.8210 ca        1 1WF     -0.187000
      7 CD2        -0.9450    1.4240    0.5460 ca        1 1WF     -0.083000
      8 CG         -0.1710    0.6510   -0.3310 ca        1 1WF     -0.108300
      9 CB          1.2350    1.0360   -0.6230 c3        1 1WF     -0.024100
     10 CA          2.2510    0.2400    0.2220 c3        1 1WF      0.172500
     11 N           2.3260   -1.1490   -0.2140 n3        1 1WF     -0.820200
     12 C10         2.9710   -2.0360    0.7150 c3        1 1WF      0.153100
     13 H1          4.3570    0.4520    0.7910 hc        1 1WF      0.037700
     14 H2          3.9540    1.1100   -0.8500 hc        1 1WF      0.037700
     15 H3          3.4490    2.0100    0.6390 hc        1 1WF      0.037700
     16 H4         -4.3790   -1.1390    0.0340 ho        1 1WF      0.417000
     17 H6         -0.1330   -1.0930   -1.6150 ha        1 1WF      0.135500
     18 H7         -2.8780    1.6870    1.5070 ha        1 1WF      0.139000
     19 H8         -0.5050    2.3120    1.0250 ha        1 1WF      0.135500
     20 H9          1.4500    0.8920   -1.7150 hc        1 1WF      0.046700
     21 H10         1.3820    2.1260   -0.3950 hc        1 1WF      0.046700
     22 H11         1.8760    0.2310    1.2890 h1        1 1WF      0.062700
     23 H12         2.7620   -1.2010   -1.1160 hn        1 1WF      0.353800
     24 H14         2.9390   -3.0750    0.2920 h1        1 1WF      0.029367
     25 H15         4.0450   -1.7760    0.9310 h1        1 1WF      0.029367
     26 H16         2.4090   -2.0270    1.6860 h1        1 1WF      0.029367
     27 H5         -2.5010   -1.7200   -1.1460 ha        1 1WF      0.139000
@<TRIPOS>BOND
     1    1   10 1   
     2    1   13 1   
     3    1   14 1   
     4    1   15 1   
     5    2    3 1   
     6    2   16 1   
     7    3    4 ar  
     8    3    6 ar  
     9    4    5 ar  
    10    4   27 1   
    11    5    8 ar  
    12    5   17 1   
    13    6    7 ar  
    14    6   18 1   
    15    7    8 ar  
    16    7   19 1   
    17    8    9 1   
    18    9   10 1   
    19    9   20 1   
    20    9   21 1   
    21   10   11 1   
    22   10   22 1   
    23   11   12 1   
    24   11   23 1   
    25   12   24 1   
    26   12   25 1   
    27   12   26 1   
@<TRIPOS>SUBSTRUCTURE
     1 1WF         1 TEMP              0 ****  ****    0 ROOT
