@<TRIPOS>MOLECULE
1WF
   28    28     1     0     0
SMALL
bcc


@<TRIPOS>ATOM
      1 C          -0.0390    0.1440    0.0790 c3        1 1WF     -0.133100
      2 OH          7.7130    1.1410   -0.9060 oh        1 1WF     -0.473100
      3 CZ          6.3460    1.1260   -0.9120 ca        1 1WF      0.163100
      4 CE1         5.7100    1.8960    0.0830 ca        1 1WF     -0.178000
      5 CD1         4.3240    1.9150    0.1390 ca        1 1WF     -0.092000
      6 CE2         5.5890    0.3910   -1.8390 ca        1 1WF     -0.178000
      7 CD2         4.2000    0.4250   -1.7650 ca        1 1WF     -0.092000
      8 CG          3.5570    1.1740   -0.7730 ca        1 1WF     -0.206300
      9 CB          2.0730    1.2300   -0.7200 c3        1 1WF     -0.049100
     10 CA          1.4730    0.0070   -0.0070 c3        1 1WF      0.126500
     11 N           2.0990   -0.1670    1.3600 n4        1 1WF     -0.764000
     12 C10         1.9650   -1.5410    1.8850 c3        1 1WF      0.080100
     13 H1         -0.3380    1.0590    0.6470 hc        1 1WF      0.077700
     14 H2         -0.4410    0.2350   -0.9620 hc        1 1WF      0.077700
     15 H3         -0.5090   -0.7520    0.5540 hc        1 1WF      0.077700
     16 H4          8.0340    0.6420   -1.6740 ho        1 1WF      0.439000
     17 H7          6.0900   -0.1920   -2.6260 ha        1 1WF      0.165000
     18 H8          3.6050   -0.1340   -2.5050 ha        1 1WF      0.138000
     19 H9          1.6490    1.2380   -1.7620 hc        1 1WF      0.089200
     20 H10         1.7300    2.1730   -0.2160 hc        1 1WF      0.089200
     21 H11         1.7410   -0.9230   -0.5940 hx        1 1WF      0.106700
     22 H12         1.6560    0.4930    2.0090 hn        1 1WF      0.456800
     23 H14         0.8790   -1.8230    1.9380 hx        1 1WF      0.106700
     24 H15         2.4170   -1.5910    2.9120 hx        1 1WF      0.106700
     25 H16         2.5020   -2.2580    1.2060 hx        1 1WF      0.106700
     26 H5          6.3230    2.4820    0.7850 ha        1 1WF      0.165000
     27 HN3         3.0990    0.0790    1.2850 hn        1 1WF      0.456800
     28 H6          3.8260    2.5540    0.8860 ha        1 1WF      0.138000
@<TRIPOS>BOND
     1    1   10 1   
     2    1   13 1   
     3    1   14 1   
     4    1   15 1   
     5    2    3 1   
     6    2   16 1   
     7    3    4 ar  
     8    3    6 ar  
     9    4    5 ar  
    10    4   26 1   
    11    5    8 ar  
    12    5   28 1   
    13    6    7 ar  
    14    6   17 1   
    15    7    8 ar  
    16    7   18 1   
    17    8    9 1   
    18    9   10 1   
    19    9   19 1   
    20    9   20 1   
    21   10   11 1   
    22   10   21 1   
    23   11   12 1   
    24   11   22 1   
    25   11   27 1   
    26   12   23 1   
    27   12   24 1   
    28   12   25 1   
@<TRIPOS>SUBSTRUCTURE
     1 1WF         1 TEMP              0 ****  ****    0 ROOT
