@<TRIPOS>MOLECULE
1WF
   28    28     1     0     0
SMALL
bcc


@<TRIPOS>ATOM
      1 C          -0.0390    0.1410    0.0640 c3        1 1WF     -0.133100
      2 OH          7.7160    1.1380   -0.8880 oh        1 1WF     -0.473100
      3 CZ          6.3500    1.1210   -0.9020 ca        1 1WF      0.163100
      4 CE1         5.7070    1.9030    0.0790 ca        1 1WF     -0.178000
      5 CD1         4.3200    1.9200    0.1260 ca        1 1WF     -0.092000
      6 CE2         5.6000    0.3720   -1.8230 ca        1 1WF     -0.178000
      7 CD2         4.2110    0.4040   -1.7580 ca        1 1WF     -0.092000
      8 CG          3.5590    1.1650   -0.7810 ca        1 1WF     -0.206300
      9 CB          2.0760    1.2200   -0.7370 c3        1 1WF     -0.049100
     10 CA          1.4730    0.0050   -0.0110 c3        1 1WF      0.126500
     11 N           2.0910   -0.1500    1.3610 n4        1 1WF     -0.764000
     12 C10         1.9570   -1.5180    1.9020 c3        1 1WF      0.080100
     13 H1         -0.5110   -0.7490    0.5470 hc        1 1WF      0.077700
     14 H2         -0.4360    0.2180   -0.9810 hc        1 1WF      0.077700
     15 H3         -0.3430    1.0620    0.6180 hc        1 1WF      0.077700
     16 H4          8.0430    0.6290   -1.6470 ho        1 1WF      0.439000
     17 H7          6.1060   -0.2210   -2.6000 ha        1 1WF      0.165000
     18 H8          3.6210   -0.1650   -2.4940 ha        1 1WF      0.138000
     19 H9          1.6580    1.2140   -1.7820 hc        1 1WF      0.089200
     20 H10         1.7280    2.1680   -0.2470 hc        1 1WF      0.089200
     21 H11         1.7460   -0.9320   -0.5850 hx        1 1WF      0.106700
     22 H12         3.0920    0.0960    1.2880 hn        1 1WF      0.456800
     23 H14         0.8710   -1.8020    1.9520 hx        1 1WF      0.106700
     24 H15         2.4990   -2.2430    1.2360 hx        1 1WF      0.106700
     25 H16         2.4030   -1.5540    2.9330 hx        1 1WF      0.106700
     26 H5          6.3140    2.4990    0.7770 ha        1 1WF      0.165000
     27 HN3         1.6430    0.5170    1.9990 hn        1 1WF      0.456800
     28 H6          3.8170    2.5680    0.8610 ha        1 1WF      0.138000
@<TRIPOS>BOND
     1    1   10 1   
     2    1   13 1   
     3    1   14 1   
     4    1   15 1   
     5    2    3 1   
     6    2   16 1   
     7    3    4 ar  
     8    3    6 ar  
     9    4    5 ar  
    10    4   26 1   
    11    5    8 ar  
    12    5   28 1   
    13    6    7 ar  
    14    6   17 1   
    15    7    8 ar  
    16    7   18 1   
    17    8    9 1   
    18    9   10 1   
    19    9   19 1   
    20    9   20 1   
    21   10   11 1   
    22   10   21 1   
    23   11   12 1   
    24   11   22 1   
    25   11   27 1   
    26   12   23 1   
    27   12   24 1   
    28   12   25 1   
@<TRIPOS>SUBSTRUCTURE
     1 1WF         1 TEMP              0 ****  ****    0 ROOT
