@<TRIPOS>MOLECULE
1WG
   14    11     1     0     0
SMALL
bcc


@<TRIPOS>ATOM
      1 O01        -2.7270   -0.1210   -0.0000 o         1 1WG     -0.272000
      2 C02        -1.5120   -0.1210   -0.0000 c1        1 1WG      0.271000
      3 C03        -0.7560   -0.1210    1.3100 c1        1 1WG      0.058000
      4 O04        -1.4590   -0.1440    2.5280 o         1 1WG     -0.227000
      5 C05         0.7570   -0.1090    1.3100 c1        1 1WG     -0.262000
      6 C06         1.5140   -0.1010   -0.0000 c1        1 1WG      0.271000
      7 O07         2.7280   -0.0900   -0.0000 o         1 1WG     -0.272000
      8 C08         0.7570   -0.1100   -1.3100 c2        1 1WG      0.058000
      9 O09         1.4610   -0.1210   -2.5290 oh        1 1WG     -0.227000
     10 C10        -0.7560   -0.1150   -1.3100 c2        1 1WG     -0.262000
     11 H1         -1.5070    0.6790    2.8580 ho        1 1WG      0.251000
     12 H2          1.2450   -0.1090    2.1550 ha        1 1WG      0.181000
     13 H3          1.4980    0.7030   -2.8560 ho        1 1WG      0.251000
     14 H4         -1.2440   -0.1210   -2.1560 ha        1 1WG      0.181000
@<TRIPOS>BOND
     1    1    2 1   
     2    2   10 1   
     3    3    5 1   
     4    4   11 1   
     5    5   12 1   
     6    6    7 1   
     7    6    8 1   
     8    8    9 1   
     9    8   10 1   
    10    9   13 1   
    11   10   14 1   
@<TRIPOS>SUBSTRUCTURE
     1 1WG         1 TEMP              0 ****  ****    0 ROOT
