@<TRIPOS>MOLECULE
1WG
   14    14     1     0     0
SMALL
bcc


@<TRIPOS>ATOM
      1 O01        -0.0540    0.1260    0.2510 o         1 1WG     -0.511100
      2 C02         1.1740    0.1260    0.0980 c         1 1WG      0.548500
      3 C03         2.0660    0.1270    1.3020 cc        1 1WG      0.082900
      4 O04         1.4800    0.1280    2.5340 oh        1 1WG     -0.472100
      5 C05         3.4170    0.1270    1.2130 cd        1 1WG     -0.281200
      6 C06         4.0820    0.1260   -0.0830 c         1 1WG      0.548500
      7 O07         5.3100    0.1260   -0.2360 o         1 1WG     -0.511100
      8 C08         3.1900    0.1260   -1.2870 cc        1 1WG      0.082900
      9 O09         3.7760    0.1250   -2.5190 oh        1 1WG     -0.472100
     10 C10         1.8390    0.1260   -1.1980 cd        1 1WG     -0.281200
     11 H1          0.5120    0.1280    2.4120 ho        1 1WG      0.452000
     12 H2          4.0580    0.1280    2.1090 ha        1 1WG      0.181000
     13 H3          4.7440    0.1250   -2.3970 ho        1 1WG      0.452000
     14 H4          1.1990    0.1250   -2.0940 ha        1 1WG      0.181000
@<TRIPOS>BOND
     1    1    2 2   
     2    2    3 1   
     3    2   10 1   
     4    3    4 1   
     5    3    5 2   
     6    4   11 1   
     7    5    6 1   
     8    5   12 1   
     9    6    7 2   
    10    6    8 1   
    11    8    9 1   
    12    8   10 2   
    13    9   13 1   
    14   10   14 1   
@<TRIPOS>SUBSTRUCTURE
     1 1WG         1 TEMP              0 ****  ****    0 ROOT
