@<TRIPOS>MOLECULE
1WG
   14    14     1     0     0
SMALL
bcc


@<TRIPOS>ATOM
      1 O01        -2.1520   -1.6430    0.0020 o         1 1WG     -0.470100
      2 C02        -1.1640   -0.9080    0.0010 c         1 1WG      0.583500
      3 C03        -1.2810    0.5870    0.0010 cc        1 1WG      0.094900
      4 O04        -2.5760    1.0130    0.0010 oh        1 1WG     -0.455100
      5 C05        -0.2090    1.4110    0.0000 cd        1 1WG     -0.347200
      6 C06         1.1640    0.9080    0.0000 c         1 1WG      0.583500
      7 O07         2.1520    1.6430   -0.0010 o         1 1WG     -0.470100
      8 C08         1.2810   -0.5870    0.0010 cc        1 1WG      0.094900
      9 O09         2.5760   -1.0130    0.0010 oh        1 1WG     -0.455100
     10 C10         0.2090   -1.4110    0.0010 cd        1 1WG     -0.347200
     11 H1         -2.5870    1.9840    0.0000 ho        1 1WG      0.430000
     12 H2         -0.3160    2.5070   -0.0000 ha        1 1WG      0.164000
     13 H3          2.5870   -1.9840    0.0010 ho        1 1WG      0.430000
     14 H4          0.3160   -2.5070    0.0020 ha        1 1WG      0.164000
@<TRIPOS>BOND
     1    1    2 2   
     2    2    3 1   
     3    2   10 1   
     4    3    4 1   
     5    3    5 2   
     6    4   11 1   
     7    5    6 1   
     8    5   12 1   
     9    6    7 2   
    10    6    8 1   
    11    8    9 1   
    12    8   10 2   
    13    9   13 1   
    14   10   14 1   
@<TRIPOS>SUBSTRUCTURE
     1 1WG         1 TEMP              0 ****  ****    0 ROOT
