@<TRIPOS>MOLECULE
1WH
   45    47     1     0     0
SMALL
bcc


@<TRIPOS>ATOM
      1 C          -0.1400    0.1270    0.3730 c         1 1WH      0.714100
      2 C7A         1.3510    0.0240    0.2550 ca        1 1WH     -0.249900
      3 N           4.9040   -1.2450    2.5180 n4        1 1WH     -0.847600
      4 C1          4.8320   -0.0240    1.6490 c3        1 1WH      0.181100
      5 C2          2.3730    0.0340    1.1850 cp        1 1WH      0.094000
      6 C3          3.6990   -0.1090    0.6900 ca        1 1WH     -0.326600
      7 C4          5.3180   -0.4030   -1.2270 c3        1 1WH     -0.172400
      8 C5          3.9250   -0.2530   -0.7000 ca        1 1WH      0.492600
      9 N1          2.9130   -0.2490   -1.6160 nb        1 1WH     -0.639000
     10 C3A         1.6760   -0.1110   -1.1370 ca        1 1WH      0.469600
     11 C6          0.3790   -0.0690   -1.9340 c3        1 1WH      0.017700
     12 N2         -0.6610    0.1800   -0.9380 n         1 1WH     -0.446800
     13 C7         -2.0360   -0.1280   -1.2180 c3        1 1WH      0.087000
     14 C8         -2.3190   -1.4030   -2.0220 c3        1 1WH      0.097400
     15 O1         -1.6570   -2.4940   -1.3900 os        1 1WH     -0.437600
     16 C10        -2.1230   -3.7550   -1.8480 c3        1 1WH      0.114700
     17 C14         2.1180    0.1650    2.6240 cp        1 1WH     -0.110000
     18 C15         2.2140    1.4040    3.2810 ca        1 1WH      0.037400
     19 CL          2.6840    2.8000    2.4420 cl        1 1WH     -0.048400
     20 C16         1.9110    1.5120    4.6430 ca        1 1WH     -0.113000
     21 C17         1.5100    0.3770    5.3540 ca        1 1WH      0.040400
     22 CL1         1.1440    0.5030    6.9990 cl        1 1WH     -0.029400
     23 C18         1.3990   -0.8620    4.7070 ca        1 1WH     -0.120000
     24 C19         1.6980   -0.9590    3.3530 ca        1 1WH     -0.130000
     25 O2         -0.8020    0.2020    1.4130 o         1 1WH     -0.572500
     26 H1          5.0570   -2.0780    1.9420 hn        1 1WH      0.459133
     27 H2          5.6660   -1.1550    3.1930 hn        1 1WH      0.459133
     28 H4          4.6890    0.8660    2.3350 hx        1 1WH      0.116700
     29 H5          5.8260    0.0820    1.1260 hx        1 1WH      0.116700
     30 H6          5.8520   -1.2150   -0.6750 hc        1 1WH      0.069700
     31 H7          5.3270   -0.6630   -2.3180 hc        1 1WH      0.069700
     32 H8          5.8720    0.5620   -1.1010 hc        1 1WH      0.069700
     33 H9          0.2200   -1.0480   -2.4700 h1        1 1WH      0.100700
     34 H10         0.3950    0.7710   -2.6830 h1        1 1WH      0.100700
     35 H11        -2.4610    0.7340   -1.8120 h1        1 1WH      0.081700
     36 H12        -2.5820   -0.1910   -0.2320 h1        1 1WH      0.081700
     37 H13        -1.9490   -1.3150   -3.0790 h1        1 1WH      0.044200
     38 H14        -3.4300   -1.5700   -2.0370 h1        1 1WH      0.044200
     39 H15        -1.9500   -3.8600   -2.9480 h1        1 1WH      0.041033
     40 H16        -1.5110   -4.4990   -1.2800 h1        1 1WH      0.041033
     41 H17        -3.2090   -3.8810   -1.6160 h1        1 1WH      0.041033
     42 H18         1.9680    2.4930    5.1460 ha        1 1WH      0.183000
     43 H19         1.0470   -1.7480    5.2610 ha        1 1WH      0.171000
     44 H20         1.5410   -1.9170    2.8310 ha        1 1WH      0.152000
     45 HN3         4.0110   -1.3550    3.0230 hn        1 1WH      0.459133
@<TRIPOS>BOND
     1    1    2 1   
     2    1   12 1   
     3    1   25 2   
     4    2    5 ar  
     5    2   10 ar  
     6    3    4 1   
     7    3   26 1   
     8    3   27 1   
     9    3   45 1   
    10    4    6 1   
    11    4   28 1   
    12    4   29 1   
    13    5    6 ar  
    14    5   17 1   
    15    6    8 ar  
    16    7    8 1   
    17    7   30 1   
    18    7   31 1   
    19    7   32 1   
    20    8    9 ar  
    21    9   10 ar  
    22   10   11 1   
    23   11   12 1   
    24   11   33 1   
    25   11   34 1   
    26   12   13 1   
    27   13   14 1   
    28   13   35 1   
    29   13   36 1   
    30   14   15 1   
    31   14   37 1   
    32   14   38 1   
    33   15   16 1   
    34   16   39 1   
    35   16   40 1   
    36   16   41 1   
    37   17   18 ar  
    38   17   24 ar  
    39   18   19 1   
    40   18   20 ar  
    41   20   21 ar  
    42   20   42 1   
    43   21   22 1   
    44   21   23 ar  
    45   23   24 ar  
    46   23   43 1   
    47   24   44 1   
@<TRIPOS>SUBSTRUCTURE
     1 1WH         1 TEMP              0 ****  ****    0 ROOT
