@<TRIPOS>MOLECULE
1WH
   45    47     1     0     0
SMALL
bcc


@<TRIPOS>ATOM
      1 C          -0.1420    0.1210    0.3730 c         1 1WH      0.714100
      2 C7A         1.3500    0.0240    0.2570 ca        1 1WH     -0.249900
      3 N           4.9040   -1.2370    2.5220 nz        1 1WH     -0.847600
      4 C1          4.8280   -0.0130    1.6550 c3        1 1WH      0.181100
      5 C2          2.3700    0.0360    1.1880 cp        1 1WH      0.094000
      6 C3          3.6970   -0.1010    0.6950 ca        1 1WH     -0.326600
      7 C4          5.3200   -0.3850   -1.2210 c3        1 1WH     -0.172400
      8 C5          3.9260   -0.2410   -0.6960 ca        1 1WH      0.492600
      9 N1          2.9140   -0.2390   -1.6130 nb        1 1WH     -0.639000
     10 C3A         1.6760   -0.1070   -1.1350 ca        1 1WH      0.469600
     11 C6          0.3810   -0.0680   -1.9340 c3        1 1WH      0.017700
     12 N2         -0.6610    0.1750   -0.9380 n         1 1WH     -0.446800
     13 C7         -2.0350   -0.1370   -1.2220 c3        1 1WH      0.087000
     14 C8         -2.3120   -1.4110   -2.0300 c3        1 1WH      0.097400
     15 O1         -1.6480   -2.5010   -1.4010 os        1 1WH     -0.437600
     16 C10        -2.1080   -3.7620   -1.8650 c3        1 1WH      0.114700
     17 C14         2.1120    0.1640    2.6280 cp        1 1WH     -0.110000
     18 C15         2.2030    1.4010    3.2870 ca        1 1WH      0.037400
     19 Cl          2.6700    2.8000    2.4500 cl        1 1WH     -0.048400
     20 C16         1.8980    1.5050    4.6490 ca        1 1WH     -0.113000
     21 C17         1.5000    0.3670    5.3570 ca        1 1WH      0.040400
     22 Cl1         1.1320    0.4890    7.0010 cl        1 1WH     -0.029400
     23 C18         1.3950   -0.8700    4.7070 ca        1 1WH     -0.120000
     24 C19         1.6960   -0.9640    3.3530 ca        1 1WH     -0.130000
     25 O2         -0.8060    0.1910    1.4120 o         1 1WH     -0.572500
     26 H1          5.6650   -1.1450    3.1980 hn        1 1WH      0.459133
     27 H2          5.0610   -2.0670    1.9440 hn        1 1WH      0.459133
     28 H4          4.6810    0.8740    2.3430 hx        1 1WH      0.116700
     29 H5          5.8230    0.0970    1.1340 hx        1 1WH      0.116700
     30 H6          5.8700    0.5820   -1.0930 hc        1 1WH      0.069700
     31 H7          5.8560   -1.1960   -0.6700 hc        1 1WH      0.069700
     32 H8          5.3320   -0.6420   -2.3120 hc        1 1WH      0.069700
     33 H9          0.3940    0.7730   -2.6810 h1        1 1WH      0.100700
     34 H10         0.2260   -1.0470   -2.4720 h1        1 1WH      0.100700
     35 H11        -2.4620    0.7250   -1.8120 h1        1 1WH      0.081700
     36 H12        -2.5820   -0.2060   -0.2360 h1        1 1WH      0.081700
     37 H13        -1.9410   -1.3180   -3.0860 h1        1 1WH      0.044200
     38 H14        -3.4220   -1.5810   -2.0470 h1        1 1WH      0.044200
     39 H15        -3.1940   -3.8930   -1.6350 h1        1 1WH      0.041033
     40 H16        -1.9330   -3.8630   -2.9640 h1        1 1WH      0.041033
     41 H17        -1.4950   -4.5060   -1.2980 h1        1 1WH      0.041033
     42 H18         1.9510    2.4860    5.1540 ha        1 1WH      0.183000
     43 H19         1.0450   -1.7580    5.2590 ha        1 1WH      0.171000
     44 H20         1.5420   -1.9210    2.8290 ha        1 1WH      0.152000
     45 HN3         4.0110   -1.3510    3.0250 hn        1 1WH      0.459133
@<TRIPOS>BOND
     1    1    2 1   
     2    1   12 1   
     3    1   25 2   
     4    2    5 ar  
     5    2   10 ar  
     6    3    4 1   
     7    3   26 1   
     8    3   27 1   
     9    3   45 1   
    10    4    6 1   
    11    4   28 1   
    12    4   29 1   
    13    5    6 ar  
    14    5   17 1   
    15    6    8 ar  
    16    7    8 1   
    17    7   30 1   
    18    7   31 1   
    19    7   32 1   
    20    8    9 ar  
    21    9   10 ar  
    22   10   11 1   
    23   11   12 1   
    24   11   33 1   
    25   11   34 1   
    26   12   13 1   
    27   13   14 1   
    28   13   35 1   
    29   13   36 1   
    30   14   15 1   
    31   14   37 1   
    32   14   38 1   
    33   15   16 1   
    34   16   39 1   
    35   16   40 1   
    36   16   41 1   
    37   17   18 ar  
    38   17   24 ar  
    39   18   19 1   
    40   18   20 ar  
    41   20   21 ar  
    42   20   42 1   
    43   21   22 1   
    44   21   23 ar  
    45   23   24 ar  
    46   23   43 1   
    47   24   44 1   
@<TRIPOS>SUBSTRUCTURE
     1 1WH         1 TEMP              0 ****  ****    0 ROOT
