@<TRIPOS>MOLECULE
1WH
   45    47     1     0     0
SMALL
bcc


@<TRIPOS>ATOM
      1 C          -0.1390    0.1250    0.3670 c         1 1WH      0.714100
      2 C7A         1.3530    0.0230    0.2560 ca        1 1WH     -0.249900
      3 N           4.8960   -1.2440    2.5340 n4        1 1WH     -0.847600
      4 C1          4.8270   -0.0220    1.6640 c3        1 1WH      0.181100
      5 C2          2.3710    0.0340    1.1900 cp        1 1WH      0.094000
      6 C3          3.6990   -0.1080    0.7000 ca        1 1WH     -0.326600
      7 C4          5.3260   -0.4020   -1.2100 c3        1 1WH     -0.172400
      8 C5          3.9310   -0.2520   -0.6890 ca        1 1WH      0.492600
      9 N1          2.9220   -0.2490   -1.6090 nb        1 1WH     -0.639000
     10 C3A         1.6830   -0.1120   -1.1350 ca        1 1WH      0.469600
     11 C6          0.3900   -0.0710   -1.9380 c3        1 1WH      0.017700
     12 N2         -0.6540    0.1780   -0.9460 n         1 1WH     -0.446800
     13 C7         -2.0280   -0.1300   -1.2320 c3        1 1WH      0.087000
     14 C8         -2.3080   -1.4030   -2.0400 c3        1 1WH      0.097400
     15 O1         -1.6490   -2.4950   -1.4080 os        1 1WH     -0.437600
     16 C10        -2.1110   -3.7560   -1.8720 c3        1 1WH      0.114700
     17 C14         2.1090    0.1650    2.6280 cp        1 1WH     -0.110000
     18 C15         2.2020    1.4040    3.2850 ca        1 1WH      0.037400
     19 CL          2.6750    2.8000    2.4470 cl        1 1WH     -0.048400
     20 C16         1.8930    1.5120    4.6460 ca        1 1WH     -0.113000
     21 C17         1.4900    0.3770    5.3560 ca        1 1WH      0.040400
     22 CL1         1.1170    0.5030    6.9980 cl        1 1WH     -0.029400
     23 C18         1.3830   -0.8610    4.7080 ca        1 1WH     -0.120000
     24 C19         1.6870   -0.9590    3.3550 ca        1 1WH     -0.130000
     25 O2         -0.8060    0.2000    1.4040 o         1 1WH     -0.572500
     26 H1          5.6560   -1.1530    3.2120 hn        1 1WH      0.459133
     27 H2          5.0530   -2.0760    1.9580 hn        1 1WH      0.459133
     28 H4          5.8230    0.0840    1.1450 hx        1 1WH      0.116700
     29 H5          4.6810    0.8680    2.3500 hx        1 1WH      0.116700
     30 H6          5.8580   -1.2130   -0.6550 hc        1 1WH      0.069700
     31 H7          5.8780    0.5640   -1.0820 hc        1 1WH      0.069700
     32 H8          5.3400   -0.6610   -2.3000 hc        1 1WH      0.069700
     33 H9          0.4080    0.7690   -2.6870 h1        1 1WH      0.100700
     34 H10         0.2340   -1.0500   -2.4740 h1        1 1WH      0.100700
     35 H11        -2.5780   -0.1960   -0.2480 h1        1 1WH      0.081700
     36 H12        -2.4510    0.7330   -1.8250 h1        1 1WH      0.081700
     37 H13        -3.4180   -1.5700   -2.0600 h1        1 1WH      0.044200
     38 H14        -1.9330   -1.3130   -3.0950 h1        1 1WH      0.044200
     39 H15        -3.1980   -3.8820   -1.6450 h1        1 1WH      0.041033
     40 H16        -1.9330   -3.8580   -2.9700 h1        1 1WH      0.041033
     41 H17        -1.5020   -4.5010   -1.3020 h1        1 1WH      0.041033
     42 H18         1.9480    2.4930    5.1490 ha        1 1WH      0.183000
     43 H19         1.0280   -1.7480    5.2600 ha        1 1WH      0.171000
     44 H20         1.5320   -1.9170    2.8330 ha        1 1WH      0.152000
     45 HN3         4.0010   -1.3550    3.0350 hn        1 1WH      0.459133
@<TRIPOS>BOND
     1    1    2 1   
     2    1   12 1   
     3    1   25 2   
     4    2    5 ar  
     5    2   10 ar  
     6    3    4 1   
     7    3   26 1   
     8    3   27 1   
     9    3   45 1   
    10    4    6 1   
    11    4   28 1   
    12    4   29 1   
    13    5    6 ar  
    14    5   17 1   
    15    6    8 ar  
    16    7    8 1   
    17    7   30 1   
    18    7   31 1   
    19    7   32 1   
    20    8    9 ar  
    21    9   10 ar  
    22   10   11 1   
    23   11   12 1   
    24   11   33 1   
    25   11   34 1   
    26   12   13 1   
    27   13   14 1   
    28   13   35 1   
    29   13   36 1   
    30   14   15 1   
    31   14   37 1   
    32   14   38 1   
    33   15   16 1   
    34   16   39 1   
    35   16   40 1   
    36   16   41 1   
    37   17   18 ar  
    38   17   24 ar  
    39   18   19 1   
    40   18   20 ar  
    41   20   21 ar  
    42   20   42 1   
    43   21   22 1   
    44   21   23 ar  
    45   23   24 ar  
    46   23   43 1   
    47   24   44 1   
@<TRIPOS>SUBSTRUCTURE
     1 1WH         1 TEMP              0 ****  ****    0 ROOT
