@<TRIPOS>MOLECULE
1WH
   44    39     1     0     0
SMALL
bcc


@<TRIPOS>ATOM
      1 C          -1.3170    0.4410   -0.1090 c1        1 1WH      0.353000
      2 C7A         0.1980    0.3030   -0.1030 c1        1 1WH     -0.175000
      3 N           4.3510   -0.9710    1.5640 n3        1 1WH     -0.345000
      4 C1          3.7360    0.3280    1.5560 c3        1 1WH     -0.041000
      5 C2          1.1190    0.2930    0.9300 c1        1 1WH      0.088000
      6 C3          2.4450    0.2870    0.6560 c1        1 1WH     -0.114000
      7 C4          4.1040    0.2330   -1.5930 c3        1 1WH     -0.181000
      8 C5          2.8830    0.2900   -0.6700 c1        1 1WH      0.015000
      9 N1          1.9680    0.3000   -1.6960 n1        1 1WH     -0.125000
     10 C3A         0.6340    0.3070   -1.4190 c1        1 1WH     -0.010000
     11 C6         -0.5920    0.3070   -2.3150 c2        1 1WH      0.007000
     12 N2         -1.7590    0.3780   -1.4800 n2        1 1WH     -0.334000
     13 C7         -3.1450    0.4820   -1.9490 c3        1 1WH     -0.020000
     14 C8         -3.4470   -0.6880   -2.9050 c3        1 1WH     -0.056000
     15 O1         -4.8210   -0.7400   -3.1590 os        1 1WH     -0.277000
     16 C10        -5.1790   -1.4910   -4.3180 c3        1 1WH     -0.072000
     17 C14         0.5770    0.3050    2.3900 c2        1 1WH     -0.048000
     18 C15         0.4110    1.5000    3.0500 c2        1 1WH     -0.030000
     19 CL          0.6690    3.0160    2.1950 cl        1 1WH     -0.000000
     20 C16        -0.0310    1.5120    4.3860 c1        1 1WH     -0.124000
     21 C17        -0.3000    0.3130    5.0390 c1        1 1WH     -0.044000
     22 CL1        -0.8790    0.3290    6.6340 cl        1 1WH     -0.006000
     23 C18        -0.1350   -0.8840    4.3800 c1        1 1WH     -0.125000
     24 C19         0.3060   -0.8950    3.0480 c1        1 1WH     -0.076000
     25 O2         -2.0330    0.5370    0.8740 o         1 1WH     -0.316000
     26 H1          5.1600   -0.9090    1.2740 hn        1 1WH      0.148000
     27 H2          4.3590   -1.3110    2.4540 hn        1 1WH      0.148000
     28 H4          4.3180    0.9420    1.2250 h1        1 1WH      0.082500
     29 H5          3.4860    0.5790    2.4820 h1        1 1WH      0.082500
     30 H6          3.9230    0.7620   -2.4160 hc        1 1WH      0.097333
     31 H7          4.8880    0.6070   -1.1250 hc        1 1WH      0.097333
     32 H8          4.2650   -0.5980   -1.8110 hc        1 1WH      0.097333
     33 H9         -0.5650    1.0730   -2.9060 h4        1 1WH      0.115500
     34 H10        -0.6160   -0.5390   -2.8530 h4        1 1WH      0.115500
     35 H11        -3.2680    1.3400   -2.4240 h1        1 1WH      0.117000
     36 H12        -3.7730    0.4400   -1.1560 h1        1 1WH      0.117000
     37 H13        -2.9390   -0.5500   -3.7780 h1        1 1WH      0.072500
     38 H14        -3.1590   -1.5350   -2.4880 h1        1 1WH      0.072500
     39 H15        -4.6650   -2.3170   -4.3400 h1        1 1WH      0.074333
     40 H16        -4.9830   -0.9400   -5.1620 h1        1 1WH      0.074333
     41 H17        -6.1310   -1.7000   -4.2830 h1        1 1WH      0.074333
     42 H18        -0.1460    2.3500    4.8490 ha        1 1WH      0.163000
     43 H19        -0.3360   -1.7790    4.8700 ha        1 1WH      0.153000
     44 H20         0.4170   -1.7090    2.6000 ha        1 1WH      0.153000
@<TRIPOS>BOND
     1    1    2 1   
     2    1   25 1   
     3    2    5 1   
     4    3    4 1   
     5    3   26 1   
     6    3   27 1   
     7    4    6 1   
     8    4   28 1   
     9    4   29 1   
    10    5   17 1   
    11    6    8 1   
    12    7    8 1   
    13    7   30 1   
    14    7   31 1   
    15    7   32 1   
    16    9   10 1   
    17   11   12 1   
    18   11   33 1   
    19   11   34 1   
    20   12   13 1   
    21   13   14 1   
    22   13   35 1   
    23   13   36 1   
    24   14   15 1   
    25   14   37 1   
    26   14   38 1   
    27   15   16 1   
    28   16   39 1   
    29   16   40 1   
    30   16   41 1   
    31   17   18 1   
    32   17   24 1   
    33   18   19 1   
    34   18   20 1   
    35   20   42 1   
    36   21   22 1   
    37   21   23 1   
    38   23   43 1   
    39   24   44 1   
@<TRIPOS>SUBSTRUCTURE
     1 1WH         1 TEMP              0 ****  ****    0 ROOT
