@<TRIPOS>MOLECULE
1WH
   44    46     1     0     0
SMALL
bcc


@<TRIPOS>ATOM
      1 C          -1.5080   -0.8120    0.7690 c         1 1WH      0.723100
      2 C7A        -1.0270    0.5140    0.2810 ca        1 1WH     -0.258900
      3 N           1.9840    2.6680   -2.2810 n3        1 1WH     -0.908800
      4 C1          1.6390    2.9090   -0.8970 c3        1 1WH      0.202100
      5 C2          0.2240    0.9890   -0.0870 cp        1 1WH      0.072000
      6 C3          0.3030    2.3340   -0.5210 ca        1 1WH     -0.197600
      7 C4         -0.7860    4.5310   -1.0870 c3        1 1WH     -0.158400
      8 C5         -0.8700    3.1230   -0.5880 ca        1 1WH      0.457600
      9 N1         -2.1010    2.6590   -0.2170 nb        1 1WH     -0.654000
     10 C3A        -2.1520    1.3940    0.2010 ca        1 1WH      0.417600
     11 C6         -3.3880    0.6370    0.6660 c3        1 1WH      0.026700
     12 N2         -2.8860   -0.6740    1.0710 n         1 1WH     -0.466800
     13 C7         -3.7640   -1.8000    1.1740 c3        1 1WH      0.097000
     14 C8         -4.7080   -2.0720   -0.0040 c3        1 1WH      0.095400
     15 O1         -3.9110   -2.3430   -1.1510 os        1 1WH     -0.415600
     16 C10        -4.6850   -2.7120   -2.2790 c3        1 1WH      0.114700
     17 C14         1.4180    0.1380   -0.0550 cp        1 1WH     -0.044000
     18 C15         2.2510    0.0700    1.0730 ca        1 1WH      0.047400
     19 CL          1.9160    0.9920    2.4610 cl        1 1WH     -0.074400
     20 C16         3.3780   -0.7590    1.0810 ca        1 1WH     -0.122000
     21 C17         3.6730   -1.5230   -0.0500 ca        1 1WH      0.031400
     22 CL1         5.0410   -2.5290   -0.0480 cl        1 1WH     -0.082400
     23 C18         2.8520   -1.4680   -1.1820 ca        1 1WH     -0.124000
     24 C19         1.7330   -0.6410   -1.1780 ca        1 1WH     -0.095000
     25 O2         -0.8580   -1.8480    0.9450 o         1 1WH     -0.591500
     26 H1          2.9270    2.9590   -2.4520 hn        1 1WH      0.351800
     27 H2          1.8960    1.6950   -2.5050 hn        1 1WH      0.351800
     28 H4          2.4070    2.4870   -0.1770 h1        1 1WH      0.041700
     29 H5          1.6340    4.0260   -0.7410 h1        1 1WH      0.041700
     30 H6         -0.2210    4.5510   -2.0510 hc        1 1WH      0.063033
     31 H7         -1.7960    4.9790   -1.2560 hc        1 1WH      0.063033
     32 H8         -0.2460    5.1590   -0.3340 hc        1 1WH      0.063033
     33 H9         -3.8650    1.1450    1.5480 h1        1 1WH      0.075200
     34 H10        -4.1380    0.5620   -0.1690 h1        1 1WH      0.075200
     35 H11        -3.1230   -2.7160    1.3370 h1        1 1WH      0.072200
     36 H12        -4.4170   -1.6430    2.0810 h1        1 1WH      0.072200
     37 H13        -5.3390   -2.9680    0.2440 h1        1 1WH      0.031700
     38 H14        -5.3830   -1.2000   -0.2120 h1        1 1WH      0.031700
     39 H15        -3.9320   -2.8910   -3.0870 h1        1 1WH      0.034033
     40 H16        -5.2660   -3.6450   -2.0720 h1        1 1WH      0.034033
     41 H17        -5.3820   -1.8870   -2.5670 h1        1 1WH      0.034033
     42 H18         4.0200   -0.8120    1.9740 ha        1 1WH      0.164000
     43 H19         3.0820   -2.0820   -2.0670 ha        1 1WH      0.154000
     44 H20         1.0760   -0.6080   -2.0610 ha        1 1WH      0.150000
@<TRIPOS>BOND
     1    1    2 1   
     2    1   12 1   
     3    1   25 2   
     4    2    5 ar  
     5    2   10 ar  
     6    3    4 1   
     7    3   26 1   
     8    3   27 1   
     9    4    6 1   
    10    4   28 1   
    11    4   29 1   
    12    5    6 ar  
    13    5   17 1   
    14    6    8 ar  
    15    7    8 1   
    16    7   30 1   
    17    7   31 1   
    18    7   32 1   
    19    8    9 ar  
    20    9   10 ar  
    21   10   11 1   
    22   11   12 1   
    23   11   33 1   
    24   11   34 1   
    25   12   13 1   
    26   13   14 1   
    27   13   35 1   
    28   13   36 1   
    29   14   15 1   
    30   14   37 1   
    31   14   38 1   
    32   15   16 1   
    33   16   39 1   
    34   16   40 1   
    35   16   41 1   
    36   17   18 ar  
    37   17   24 ar  
    38   18   19 1   
    39   18   20 ar  
    40   20   21 ar  
    41   20   42 1   
    42   21   22 1   
    43   21   23 ar  
    44   23   24 ar  
    45   23   43 1   
    46   24   44 1   
@<TRIPOS>SUBSTRUCTURE
     1 1WH         1 TEMP              0 ****  ****    0 ROOT
