@<TRIPOS>MOLECULE
1WJ
   54    57     1     0     0
SMALL
bcc


@<TRIPOS>ATOM
      1 C1          0.0930    0.4670    0.5850 ca        1 1WJ     -0.165600
      2 C2          1.4100    0.2890    0.1680 ca        1 1WJ     -0.051000
      3 C3          2.3380   -0.0750    1.1390 ca        1 1WJ     -0.068200
      4 C4          1.9640   -0.2630    2.5380 ca        1 1WJ      0.135400
      5 C5          0.6320   -0.0850    2.9480 ca        1 1WJ      0.021700
      6 C6          0.2340   -0.2930    4.3690 c3        1 1WJ     -0.034100
      7 C7         -0.3260    0.9610    5.0240 c3        1 1WJ     -0.086400
      8 C8         -0.3030    0.2770    1.9490 ca        1 1WJ      0.114400
      9 C13        -0.9100    0.8710   -0.4150 c         1 1WJ      0.728100
     10 N9         -1.6400    0.4580    2.3230 nc        1 1WJ     -0.538100
     11 C10        -2.5040    0.8430    1.4060 cd        1 1WJ      0.499800
     12 N11        -3.9030    1.0670    1.8910 n4        1 1WJ     -0.801600
     13 N12        -2.2390    1.0680    0.0500 n         1 1WJ     -0.512400
     14 O14        -0.7080    1.0620   -1.6210 o         1 1WJ     -0.563500
     15 N15         3.7050   -0.3480    1.0570 na        1 1WJ     -0.290300
     16 N16         3.0910   -0.6230    3.2860 nc        1 1WJ     -0.619100
     17 C17         4.1360   -0.6450    2.3870 cd        1 1WJ      0.660700
     18 N18         5.4710   -0.8520    2.7180 nh        1 1WJ     -0.788200
     19 C19         6.4030   -1.2710    1.7110 c3        1 1WJ      0.171100
     20 C20        -2.1410    1.6920    7.6150 c3        1 1WJ      0.293900
     21 O21        -0.9090    2.2350    8.0370 os        1 1WJ     -0.443600
     22 C22        -0.2550    1.4680    9.0420 c3        1 1WJ      0.118700
     23 O23        -1.8220    0.5180    6.8790 os        1 1WJ     -0.429600
     24 C24        -1.7760    0.8000    5.4720 c3        1 1WJ      0.118100
     25 C25        -2.6200    2.0790    5.2430 c3        1 1WJ      0.128100
     26 O26        -3.8560    1.7600    4.6220 oh        1 1WJ     -0.667800
     27 C27        -2.7850    2.7130    6.6440 c3        1 1WJ      0.090100
     28 O28        -4.1740    2.8390    6.9050 os        1 1WJ     -0.434600
     29 C          -4.4780    3.7940    7.9160 c3        1 1WJ      0.118700
     30 H1          1.6850    0.4360   -0.8890 ha        1 1WJ      0.177000
     31 H2          1.1190   -0.6430    4.9670 hc        1 1WJ      0.078200
     32 H3         -0.5190   -1.1290    4.4060 hc        1 1WJ      0.078200
     33 H4         -0.2360    1.8320    4.3250 hc        1 1WJ      0.066200
     34 H5          0.2880    1.2080    5.9340 hc        1 1WJ      0.066200
     35 H6         -3.9730    0.7570    2.8850 hn        1 1WJ      0.482467
     36 H7         -4.1150    2.0710    1.8620 hn        1 1WJ      0.482467
     37 H8         -2.9390    1.3540   -0.5980 hn        1 1WJ      0.346500
     38 H9          4.2840   -0.1950    0.2720 hn        1 1WJ      0.322700
     39 H11         5.6100   -1.2340    3.6330 hn        1 1WJ      0.455800
     40 H12         6.0800   -2.2090    1.1810 h1        1 1WJ      0.056033
     41 H13         6.5350   -0.4540    0.9520 h1        1 1WJ      0.056033
     42 H14         7.3940   -1.4570    2.2060 h1        1 1WJ      0.056033
     43 H16         0.6940    2.0270    9.2360 h1        1 1WJ      0.046367
     44 H17        -0.8850    1.4230    9.9640 h1        1 1WJ      0.046367
     45 H18        -0.0430    0.4380    8.6660 h1        1 1WJ      0.046367
     46 H19        -2.2700   -0.0850    4.9860 h1        1 1WJ      0.074700
     47 H20        -2.1240    2.7940    4.5350 h1        1 1WJ      0.085700
     48 H21        -4.4660    1.4470    5.3060 ho        1 1WJ      0.449000
     49 H22        -2.2630    3.7030    6.7070 h1        1 1WJ      0.095700
     50 H23        -3.9820    3.5140    8.8780 h1        1 1WJ      0.049367
     51 H24        -5.5910    3.7390    8.0120 h1        1 1WJ      0.049367
     52 H25        -4.1550    4.8150    7.5960 h1        1 1WJ      0.049367
     53 H113       -4.5670    0.5440    1.3170 hn        1 1WJ      0.482467
     54 H15        -2.7990    1.3810    8.4680 h2        1 1WJ      0.094700
@<TRIPOS>BOND
     1    1    2 ar  
     2    1    8 ar  
     3    1    9 1   
     4    2    3 ar  
     5    2   30 1   
     6    3    4 ar  
     7    3   15 1   
     8    4    5 ar  
     9    4   16 1   
    10    5    6 1   
    11    5    8 ar  
    12    6    7 1   
    13    6   31 1   
    14    6   32 1   
    15    7   24 1   
    16    7   33 1   
    17    7   34 1   
    18    8   10 1   
    19    9   13 1   
    20    9   14 2   
    21   10   11 2   
    22   11   12 1   
    23   11   13 1   
    24   12   35 1   
    25   12   36 1   
    26   12   53 1   
    27   13   37 1   
    28   15   17 1   
    29   15   38 1   
    30   16   17 2   
    31   17   18 1   
    32   18   19 1   
    33   18   39 1   
    34   19   40 1   
    35   19   41 1   
    36   19   42 1   
    37   20   21 1   
    38   20   23 1   
    39   20   27 1   
    40   20   54 1   
    41   21   22 1   
    42   22   43 1   
    43   22   44 1   
    44   22   45 1   
    45   23   24 1   
    46   24   25 1   
    47   24   46 1   
    48   25   26 1   
    49   25   27 1   
    50   25   47 1   
    51   26   48 1   
    52   27   28 1   
    53   27   49 1   
    54   28   29 1   
    55   29   50 1   
    56   29   51 1   
    57   29   52 1   
@<TRIPOS>SUBSTRUCTURE
     1 1WJ         1 TEMP              0 ****  ****    0 ROOT
