@<TRIPOS>MOLECULE
1WJ
   54    57     1     0     0
SMALL
bcc


@<TRIPOS>ATOM
      1 C1          0.0780    0.3940    0.5940 ca        1 1WJ     -0.165600
      2 C2          1.3950    0.2290    0.1720 ca        1 1WJ     -0.051000
      3 C3          2.3360   -0.0950    1.1450 ca        1 1WJ     -0.068200
      4 C4          1.9750   -0.2540    2.5500 ca        1 1WJ      0.135400
      5 C5          0.6430   -0.0900    2.9660 ca        1 1WJ      0.021700
      6 C6          0.2580   -0.2690    4.3940 c3        1 1WJ     -0.034100
      7 C7         -0.3210    0.9900    5.0210 c3        1 1WJ     -0.086400
      8 C8         -0.3050    0.2310    1.9640 ca        1 1WJ      0.114400
      9 C13        -0.9390    0.7560   -0.4090 c         1 1WJ      0.728100
     10 N9         -1.6430    0.3980    2.3430 nc        1 1WJ     -0.538100
     11 C10        -2.5200    0.7440    1.4240 cd        1 1WJ      0.499800
     12 N11        -3.9200    0.9560    1.9130 nz        1 1WJ     -0.801600
     13 N12        -2.2680    0.9410    0.0610 ns        1 1WJ     -0.512400
     14 O14        -0.7480    0.9200   -1.6200 o         1 1WJ     -0.563500
     15 N15         3.7070   -0.3460    1.0590 na        1 1WJ     -0.290300
     16 N16         3.1130   -0.5750    3.2990 nc        1 1WJ     -0.619100
     17 C17         4.1520   -0.6020    2.3940 cd        1 1WJ      0.660700
     18 N18         5.4930   -0.7770    2.7200 nu        1 1WJ     -0.788200
     19 C19         6.4250   -1.2050    1.7160 c3        1 1WJ      0.171100
     20 C20        -2.1310    1.7500    7.6080 c3        1 1WJ      0.293900
     21 O21        -0.9060    2.3260    8.0080 os        1 1WJ     -0.443600
     22 C22        -0.2310    1.5950    9.0260 c3        1 1WJ      0.118700
     23 O23        -1.7950    0.5650    6.8980 os        1 1WJ     -0.429600
     24 C24        -1.7640    0.8140    5.4840 c3        1 1WJ      0.118100
     25 C25        -2.6330    2.0710    5.2300 c3        1 1WJ      0.128100
     26 O26        -3.8670    1.7160    4.6260 oh        1 1WJ     -0.667800
     27 C27        -2.8010    2.7360    6.6170 c3        1 1WJ      0.090100
     28 O28        -4.1900    2.8420    6.8850 os        1 1WJ     -0.434600
     29 C          -4.5050    3.8150    7.8750 c3        1 1WJ      0.118700
     30 H1          1.6600    0.3540   -0.8900 ha        1 1WJ      0.177000
     31 H2         -0.4790   -1.1180    4.4570 hc        1 1WJ      0.078200
     32 H3          1.1540   -0.5880    4.9940 hc        1 1WJ      0.078200
     33 H4          0.2950    1.2710    5.9210 hc        1 1WJ      0.066200
     34 H5         -0.2510    1.8450    4.3000 hc        1 1WJ      0.066200
     35 H6         -4.1490    1.9540    1.8610 hn        1 1WJ      0.482467
     36 H7         -4.5780    0.4070    1.3560 hn        1 1WJ      0.482467
     37 H8         -2.9770    1.1980   -0.5890 hn        1 1WJ      0.346500
     38 H9          4.2770   -0.2020    0.2670 hn        1 1WJ      0.322700
     39 H11         5.6450   -1.1330    3.6430 hn        1 1WJ      0.455800
     40 H12         6.1160   -2.1610    1.2130 h1        1 1WJ      0.056033
     41 H13         6.5380   -0.4050    0.9360 h1        1 1WJ      0.056033
     42 H14         7.4220   -1.3610    2.2090 h1        1 1WJ      0.056033
     43 H16        -0.0020    0.5610    8.6730 h1        1 1WJ      0.046367
     44 H17        -0.8530    1.5610    9.9540 h1        1 1WJ      0.046367
     45 H18         0.7080    2.1770    9.1990 h1        1 1WJ      0.046367
     46 H19        -2.2450   -0.0910    5.0240 h1        1 1WJ      0.074700
     47 H20        -2.1540    2.7780    4.5020 h1        1 1WJ      0.085700
     48 H21        -4.4660    1.4080    5.3210 ho        1 1WJ      0.449000
     49 H22        -2.2970    3.7370    6.6530 h1        1 1WJ      0.095700
     50 H23        -4.2040    4.8330    7.5290 h1        1 1WJ      0.049367
     51 H24        -3.9970    3.5670    8.8390 h1        1 1WJ      0.049367
     52 H25        -5.6160    3.7410    7.9810 h1        1 1WJ      0.049367
     53 H113       -3.9770    0.6680    2.9140 hn        1 1WJ      0.482467
     54 H15        -2.7770    1.4490    8.4730 h2        1 1WJ      0.094700
@<TRIPOS>BOND
     1    1    2 ar  
     2    1    8 ar  
     3    1    9 1   
     4    2    3 ar  
     5    2   30 1   
     6    3    4 ar  
     7    3   15 1   
     8    4    5 ar  
     9    4   16 1   
    10    5    6 1   
    11    5    8 ar  
    12    6    7 1   
    13    6   31 1   
    14    6   32 1   
    15    7   24 1   
    16    7   33 1   
    17    7   34 1   
    18    8   10 1   
    19    9   13 1   
    20    9   14 2   
    21   10   11 2   
    22   11   12 1   
    23   11   13 1   
    24   12   35 1   
    25   12   36 1   
    26   12   53 1   
    27   13   37 1   
    28   15   17 1   
    29   15   38 1   
    30   16   17 2   
    31   17   18 1   
    32   18   19 1   
    33   18   39 1   
    34   19   40 1   
    35   19   41 1   
    36   19   42 1   
    37   20   21 1   
    38   20   23 1   
    39   20   27 1   
    40   20   54 1   
    41   21   22 1   
    42   22   43 1   
    43   22   44 1   
    44   22   45 1   
    45   23   24 1   
    46   24   25 1   
    47   24   46 1   
    48   25   26 1   
    49   25   27 1   
    50   25   47 1   
    51   26   48 1   
    52   27   28 1   
    53   27   49 1   
    54   28   29 1   
    55   29   50 1   
    56   29   51 1   
    57   29   52 1   
@<TRIPOS>SUBSTRUCTURE
     1 1WJ         1 TEMP              0 ****  ****    0 ROOT
