@<TRIPOS>MOLECULE
1WK
   51    54     1     0     0
SMALL
bcc


@<TRIPOS>ATOM
      1 C1          0.1450    0.4270    0.4960 ca        1 1WK     -0.165600
      2 C2          1.4920    0.2920    0.1680 ca        1 1WK     -0.050000
      3 C3          2.3720    0.0090    1.2090 ca        1 1WK     -0.068200
      4 C4          1.9180   -0.1400    2.5880 ca        1 1WK      0.135400
      5 C5          0.5570   -0.0060    2.9090 ca        1 1WK      0.020700
      6 C6          0.0790   -0.1750    4.3090 c3        1 1WK     -0.034100
      7 C7         -0.5610    1.0830    4.8780 c3        1 1WK     -0.086400
      8 C8         -0.3280    0.2740    1.8390 ca        1 1WK      0.115400
      9 C9         -0.8090    0.7450   -0.5810 c         1 1WK      0.728100
     10 N10        -1.6930    0.4090    2.1230 nc        1 1WK     -0.539100
     11 C11        -2.5130    0.7170    1.1380 cd        1 1WK      0.499800
     12 N12        -3.9490    0.8950    1.5250 n4        1 1WK     -0.800600
     13 N13        -2.1720    0.9000   -0.2070 n         1 1WK     -0.512400
     14 O14        -0.5390    0.8970   -1.7780 o         1 1WK     -0.562500
     15 N15         3.7520   -0.2050    1.2220 na        1 1WK     -0.290300
     16 N16         3.0100   -0.4180    3.4190 nc        1 1WK     -0.619100
     17 C17         4.1100   -0.4280    2.5880 cd        1 1WK      0.661700
     18 N18         5.4290   -0.5630    3.0090 nh        1 1WK     -0.788200
     19 C19         6.4400   -0.9750    2.0790 c3        1 1WK      0.171100
     20 C20        -3.1860    2.8250    6.2260 c3        1 1WK      0.092100
     21 O21        -4.5870    2.9220    6.3820 oh        1 1WK     -0.605800
     22 C22        -2.9060    2.1120    4.8820 c3        1 1WK      0.131100
     23 O23        -4.0890    1.7020    4.2140 oh        1 1WK     -0.667800
     24 C24        -2.0290    0.8890    5.2470 c3        1 1WK      0.118100
     25 O25        -2.1540    0.6930    6.6640 os        1 1WK     -0.428600
     26 C26        -2.5700    1.8940    7.3010 c3        1 1WK      0.287900
     27 O27        -1.3960    2.5180    7.7710 os        1 1WK     -0.442600
     28 C28        -0.7760    1.8370    8.8570 c3        1 1WK      0.118700
     29 H1          1.8270    0.4090   -0.8750 ha        1 1WK      0.177000
     30 H2          0.9370   -0.4710    4.9730 hc        1 1WK      0.078200
     31 H3         -0.6460   -1.0360    4.3350 hc        1 1WK      0.078200
     32 H4         -0.0110    1.3860    5.8120 hc        1 1WK      0.066700
     33 H5         -0.4570    1.9280    4.1510 hc        1 1WK      0.066700
     34 H6         -4.1960    1.8890    1.4560 hn        1 1WK      0.482467
     35 H7         -4.5530    0.3330    0.9220 hn        1 1WK      0.482467
     36 H8         -2.8400    1.1270   -0.9080 hn        1 1WK      0.346500
     37 H9          4.3720   -0.0570    0.4690 hn        1 1WK      0.322700
     38 H11         5.5260   -0.9010    3.9460 hn        1 1WK      0.455800
     39 H12         6.1940   -1.9460    1.5690 h1        1 1WK      0.056367
     40 H13         7.4050   -1.0970    2.6420 h1        1 1WK      0.056367
     41 H14         6.5850   -0.1820    1.2970 h1        1 1WK      0.056367
     42 H15        -2.7040    3.8380    6.2560 h1        1 1WK      0.091700
     43 H18        -4.7290    1.4130    4.8790 ho        1 1WK      0.450000
     44 H19        -2.4560   -0.0460    4.7900 h1        1 1WK      0.075700
     45 H20        -3.2730    1.6050    8.1250 h2        1 1WK      0.091700
     46 H21        -0.4890    0.8020    8.5510 h1        1 1WK      0.047367
     47 H22         0.1300    2.4540    9.0810 h1        1 1WK      0.047367
     48 H23        -1.4630    1.8080    9.7370 h1        1 1WK      0.047367
     49 H16        -4.7490    3.4610    7.1680 ho        1 1WK      0.435000
     50 H123       -4.0720    0.6060    2.5190 hn        1 1WK      0.482467
     51 H17        -2.3950    2.8010    4.1590 h1        1 1WK      0.087700
@<TRIPOS>BOND
     1    1    2 ar  
     2    1    8 ar  
     3    1    9 1   
     4    2    3 ar  
     5    2   29 1   
     6    3    4 ar  
     7    3   15 1   
     8    4    5 ar  
     9    4   16 1   
    10    5    6 1   
    11    5    8 ar  
    12    6    7 1   
    13    6   30 1   
    14    6   31 1   
    15    7   24 1   
    16    7   32 1   
    17    7   33 1   
    18    8   10 1   
    19    9   13 1   
    20    9   14 2   
    21   10   11 2   
    22   11   12 1   
    23   11   13 1   
    24   12   34 1   
    25   12   35 1   
    26   12   50 1   
    27   13   36 1   
    28   15   17 1   
    29   15   37 1   
    30   16   17 2   
    31   17   18 1   
    32   18   19 1   
    33   18   38 1   
    34   19   39 1   
    35   19   40 1   
    36   19   41 1   
    37   20   21 1   
    38   20   22 1   
    39   20   26 1   
    40   20   42 1   
    41   21   49 1   
    42   22   23 1   
    43   22   24 1   
    44   22   51 1   
    45   23   43 1   
    46   24   25 1   
    47   24   44 1   
    48   25   26 1   
    49   26   27 1   
    50   26   45 1   
    51   27   28 1   
    52   28   46 1   
    53   28   47 1   
    54   28   48 1   
@<TRIPOS>SUBSTRUCTURE
     1 1WK         1 TEMP              0 ****  ****    0 ROOT
