@<TRIPOS>MOLECULE
1WK
   51    54     1     0     0
SMALL
bcc


@<TRIPOS>ATOM
      1 C1          0.1020    0.3510    0.4900 ca        1 1WK     -0.165600
      2 C2          1.4410    0.1610    0.1550 ca        1 1WK     -0.050000
      3 C3          2.3140   -0.1570    1.1910 ca        1 1WK     -0.069200
      4 C4          1.8630   -0.2830    2.5740 ca        1 1WK      0.135400
      5 C5          0.5110   -0.0900    2.9020 ca        1 1WK      0.020700
      6 C6          0.0350   -0.2340    4.3060 c3        1 1WK     -0.034100
      7 C7         -0.5520    1.0500    4.8730 c3        1 1WK     -0.086400
      8 C8         -0.3680    0.2220    1.8370 ca        1 1WK      0.115400
      9 C9         -0.8450    0.7000   -0.5830 c         1 1WK      0.728100
     10 N10        -1.7250    0.4110    2.1270 nc        1 1WK     -0.539100
     11 C11        -2.5390    0.7440    1.1460 cd        1 1WK      0.499800
     12 N12        -3.9650    0.9780    1.5390 nz        1 1WK     -0.800600
     13 N13        -2.1990    0.9070   -0.2020 ns        1 1WK     -0.512400
     14 O14        -0.5770    0.8350   -1.7830 o         1 1WK     -0.562500
     15 N15         3.6930   -0.3820    1.2040 na        1 1WK     -0.290300
     16 N16         2.9480   -0.5980    3.4000 nc        1 1WK     -0.620100
     17 C17         4.0370   -0.6830    2.5580 cd        1 1WK      0.661700
     18 N18         5.3130   -1.0820    2.9400 nu        1 1WK     -0.789200
     19 C19         6.4450   -0.7540    2.1220 c3        1 1WK      0.172100
     20 C20        -3.1010    2.8990    6.2260 c3        1 1WK      0.092100
     21 O21        -4.4960    3.0510    6.3900 oh        1 1WK     -0.604800
     22 C22        -2.8560    2.1690    4.8850 c3        1 1WK      0.131100
     23 O23        -4.0570    1.8020    4.2250 oh        1 1WK     -0.667800
     24 C24        -2.0250    0.9150    5.2510 c3        1 1WK      0.118100
     25 O25        -2.1490    0.7310    6.6700 os        1 1WK     -0.428600
     26 C26        -2.5160    1.9500    7.3030 c3        1 1WK      0.287900
     27 O27        -1.3160    2.5300    7.7650 os        1 1WK     -0.442600
     28 C28        -0.7190    1.8310    8.8510 c3        1 1WK      0.118700
     29 H1          1.7750    0.2650   -0.8900 ha        1 1WK      0.177000
     30 H2          0.8850   -0.5600    4.9660 hc        1 1WK      0.078200
     31 H3         -0.7230   -1.0650    4.3390 hc        1 1WK      0.078200
     32 H4          0.0140    1.3360    5.8030 hc        1 1WK      0.066200
     33 H5         -0.4190    1.8890    4.1420 hc        1 1WK      0.066200
     34 H6         -4.5930    0.4350    0.9430 hn        1 1WK      0.482467
     35 H7         -4.0930    0.6990    2.5350 hn        1 1WK      0.482467
     36 H8         -2.8630    1.1550   -0.9010 hn        1 1WK      0.346500
     37 H9          4.2700   -0.4990    0.4120 hn        1 1WK      0.322700
     38 H11         5.4660   -1.0760    3.9290 hn        1 1WK      0.455800
     39 H12         7.3720   -1.0990    2.6520 h1        1 1WK      0.056033
     40 H13         6.3750   -1.2970    1.1410 h1        1 1WK      0.056033
     41 H14         6.5310    0.3490    1.9210 h1        1 1WK      0.056033
     42 H15        -2.5790    3.8920    6.2490 h1        1 1WK      0.091700
     43 H18        -4.7050    1.5410    4.8950 ho        1 1WK      0.450000
     44 H19        -2.4900   -0.0050    4.8010 h1        1 1WK      0.076700
     45 H20        -3.2250    1.6920    8.1320 h2        1 1WK      0.091700
     46 H21        -0.4740    0.7830    8.5500 h1        1 1WK      0.047033
     47 H22        -1.4040    1.8310    9.7350 h1        1 1WK      0.047033
     48 H23         0.2110    2.4130    9.0690 h1        1 1WK      0.047033
     49 H16        -4.6330    3.5980    7.1740 ho        1 1WK      0.435000
     50 H123       -4.1760    1.9800    1.4670 hn        1 1WK      0.482467
     51 H17        -2.3230    2.8350    4.1560 h1        1 1WK      0.087700
@<TRIPOS>BOND
     1    1    2 ar  
     2    1    8 ar  
     3    1    9 1   
     4    2    3 ar  
     5    2   29 1   
     6    3    4 ar  
     7    3   15 1   
     8    4    5 ar  
     9    4   16 1   
    10    5    6 1   
    11    5    8 ar  
    12    6    7 1   
    13    6   30 1   
    14    6   31 1   
    15    7   24 1   
    16    7   32 1   
    17    7   33 1   
    18    8   10 1   
    19    9   13 1   
    20    9   14 2   
    21   10   11 2   
    22   11   12 1   
    23   11   13 1   
    24   12   34 1   
    25   12   35 1   
    26   12   50 1   
    27   13   36 1   
    28   15   17 1   
    29   15   37 1   
    30   16   17 2   
    31   17   18 1   
    32   18   19 1   
    33   18   38 1   
    34   19   39 1   
    35   19   40 1   
    36   19   41 1   
    37   20   21 1   
    38   20   22 1   
    39   20   26 1   
    40   20   42 1   
    41   21   49 1   
    42   22   23 1   
    43   22   24 1   
    44   22   51 1   
    45   23   43 1   
    46   24   25 1   
    47   24   44 1   
    48   25   26 1   
    49   26   27 1   
    50   26   45 1   
    51   27   28 1   
    52   28   46 1   
    53   28   47 1   
    54   28   48 1   
@<TRIPOS>SUBSTRUCTURE
     1 1WK         1 TEMP              0 ****  ****    0 ROOT
