@<TRIPOS>MOLECULE
1WL
   50    52     1     0     0
SMALL
bcc


@<TRIPOS>ATOM
      1 O01         5.3860   -2.1970    1.9210 o         1 1WL     -0.553100
      2 C02         5.8580   -1.8100    0.8410 c         1 1WL      0.572100
      3 N03         6.9820   -2.4600    0.2530 n         1 1WL     -0.347400
      4 O04         7.1700   -3.7210    0.6480 oh        1 1WL     -0.431100
      5 C05         5.3910   -0.4980    0.1680 c3        1 1WL      0.038700
      6 N06         3.9580   -0.3850    0.2420 n         1 1WL     -0.559900
      7 C07         3.1750   -0.1360   -0.8670 c         1 1WL      0.688700
      8 O08         3.7020    0.0510   -1.9880 o         1 1WL     -0.638100
      9 C09         1.6990   -0.1100   -0.6790 ca        1 1WL     -0.141600
     10 C10         0.8980   -0.6310   -1.7020 ca        1 1WL     -0.088500
     11 C11        -0.4880   -0.6230   -1.5760 ca        1 1WL     -0.116500
     12 C12        -1.0890   -0.0830   -0.4260 ca        1 1WL      0.060000
     13 C13        -2.4870   -0.0740   -0.2950 cg        1 1WL     -0.109000
     14 C14        -3.6840   -0.0670   -0.1830 ch        1 1WL     -0.001000
     15 C15        -5.0270   -0.0590   -0.0570 ch        1 1WL     -0.075000
     16 C16        -6.2240   -0.0510    0.0560 cg        1 1WL     -0.037000
     17 C17        -7.6210   -0.0420    0.1870 ca        1 1WL     -0.045000
     18 C18        -8.4340   -0.6410   -0.7900 ca        1 1WL     -0.056000
     19 C19        -9.8140   -0.6380   -0.6650 ca        1 1WL     -0.204000
     20 C20       -10.4350   -0.0210    0.4500 ca        1 1WL      0.170600
     21 N21       -11.8210    0.0630    0.5370 nh        1 1WL     -0.829200
     22 C22        -9.6090    0.5740    1.4350 ca        1 1WL     -0.204000
     23 C23        -8.2290    0.5650    1.2990 ca        1 1WL     -0.056000
     24 C24        -0.2790    0.4530    0.5900 ca        1 1WL     -0.116500
     25 C25         1.1070    0.4380    0.4640 ca        1 1WL     -0.088500
     26 C26         6.1530    0.6390    0.8730 c3        1 1WL     -0.015100
     27 C27         5.8120    1.9860    0.3870 cc        1 1WL     -0.232900
     28 N28         5.3250    2.3090   -0.8840 na        1 1WL     -0.306900
     29 C29         5.1700    3.6970   -0.9140 cc        1 1WL      0.389400
     30 N30         5.5430    4.2650    0.2560 nd        1 1WL     -0.671000
     31 C31         5.9420    3.2160    1.0740 cd        1 1WL      0.298200
     32 H1          6.9530   -2.4580   -0.7620 hn        1 1WL      0.305500
     33 H2          7.5200   -3.6670    1.5600 ho        1 1WL      0.436000
     34 H3          5.6830   -0.5050   -0.9280 h1        1 1WL      0.095700
     35 H4          3.5380   -0.5450    1.1290 hn        1 1WL      0.336500
     36 H5          1.3740   -1.0370   -2.6090 ha        1 1WL      0.150500
     37 H6         -1.1170   -1.0370   -2.3790 ha        1 1WL      0.150000
     38 H7         -7.9680   -1.1200   -1.6660 ha        1 1WL      0.140000
     39 H8        -10.4280   -1.1110   -1.4460 ha        1 1WL      0.136000
     40 H9        -12.3260   -0.6080    0.0050 hn        1 1WL      0.400800
     41 H10       -12.1850    0.2250    1.4480 hn        1 1WL      0.400800
     42 H11       -10.0600    1.0590    2.3140 ha        1 1WL      0.136000
     43 H12        -7.6020    1.0370    2.0710 ha        1 1WL      0.140000
     44 H13        -0.7450    0.8880    1.4880 ha        1 1WL      0.150000
     45 H14         1.7230    0.8790    1.2630 ha        1 1WL      0.150500
     46 H15         5.9540    0.5970    1.9790 hc        1 1WL      0.074700
     47 H16         7.2530    0.4550    0.7170 hc        1 1WL      0.074700
     48 H17         5.0720    1.6670   -1.5950 hn        1 1WL      0.323700
     49 H18         4.7950    4.2290   -1.7940 h5        1 1WL      0.063100
     50 H20         6.2970    3.3820    2.0900 h4        1 1WL      0.040100
@<TRIPOS>BOND
     1    1    2 2   
     2    2    3 1   
     3    2    5 1   
     4    3    4 1   
     5    3   32 1   
     6    4   33 1   
     7    5    6 1   
     8    5   26 1   
     9    5   34 1   
    10    6    7 1   
    11    6   35 1   
    12    7    8 2   
    13    7    9 1   
    14    9   10 ar  
    15    9   25 ar  
    16   10   11 ar  
    17   10   36 1   
    18   11   12 ar  
    19   11   37 1   
    20   12   13 1   
    21   12   24 ar  
    22   13   14 3   
    23   14   15 1   
    24   15   16 3   
    25   16   17 1   
    26   17   18 ar  
    27   17   23 ar  
    28   18   19 ar  
    29   18   38 1   
    30   19   20 ar  
    31   19   39 1   
    32   20   21 1   
    33   20   22 ar  
    34   21   40 1   
    35   21   41 1   
    36   22   23 ar  
    37   22   42 1   
    38   23   43 1   
    39   24   25 ar  
    40   24   44 1   
    41   25   45 1   
    42   26   27 1   
    43   26   46 1   
    44   26   47 1   
    45   27   28 1   
    46   27   31 2   
    47   28   29 1   
    48   28   48 1   
    49   29   30 2   
    50   29   49 1   
    51   30   31 1   
    52   31   50 1   
@<TRIPOS>SUBSTRUCTURE
     1 1WL         1 TEMP              0 ****  ****    0 ROOT
