@<TRIPOS>MOLECULE
1WL
   50    41     1     0     0
SMALL
bcc


@<TRIPOS>ATOM
      1 O01         3.2800    3.2080    2.5340 o         1 1WL     -0.360000
      2 C02         3.3360    2.6550    3.6320 c1        1 1WL      0.237000
      3 N03         3.2180    3.4000    4.7860 n3        1 1WL     -0.205000
      4 O04         3.1830    4.7850    4.7150 oh        1 1WL     -0.230000
      5 C05         3.5790    1.1770    3.7170 c2        1 1WL      0.010000
      6 N06         2.8260    0.5220    2.7250 n         1 1WL     -0.382000
      7 C07         1.5250   -0.0070    3.0450 c2        1 1WL      0.353000
      8 O08         1.2270   -0.2490    4.2350 o         1 1WL     -0.376000
      9 C09         0.4780   -0.1540    1.9590 c2        1 1WL     -0.121000
     10 C10         0.0720   -1.4150    1.5610 c1        1 1WL     -0.077000
     11 C11        -0.8170   -1.5580    0.5000 c1        1 1WL     -0.116000
     12 C12        -1.2930   -0.4390   -0.1550 c1        1 1WL      0.063000
     13 C13        -2.1430   -0.5970   -1.4100 c1        1 1WL     -0.115000
     14 C14        -2.8180   -0.7230   -2.4020 c1        1 1WL      0.001000
     15 C15        -3.6710   -0.8850   -3.6450 c1        1 1WL     -0.058000
     16 C16        -4.3520   -1.0180   -4.6290 c1        1 1WL     -0.058000
     17 C17        -5.2260   -1.1890   -5.8840 c1        1 1WL     -0.042000
     18 C18        -5.0980   -0.2890   -6.9580 c1        1 1WL     -0.129500
     19 C19        -5.8840   -0.4510   -8.1090 c1        1 1WL     -0.129500
     20 C20        -6.7880   -1.4990   -8.1900 c1        1 1WL      0.089000
     21 N21        -7.6380   -1.6410   -9.3770 n3        1 1WL     -0.338000
     22 C22        -6.9180   -2.4060   -7.1090 c1        1 1WL     -0.204000
     23 C23        -6.1330   -2.2420   -5.9620 c1        1 1WL     -0.055000
     24 C24        -0.8810    0.8330    0.2490 c1        1 1WL     -0.116000
     25 C25        -0.0010    0.9710    1.3000 c2        1 1WL     -0.105000
     26 C26         5.0720    0.8900    3.5050 c3        1 1WL     -0.090000
     27 C27         5.6310    0.0590    4.7300 c2        1 1WL     -0.143000
     28 N28         5.7980    0.5220    5.9850 n2        1 1WL     -0.187000
     29 C29         6.4790   -0.4210    6.6970 c1        1 1WL     -0.096000
     30 N30         6.7310   -1.4700    5.8720 n2        1 1WL     -0.145000
     31 C31         6.2130   -1.1830    4.6610 c1        1 1WL     -0.158000
     32 H1          3.2160    2.9880    5.5920 hn        1 1WL      0.256000
     33 H2          3.5560    5.1290    5.4450 ho        1 1WL      0.226000
     34 H3          3.3110    0.8560    4.5870 h4        1 1WL      0.147000
     35 H4          3.1700    0.4060    1.9030 hn        1 1WL      0.238000
     36 H5          0.4140   -2.2160    2.0330 ha        1 1WL      0.159000
     37 H6         -1.1100   -2.4670    0.2130 ha        1 1WL      0.151000
     38 H7         -4.4620    0.4490   -6.9010 ha        1 1WL      0.138500
     39 H8         -5.7900    0.2050   -8.8890 ha        1 1WL      0.138500
     40 H9         -8.0930   -2.4270   -9.5270 hn        1 1WL      0.196000
     41 H10        -7.7250   -0.9240   -9.9810 hn        1 1WL      0.196000
     42 H11        -7.5700   -3.1620   -7.1660 ha        1 1WL      0.137000
     43 H12        -6.2230   -2.8810   -5.1980 ha        1 1WL      0.140000
     44 H13        -1.2220    1.6380   -0.2200 ha        1 1WL      0.149000
     45 H14         0.2910    1.8760    1.5860 ha        1 1WL      0.139000
     46 H15         5.1930    0.3710    2.6700 hc        1 1WL      0.111500
     47 H16         5.5620    1.7410    3.4370 hc        1 1WL      0.111500
     48 H17         5.5080    1.3170    6.2990 DU        1 1WL      0.216333
     49 H18         6.7410   -0.3520    7.6390 DU        1 1WL      0.216333
     50 H20         6.2450   -1.7350    3.9040 DU        1 1WL      0.216333
@<TRIPOS>BOND
     1    1    2 1   
     2    2    3 1   
     3    3    4 1   
     4    3   32 1   
     5    4   33 1   
     6    5    6 1   
     7    5   26 1   
     8    5   34 1   
     9    6    7 1   
    10    6   35 1   
    11    7    8 1   
    12    7    9 1   
    13    9   10 1   
    14    9   25 1   
    15   10   36 1   
    16   11   12 1   
    17   11   37 1   
    18   12   13 1   
    19   13   14 1   
    20   15   16 1   
    21   17   23 1   
    22   18   19 1   
    23   18   38 1   
    24   19   39 1   
    25   20   21 1   
    26   20   22 1   
    27   21   40 1   
    28   21   41 1   
    29   22   42 1   
    30   23   43 1   
    31   24   25 1   
    32   24   44 1   
    33   25   45 1   
    34   26   27 1   
    35   26   46 1   
    36   26   47 1   
    37   27   28 1   
    38   27   31 1   
    39   28   29 1   
    40   29   30 1   
    41   30   31 1   
@<TRIPOS>SUBSTRUCTURE
     1 1WL         1 TEMP              0 ****  ****    0 ROOT
