@<TRIPOS>MOLECULE
1WL
   52    54     1     0     0
SMALL
bcc


@<TRIPOS>ATOM
      1 O01         0.8540    0.6420    0.4800 o         1 1WL     -0.369100
      2 C02         1.5480   -0.1560   -0.1250 c         1 1WL      0.528100
      3 N03         1.8580   -1.4630    0.5840 ny        1 1WL     -0.438300
      4 O04         1.7740   -1.3630    1.9300 oh        1 1WL     -0.333300
      5 C05         2.1310    0.0310   -1.5260 c3        1 1WL      0.082500
      6 N06         1.0330    0.2920   -2.5080 ny        1 1WL     -0.686800
      7 C07         0.0230   -0.8730   -2.5920 c         1 1WL      0.598700
      8 O08         0.1080   -1.6140   -1.5980 o         1 1WL     -0.628100
      9 C09        -0.8180   -0.9290   -3.7260 ca        1 1WL     -0.270600
     10 C10        -1.7360   -2.0230   -3.7880 ca        1 1WL     -0.025500
     11 C11        -2.5910   -2.1660   -4.8530 ca        1 1WL     -0.154000
     12 C12        -2.5870   -1.2270   -5.9210 ca        1 1WL      0.247000
     13 C13        -3.4380   -1.3660   -6.9910 cg        1 1WL     -0.267000
     14 C14        -4.1940   -1.4950   -7.9350 ch        1 1WL      0.219000
     15 C15        -5.0210   -1.6370   -8.9680 ch        1 1WL     -0.213000
     16 C16        -5.7760   -1.7710   -9.9100 cg        1 1WL      0.147000
     17 C17        -6.6390   -1.9240  -10.9830 ca        1 1WL     -0.149000
     18 C18        -7.5380   -3.0140  -11.0350 ca        1 1WL     -0.002000
     19 C19        -8.3990   -3.1740  -12.0990 ca        1 1WL     -0.237000
     20 C20        -8.4030   -2.2390  -13.1790 ca        1 1WL      0.271600
     21 N21        -9.2500   -2.3900  -14.2330 nv        1 1WL     -0.846200
     22 C22        -7.4920   -1.1410  -13.1200 ca        1 1WL     -0.237000
     23 C23        -6.6370   -0.9940  -12.0490 ca        1 1WL     -0.002000
     24 C24        -1.6730   -0.1310   -5.8550 ca        1 1WL     -0.154000
     25 C25        -0.8180    0.0130   -4.7930 ca        1 1WL     -0.025500
     26 C26         3.1580    1.1870   -1.4670 c3        1 1WL     -0.003100
     27 C27         3.5750    1.5540   -2.8280 cc        1 1WL     -0.350900
     28 N28         3.8290    2.8640   -3.2660 na        1 1WL     -0.287900
     29 C29         4.2530    2.7680   -4.5900 cc        1 1WL      0.461400
     30 N30         4.2570    1.4810   -5.0210 nd        1 1WL     -0.628000
     31 C31         3.8560    0.7170   -3.9400 cd        1 1WL      0.308200
     32 H1          2.8400   -1.7610    0.3980 hn        1 1WL      0.509300
     33 H2          0.9050   -0.9590    2.1780 ho        1 1WL      0.495000
     34 H3          2.6570   -0.9090   -1.8810 hx        1 1WL      0.138700
     35 H4          1.4770    0.4410   -3.4330 hn        1 1WL      0.481800
     36 H5         -1.7450   -2.7560   -2.9620 ha        1 1WL      0.143500
     37 H6         -3.2960   -3.0150   -4.8930 ha        1 1WL      0.182500
     38 H7         -7.5490   -3.7450  -10.2100 ha        1 1WL      0.145000
     39 H8         -9.0900   -4.0310  -12.1150 ha        1 1WL      0.152500
     40 H9         -9.8780   -3.1550  -14.2660 hn        1 1WL      0.448300
     41 H10        -9.2460   -1.7380  -14.9770 hn        1 1WL      0.448300
     42 H11        -7.4710   -0.4030  -13.9370 ha        1 1WL      0.152500
     43 H12        -5.9400   -0.1410  -12.0200 ha        1 1WL      0.145000
     44 H13        -1.6700    0.6020   -6.6810 ha        1 1WL      0.182500
     45 H14        -0.1390    0.8800   -4.7880 ha        1 1WL      0.143500
     46 H15         2.7190    2.0620   -0.9130 hc        1 1WL      0.102200
     47 H16         4.0460    0.8190   -0.8780 hc        1 1WL      0.102200
     48 H17         3.8250    3.6740   -2.6990 hn        1 1WL      0.326700
     49 H18         4.5400    3.6440   -5.1940 h5        1 1WL      0.105100
     50 H20         3.8290   -0.3720   -4.0030 h4        1 1WL      0.046100
     51 H032        1.2040   -2.1990    0.2270 hn        1 1WL      0.509300
     52 H062        0.5300    1.1500   -2.2550 hn        1 1WL      0.481800
@<TRIPOS>BOND
     1    1    2 2   
     2    2    3 1   
     3    2    5 1   
     4    3    4 1   
     5    3   32 1   
     6    3   51 1   
     7    4   33 1   
     8    5    6 1   
     9    5   26 1   
    10    5   34 1   
    11    6    7 1   
    12    6   35 1   
    13    6   52 1   
    14    7    8 2   
    15    7    9 1   
    16    9   10 ar  
    17    9   25 ar  
    18   10   11 ar  
    19   10   36 1   
    20   11   12 ar  
    21   11   37 1   
    22   12   13 1   
    23   12   24 ar  
    24   13   14 3   
    25   14   15 1   
    26   15   16 3   
    27   16   17 1   
    28   17   18 ar  
    29   17   23 ar  
    30   18   19 ar  
    31   18   38 1   
    32   19   20 ar  
    33   19   39 1   
    34   20   21 1   
    35   20   22 ar  
    36   21   40 1   
    37   21   41 1   
    38   22   23 ar  
    39   22   42 1   
    40   23   43 1   
    41   24   25 ar  
    42   24   44 1   
    43   25   45 1   
    44   26   27 1   
    45   26   46 1   
    46   26   47 1   
    47   27   28 1   
    48   27   31 2   
    49   28   29 1   
    50   28   48 1   
    51   29   30 2   
    52   29   49 1   
    53   30   31 1   
    54   31   50 1   
@<TRIPOS>SUBSTRUCTURE
     1 1WL         1 TEMP              0 ****  ****    0 ROOT
