@<TRIPOS>MOLECULE
1WM
   55    57     1     0     0
SMALL
bcc


@<TRIPOS>ATOM
      1 O01         6.9010    3.9360   -1.1350 oh        1 1WM     -0.433100
      2 N02         6.4100    3.0140   -0.3040 n         1 1WM     -0.344400
      3 C03         5.2070    2.3940   -0.7460 c         1 1WM      0.575100
      4 O04         4.4580    2.9530   -1.5640 o         1 1WM     -0.570100
      5 C05         4.8350    1.0650   -0.0510 c3        1 1WM      0.000700
      6 N06         3.4280    0.7930   -0.1390 n         1 1WM     -0.543900
      7 C07         2.6490    0.6350    0.9990 c         1 1WM      0.678700
      8 O08         3.1760    0.5510    2.1280 o         1 1WM     -0.612100
      9 C09         1.1750    0.5440    0.8120 ca        1 1WM     -0.136600
     10 C10         0.3530    1.1000    1.8000 ca        1 1WM     -0.090000
     11 C11        -1.0310    1.0340    1.6770 ca        1 1WM     -0.117000
     12 C12        -1.6110    0.4010    0.5650 ca        1 1WM      0.054000
     13 C13        -3.0090    0.3330    0.4360 cg        1 1WM     -0.103000
     14 C14        -4.2040    0.2750    0.3270 ch        1 1WM     -0.008000
     15 C15        -5.5460    0.2110    0.2040 ch        1 1WM     -0.071000
     16 C16        -6.7420    0.1530    0.0940 cg        1 1WM     -0.042000
     17 C17        -8.1370    0.0860   -0.0340 ca        1 1WM     -0.043000
     18 C18        -8.7230   -0.5210   -1.1580 ca        1 1WM     -0.057000
     19 C19       -10.1010   -0.5870   -1.2910 ca        1 1WM     -0.203000
     20 C20       -10.9490   -0.0500   -0.2910 ca        1 1WM      0.168600
     21 N21       -12.3310   -0.1930   -0.3760 nh        1 1WM     -0.828200
     22 C22       -10.3520    0.5660    0.8370 ca        1 1WM     -0.203000
     23 C23        -8.9720    0.6260    0.9590 ca        1 1WM     -0.057000
     24 C24        -0.7820   -0.1680   -0.4170 ca        1 1WM     -0.117000
     25 C25         0.6030   -0.0950   -0.2930 ca        1 1WM     -0.090000
     26 C26         5.7350   -0.0360   -0.7030 c3        1 1WM      0.186400
     27 O27         7.0600    0.1670   -0.2310 oh        1 1WM     -0.607800
     28 C29         5.2630   -1.4310   -0.4410 ca        1 1WM     -0.164300
     29 C30         4.9170   -1.8450    0.8500 ca        1 1WM     -0.074500
     30 C31         4.5130   -3.1560    1.0870 ca        1 1WM     -0.187000
     31 C32         4.4540   -4.0600    0.0170 ca        1 1WM      0.137100
     32 O33         4.0660   -5.3700    0.1720 oh        1 1WM     -0.494100
     33 C34         4.7940   -3.6570   -1.2850 ca        1 1WM     -0.187000
     34 C35         5.1970   -2.3440   -1.5010 ca        1 1WM     -0.074500
     35 H1          6.3090    4.7110   -1.0540 ho        1 1WM      0.432000
     36 H2          7.1500    2.3380   -0.1180 hn        1 1WM      0.322500
     37 H3          5.1190    1.1340    1.0460 h1        1 1WM      0.111700
     38 H4          2.9840    1.0280   -0.9980 hn        1 1WM      0.330500
     39 H5          0.8130    1.5800    2.6790 ha        1 1WM      0.151000
     40 H6         -1.6750    1.4760    2.4530 ha        1 1WM      0.147500
     41 H7         -8.0790   -0.9470   -1.9430 ha        1 1WM      0.140000
     42 H8        -10.5340   -1.0700   -2.1800 ha        1 1WM      0.136000
     43 H9        -12.6890   -0.3460   -1.2910 hn        1 1WM      0.399800
     44 H10       -12.8610    0.4460    0.1710 hn        1 1WM      0.399800
     45 H11       -10.9830    0.9940    1.6300 ha        1 1WM      0.136000
     46 H12        -8.5240    1.1050    1.8440 ha        1 1WM      0.140000
     47 H13        -1.2300   -0.6730   -1.2850 ha        1 1WM      0.147500
     48 H14         1.2360   -0.5600   -1.0640 ha        1 1WM      0.151000
     49 H15         5.8060    0.1540   -1.8140 h1        1 1WM      0.086700
     50 H16         7.1390   -0.2690    0.6270 ho        1 1WM      0.416000
     51 H17         4.9340   -1.1230    1.6840 ha        1 1WM      0.145500
     52 H18         4.2370   -3.4750    2.1030 ha        1 1WM      0.148000
     53 H19         3.8500   -5.5100    1.1060 ho        1 1WM      0.423000
     54 H20         4.7400   -4.3810   -2.1100 ha        1 1WM      0.148000
     55 H21         5.4710   -2.0240   -2.5190 ha        1 1WM      0.145500
@<TRIPOS>BOND
     1    1    2 1   
     2    1   35 1   
     3    2    3 1   
     4    2   36 1   
     5    3    4 2   
     6    3    5 1   
     7    5    6 1   
     8    5   26 1   
     9    5   37 1   
    10    6    7 1   
    11    6   38 1   
    12    7    8 2   
    13    7    9 1   
    14    9   10 ar  
    15    9   25 ar  
    16   10   11 ar  
    17   10   39 1   
    18   11   12 ar  
    19   11   40 1   
    20   12   13 1   
    21   12   24 ar  
    22   13   14 3   
    23   14   15 1   
    24   15   16 3   
    25   16   17 1   
    26   17   18 ar  
    27   17   23 ar  
    28   18   19 ar  
    29   18   41 1   
    30   19   20 ar  
    31   19   42 1   
    32   20   21 1   
    33   20   22 ar  
    34   21   43 1   
    35   21   44 1   
    36   22   23 ar  
    37   22   45 1   
    38   23   46 1   
    39   24   25 ar  
    40   24   47 1   
    41   25   48 1   
    42   26   27 1   
    43   26   28 1   
    44   26   49 1   
    45   27   50 1   
    46   28   29 ar  
    47   28   34 ar  
    48   29   30 ar  
    49   29   51 1   
    50   30   31 ar  
    51   30   52 1   
    52   31   32 1   
    53   31   33 ar  
    54   32   53 1   
    55   33   34 ar  
    56   33   54 1   
    57   34   55 1   
@<TRIPOS>SUBSTRUCTURE
     1 1WM         1 TEMP              0 ****  ****    0 ROOT
