@<TRIPOS>MOLECULE
1WM
   57    59     1     0     0
SMALL
bcc


@<TRIPOS>ATOM
      1 O01         0.2350    0.5070   -0.1080 oh        1 1WM     -0.334300
      2 N02         1.5880    0.5640   -0.1600 n4        1 1WM     -0.441300
      3 C03         2.1130    0.1750    1.2200 c         1 1WM      0.557100
      4 O04         1.3370    0.0760    2.1470 o         1 1WM     -0.332100
      5 C05         3.6180   -0.0860    1.2440 c3        1 1WM      0.040500
      6 N06         4.1980    0.3060    2.5550 n4        1 1WM     -0.682800
      7 C07         4.1590    1.8480    2.7530 c         1 1WM      0.603700
      8 O08         3.4740    2.3970    1.8870 o         1 1WM     -0.548100
      9 C09         4.8810    2.3690    3.8640 ca        1 1WM     -0.269600
     10 C10         4.8540    3.7830    4.0290 ca        1 1WM     -0.030500
     11 C11         5.5160    4.3800    5.0790 ca        1 1WM     -0.149500
     12 C12         6.2360    3.6010    6.0190 ca        1 1WM      0.232000
     13 C13         6.8980    4.1940    7.0750 cg        1 1WM     -0.266000
     14 C14         7.4740    4.7220    8.0020 ch        1 1WM      0.203000
     15 C15         8.1070    5.3050    9.0230 ch        1 1WM     -0.208000
     16 C16         8.6780    5.8380    9.9490 cg        1 1WM      0.131000
     17 C17         9.3330    6.4510   11.0110 ca        1 1WM     -0.143000
     18 C18         9.2960    7.8540   11.1640 ca        1 1WM     -0.008500
     19 C19         9.9410    8.4710   12.2150 ca        1 1WM     -0.235500
     20 C20        10.6640    7.7020   13.1750 ca        1 1WM      0.264600
     21 N21        11.3060    8.3040   14.2160 nh        1 1WM     -0.854200
     22 C22        10.6970    6.2850   13.0140 ca        1 1WM     -0.235500
     23 C23        10.0460    5.6830   11.9570 ca        1 1WM     -0.008500
     24 C24         6.2610    2.1870    5.8510 ca        1 1WM     -0.149500
     25 C25         5.6020    1.5880    4.8030 ca        1 1WM     -0.030500
     26 C26         3.8440   -1.6020    0.8920 c3        1 1WM      0.227400
     27 O27         3.3850   -1.6710   -0.4500 oh        1 1WM     -0.659800
     28 C29         5.2730   -1.9660    1.0730 ca        1 1WM     -0.304300
     29 C30         6.2430   -1.5460    0.1520 ca        1 1WM     -0.068000
     30 C31         7.5680   -1.9350    0.2920 ca        1 1WM     -0.182000
     31 C32         7.9320   -2.7700    1.3660 ca        1 1WM      0.202100
     32 O33         9.2040   -3.1960    1.5860 oh        1 1WM     -0.453100
     33 C34         6.9600   -3.2080    2.2940 ca        1 1WM     -0.182000
     34 C35         5.6430   -2.8100    2.1350 ca        1 1WM     -0.068000
     35 H1         -0.1320    0.7530   -0.9910 ho        1 1WM      0.486000
     36 H2          1.9660   -0.1150   -0.8590 hn        1 1WM      0.492800
     37 H3          4.1500    0.5290    0.4510 hx        1 1WM      0.147700
     38 H4          3.6820   -0.1370    3.3240 hn        1 1WM      0.478800
     39 H5          4.2920    4.3970    3.3030 ha        1 1WM      0.142000
     40 H6          5.4890    5.4770    5.2000 ha        1 1WM      0.181000
     41 H7          8.7420    8.4640   10.4310 ha        1 1WM      0.142500
     42 H8          9.8970    9.5670   12.3120 ha        1 1WM      0.150000
     43 H9         11.2740    9.2870   14.3220 hn        1 1WM      0.445800
     44 H10        11.8010    7.7630   14.8790 hn        1 1WM      0.445800
     45 H11        11.2460    5.6640   13.7390 ha        1 1WM      0.150000
     46 H12        10.0810    4.5870   11.8490 ha        1 1WM      0.142500
     47 H13         6.8190    1.5770    6.5820 ha        1 1WM      0.181000
     48 H14         5.6470    0.4920    4.7210 ha        1 1WM      0.142000
     49 H15         3.1680   -2.2410    1.5320 h1        1 1WM      0.094700
     50 H16         3.8750   -2.3750   -0.9060 ho        1 1WM      0.487000
     51 H17         5.9510   -0.9140   -0.7030 ha        1 1WM      0.143000
     52 H18         8.3260   -1.6090   -0.4380 ha        1 1WM      0.180000
     53 H19         9.7770   -2.8970    0.8590 ho        1 1WM      0.453000
     54 H20         7.2640   -3.8770    3.1160 ha        1 1WM      0.180000
     55 H21         4.8790   -3.1890    2.8340 ha        1 1WM      0.143000
     56 H022        1.9120    1.5280   -0.3700 hn        1 1WM      0.492800
     57 H062        5.1740   -0.0280    2.5810 hn        1 1WM      0.478800
@<TRIPOS>BOND
     1    1    2 1   
     2    1   35 1   
     3    2    3 1   
     4    2   36 1   
     5    2   56 1   
     6    3    4 2   
     7    3    5 1   
     8    5    6 1   
     9    5   26 1   
    10    5   37 1   
    11    6    7 1   
    12    6   38 1   
    13    6   57 1   
    14    7    8 2   
    15    7    9 1   
    16    9   10 ar  
    17    9   25 ar  
    18   10   11 ar  
    19   10   39 1   
    20   11   12 ar  
    21   11   40 1   
    22   12   13 1   
    23   12   24 ar  
    24   13   14 3   
    25   14   15 1   
    26   15   16 3   
    27   16   17 1   
    28   17   18 ar  
    29   17   23 ar  
    30   18   19 ar  
    31   18   41 1   
    32   19   20 ar  
    33   19   42 1   
    34   20   21 1   
    35   20   22 ar  
    36   21   43 1   
    37   21   44 1   
    38   22   23 ar  
    39   22   45 1   
    40   23   46 1   
    41   24   25 ar  
    42   24   47 1   
    43   25   48 1   
    44   26   27 1   
    45   26   28 1   
    46   26   49 1   
    47   27   50 1   
    48   28   29 ar  
    49   28   34 ar  
    50   29   30 ar  
    51   29   51 1   
    52   30   31 ar  
    53   30   52 1   
    54   31   32 1   
    55   31   33 ar  
    56   32   53 1   
    57   33   34 ar  
    58   33   54 1   
    59   34   55 1   
@<TRIPOS>SUBSTRUCTURE
     1 1WM         1 TEMP              0 ****  ****    0 ROOT
