@<TRIPOS>MOLECULE
1WM
   58    60     1     0     0
SMALL
bcc


@<TRIPOS>ATOM
      1 O01         0.2960    0.5080   -0.3900 oh        1 1WM     -0.326300
      2 N02         1.6070    0.1810   -0.3830 n4        1 1WM     -0.429300
      3 C03         2.1670    0.0000    1.0120 c         1 1WM      0.524100
      4 O04         1.3650   -0.1330    1.9210 o         1 1WM     -0.382100
      5 C05         3.6860   -0.0550    1.1200 c3        1 1WM      0.031500
      6 N06         4.1530    0.2830    2.4950 n4        1 1WM     -0.684800
      7 C07         4.1510    1.8000    2.7930 c         1 1WM      0.599700
      8 O08         3.6800    2.4680    1.8810 o         1 1WM     -0.464100
      9 C09         4.6790    2.2130    4.0750 ca        1 1WM     -0.225600
     10 C10         4.6890    3.6050    4.3180 ca        1 1WM     -0.046000
     11 C11         5.1620    4.1040    5.5260 ca        1 1WM     -0.113500
     12 C12         5.6360    3.2280    6.5200 ca        1 1WM      0.155000
     13 C13         6.1030    3.7310    7.7420 cg        1 1WM     -0.132000
     14 C14         6.4970    4.1800    8.7870 ch        1 1WM      0.075000
     15 C15         6.9350    4.6930    9.9580 ch        1 1WM     -0.013000
     16 C16         7.3210    5.1590   10.9970 cg        1 1WM     -0.047000
     17 C17         7.7690    5.7100   12.2110 ca        1 1WM      0.072000
     18 C18         7.9550    7.0990   12.3300 ca        1 1WM     -0.076000
     19 C19         8.3960    7.6540   13.5280 ca        1 1WM     -0.095000
     20 C20         8.6540    6.8100   14.6230 ca        1 1WM     -0.054400
     21 N21         9.1080    7.3880   15.8890 n4        1 1WM     -0.705000
     22 C22         8.4760    5.4200   14.5180 ca        1 1WM     -0.095000
     23 C23         8.0340    4.8780   13.3140 ca        1 1WM     -0.076000
     24 C24         5.6300    1.8360    6.2720 ca        1 1WM     -0.113500
     25 C25         5.1600    1.3360    5.0680 ca        1 1WM     -0.046000
     26 C26         4.1550   -1.5030    0.6890 c3        1 1WM      0.234400
     27 O27         3.7090   -1.5980   -0.6520 oh        1 1WM     -0.663800
     28 C29         5.6240   -1.6320    0.8630 ca        1 1WM     -0.315300
     29 C30         6.5110   -1.0500   -0.0560 ca        1 1WM     -0.068000
     30 C31         7.8800   -1.2380    0.0670 ca        1 1WM     -0.180500
     31 C32         8.3780   -2.0300    1.1200 ca        1 1WM      0.210100
     32 O33         9.6990   -2.2650    1.3230 oh        1 1WM     -0.449100
     33 C34         7.4910   -2.6270    2.0470 ca        1 1WM     -0.180500
     34 C35         6.1290   -2.4310    1.9050 ca        1 1WM     -0.068000
     35 H1         -0.2120   -0.1300    0.1720 ho        1 1WM      0.494000
     36 H2          1.7810   -0.6900   -0.9420 hn        1 1WM      0.515800
     37 H3          4.1630    0.6880    0.4040 hx        1 1WM      0.163700
     38 H4          5.1220   -0.0760    2.5880 hn        1 1WM      0.484300
     39 H5          4.3160    4.3010    3.5450 ha        1 1WM      0.154000
     40 H6          5.1630    5.1940    5.7050 ha        1 1WM      0.184500
     41 H7          7.7510    7.7610   11.4700 ha        1 1WM      0.180500
     42 H8          8.5340    8.7470   13.5950 ha        1 1WM      0.170500
     43 H9          9.6910    6.7110   16.3960 hn        1 1WM      0.471467
     44 H10         9.6560    8.2390   15.7120 hn        1 1WM      0.471467
     45 H11         8.6770    4.7450   15.3670 ha        1 1WM      0.170500
     46 H12         7.8930    3.7870   13.2300 ha        1 1WM      0.180500
     47 H13         6.0030    1.1460    7.0480 ha        1 1WM      0.184500
     48 H14         5.1740    0.2450    4.9240 ha        1 1WM      0.154000
     49 H15         3.5940   -2.2670    1.3010 h1        1 1WM      0.091700
     50 H16         4.3380   -2.1430   -1.1540 ho        1 1WM      0.496000
     51 H17         6.1200   -0.4510   -0.8940 ha        1 1WM      0.143000
     52 H18         8.5730   -0.7890   -0.6640 ha        1 1WM      0.183500
     53 H19        10.2160   -1.8890    0.5880 ho        1 1WM      0.458000
     54 H20         7.9030   -3.2630    2.8500 ha        1 1WM      0.183500
     55 H21         5.4390   -2.9420    2.5960 ha        1 1WM      0.143000
     56 H022        2.0850    0.9800   -0.8590 hn        1 1WM      0.515800
     57 H062        3.5640   -0.1850    3.1960 hn        1 1WM      0.484300
     58 H213        8.2930    7.6290   16.4690 hn        1 1WM      0.471467
@<TRIPOS>BOND
     1    1    2 1   
     2    1   35 1   
     3    2    3 1   
     4    2   36 1   
     5    2   56 1   
     6    3    4 2   
     7    3    5 1   
     8    5    6 1   
     9    5   26 1   
    10    5   37 1   
    11    6    7 1   
    12    6   38 1   
    13    6   57 1   
    14    7    8 2   
    15    7    9 1   
    16    9   10 ar  
    17    9   25 ar  
    18   10   11 ar  
    19   10   39 1   
    20   11   12 ar  
    21   11   40 1   
    22   12   13 1   
    23   12   24 ar  
    24   13   14 3   
    25   14   15 1   
    26   15   16 3   
    27   16   17 1   
    28   17   18 ar  
    29   17   23 ar  
    30   18   19 ar  
    31   18   41 1   
    32   19   20 ar  
    33   19   42 1   
    34   20   21 1   
    35   20   22 ar  
    36   21   43 1   
    37   21   44 1   
    38   21   58 1   
    39   22   23 ar  
    40   22   45 1   
    41   23   46 1   
    42   24   25 ar  
    43   24   47 1   
    44   25   48 1   
    45   26   27 1   
    46   26   28 1   
    47   26   49 1   
    48   27   50 1   
    49   28   29 ar  
    50   28   34 ar  
    51   29   30 ar  
    52   29   51 1   
    53   30   31 ar  
    54   30   52 1   
    55   31   32 1   
    56   31   33 ar  
    57   32   53 1   
    58   33   34 ar  
    59   33   54 1   
    60   34   55 1   
@<TRIPOS>SUBSTRUCTURE
     1 1WM         1 TEMP              0 ****  ****    0 ROOT
