@<TRIPOS>MOLECULE
1WM
   55    45     1     0     0
SMALL
bcc


@<TRIPOS>ATOM
      1 O01        -5.3210   -0.9540   -1.9280 oh        1 1WM     -0.230000
      2 N02        -4.5310   -1.7810   -2.7090 n         1 1WM     -0.203000
      3 C03        -3.4370   -2.4630   -2.1300 c2        1 1WM      0.236000
      4 O04        -3.4710   -2.7820   -0.9350 o         1 1WM     -0.354000
      5 C05        -2.1740   -2.7090   -2.9480 c3        1 1WM     -0.023000
      6 N06        -1.0630   -2.1270   -2.2940 n3        1 1WM     -0.370000
      7 C07        -0.8740   -0.7250   -2.3340 c1        1 1WM      0.355000
      8 O08        -1.1160   -0.1070   -3.3570 o         1 1WM     -0.384000
      9 C09        -0.2300    0.0130   -1.1040 c1        1 1WM     -0.022667
     10 C10        -0.9360    0.1260    0.0830 c1        1 1WM     -0.120667
     11 C11        -0.4080    0.8470    1.1320 c1        1 1WM     -0.116000
     12 C12         0.8340    1.4620    0.9990 c1        1 1WM      0.060000
     13 C13         1.4180    2.2510    2.1600 c1        1 1WM     -0.057750
     14 C14         1.8750    2.8770    3.0840 c1        1 1WM     -0.057750
     15 C15         2.4580    3.6800    4.2690 c1        1 1WM     -0.057750
     16 C16         2.9170    4.3140    5.2040 c1        1 1WM     -0.057750
     17 C17         3.4900    5.1020    6.3700 c1        1 1WM     -0.022667
     18 C18         4.1600    4.4350    7.4000 c1        1 1WM     -0.130000
     19 C19         4.7000    5.1560    8.4550 c1        1 1WM     -0.130000
     20 C20         4.5770    6.5330    8.4860 c1        1 1WM     -0.022667
     21 N21         5.1120    7.2430    9.5220 n2        1 1WM     -0.337000
     22 C22         3.9090    7.1990    7.4580 c1        1 1WM     -0.120667
     23 C23         3.3680    6.4790    6.4030 c1        1 1WM     -0.120667
     24 C24         1.5360    1.3480   -0.1850 c2        1 1WM     -0.117000
     25 C25         1.0050    0.6240   -1.2370 c1        1 1WM     -0.078000
     26 C26        -1.9510   -4.2120   -3.0880 c3        1 1WM      0.088000
     27 O27        -3.0000   -4.9040   -2.4350 oh        1 1WM     -0.327000
     28 C29        -1.9330   -4.5850   -4.5380 c2        1 1WM     -0.161000
     29 C30        -0.7860   -5.1660   -5.0990 c2        1 1WM     -0.080000
     30 C31        -0.7720   -5.5170   -6.4380 c1        1 1WM     -0.216000
     31 C32        -1.8880   -5.2970   -7.2250 c1        1 1WM      0.089000
     32 O33        -1.8350   -5.5560   -8.5880 oh        1 1WM     -0.248000
     33 C34        -3.0320   -4.7180   -6.6690 c1        1 1WM     -0.156000
     34 C35        -3.0500   -4.3640   -5.3260 c1        1 1WM     -0.068000
     35 H1         -5.5980   -0.2590   -2.4150 ho        1 1WM      0.229000
     36 H2         -4.7610   -1.9420   -3.5740 hn        1 1WM      0.251000
     37 H3         -2.2790   -2.2990   -3.8580 h1        1 1WM      0.140000
     38 H4         -0.4190   -2.6560   -1.9490 hn        1 1WM      0.247000
     39 H5         -1.8070   -0.3060    0.1760 ha        1 1WM      0.138667
     40 H6         -0.9090    0.9280    1.9750 ha        1 1WM      0.148000
     41 H7          4.2500    3.4240    7.3770 ha        1 1WM      0.138000
     42 H8          5.1700    4.6900    9.1780 ha        1 1WM      0.138000
     43 H9          5.5010    6.8070   10.2190 hn        1 1WM      0.196000
     44 H10         5.0510    8.1500    9.5310 hn        1 1WM      0.196000
     45 H11         3.8230    8.1640    7.4820 ha        1 1WM      0.138667
     46 H12         2.9010    6.9450    5.6840 ha        1 1WM      0.138667
     47 H13         2.3920    1.7710   -0.2790 ha        1 1WM      0.149000
     48 H14         1.5020    0.5430   -2.0730 ha        1 1WM      0.158000
     49 H15        -1.0900   -4.4570   -2.6760 h1        1 1WM      0.126000
     50 H16        -3.6910   -5.0480   -3.0280 ho        1 1WM      0.230000
     51 H17         0.0150   -5.3250   -4.5370 ha        1 1WM      0.133000
     52 H18         0.0220   -5.9190   -6.8260 ha        1 1WM      0.136000
     53 H19        -1.9420   -6.4220   -8.7270 ho        1 1WM      0.219000
     54 H20        -3.8030   -4.5670   -7.2150 ha        1 1WM      0.155000
     55 H21        -3.8810   -3.9440   -4.9230 ha        1 1WM      0.154000
@<TRIPOS>BOND
     1    1    2 1   
     2    1   35 1   
     3    2    3 1   
     4    2   36 1   
     5    3    4 1   
     6    3    5 1   
     7    5    6 1   
     8    5   26 1   
     9    5   37 1   
    10    6    7 1   
    11    6   38 1   
    12    7    8 1   
    13    9   10 1   
    14   10   39 1   
    15   11   12 1   
    16   11   40 1   
    17   12   24 1   
    18   13   14 1   
    19   15   16 1   
    20   17   23 1   
    21   18   19 1   
    22   18   41 1   
    23   19   42 1   
    24   20   22 1   
    25   21   43 1   
    26   21   44 1   
    27   22   45 1   
    28   23   46 1   
    29   24   25 1   
    30   24   47 1   
    31   25   48 1   
    32   26   27 1   
    33   26   28 1   
    34   26   49 1   
    35   27   50 1   
    36   28   29 1   
    37   28   34 1   
    38   29   30 1   
    39   29   51 1   
    40   30   52 1   
    41   31   32 1   
    42   31   33 1   
    43   32   53 1   
    44   33   54 1   
    45   34   55 1   
@<TRIPOS>SUBSTRUCTURE
     1 1WM         1 TEMP              0 ****  ****    0 ROOT
