@<TRIPOS>MOLECULE
1WM
   57    59     1     0     0
SMALL
bcc


@<TRIPOS>ATOM
      1 O01         0.2800    0.5900   -0.1570 oh        1 1WM     -0.334300
      2 N02         1.6330    0.6090   -0.2130 ny        1 1WM     -0.441300
      3 C03         2.1510    0.3170    1.1920 c         1 1WM      0.557100
      4 O04         1.3740    0.3080    2.1240 o         1 1WM     -0.332100
      5 C05         3.6500    0.0210    1.2360 c3        1 1WM      0.040500
      6 N06         4.2410    0.5000    2.5130 ny        1 1WM     -0.682800
      7 C07         4.2400    2.0530    2.5920 c         1 1WM      0.603700
      8 O08         3.5670    2.5490    1.6860 o         1 1WM     -0.548100
      9 C09         4.9760    2.6400    3.6600 ca        1 1WM     -0.269600
     10 C10         4.9830    4.0620    3.7160 ca        1 1WM     -0.030500
     11 C11         5.6600    4.7230    4.7180 ca        1 1WM     -0.149500
     12 C12         6.3610    4.0010    5.7150 ca        1 1WM      0.232000
     13 C13         7.0380    4.6570    6.7240 cg        1 1WM     -0.266000
     14 C14         7.6270    5.2410    7.6090 ch        1 1WM      0.203000
     15 C15         8.2740    5.8850    8.5830 ch        1 1WM     -0.208000
     16 C16         8.8580    6.4730    9.4670 cg        1 1WM      0.131000
     17 C17         9.5270    7.1500   10.4800 ca        1 1WM     -0.143000
     18 C18         9.5240    8.5610   10.5240 ca        1 1WM     -0.008500
     19 C19        10.1840    9.2410   11.5270 ca        1 1WM     -0.235500
     20 C20        10.8880    8.5310   12.5440 ca        1 1WM      0.264600
     21 N21        11.5440    9.1950   13.5370 nv        1 1WM     -0.854200
     22 C22        10.8870    7.1050   12.4920 ca        1 1WM     -0.235500
     23 C23        10.2220    6.4400   11.4830 ca        1 1WM     -0.008500
     24 C24         6.3520    2.5780    5.6570 ca        1 1WM     -0.149500
     25 C25         5.6780    1.9160    4.6570 ca        1 1WM     -0.030500
     26 C26         3.8380   -1.5220    1.0030 c3        1 1WM      0.227400
     27 O27         3.3760   -1.6840   -0.3300 oh        1 1WM     -0.659800
     28 C29         5.2590   -1.9050    1.2120 ca        1 1WM     -0.304300
     29 C30         6.2370   -1.5810    0.2610 ca        1 1WM     -0.068000
     30 C31         7.5530   -1.9900    0.4310 ca        1 1WM     -0.182000
     31 C32         7.8980   -2.7470    1.5660 ca        1 1WM      0.202100
     32 O33         9.1600   -3.1860    1.8190 oh        1 1WM     -0.453100
     33 C34         6.9180   -3.0890    2.5250 ca        1 1WM     -0.182000
     34 C35         5.6110   -2.6740    2.3350 ca        1 1WM     -0.068000
     35 H1         -0.0820    0.7760   -1.0570 ho        1 1WM      0.486000
     36 H2          1.9940   -0.1300   -0.8580 hn        1 1WM      0.492800
     37 H3          4.1950    0.5610    0.3990 hx        1 1WM      0.147700
     38 H4          5.2090    0.1450    2.5660 hn        1 1WM      0.478800
     39 H5          4.4360    4.6320    2.9440 ha        1 1WM      0.142000
     40 H6          5.6600    5.8260    4.7540 ha        1 1WM      0.181000
     41 H7          8.9850    9.1260    9.7470 ha        1 1WM      0.142500
     42 H8         10.1660   10.3420   11.5400 ha        1 1WM      0.150000
     43 H9         11.5360   10.1840   13.5680 hn        1 1WM      0.445800
     44 H10        12.0260    8.6950   14.2410 hn        1 1WM      0.445800
     45 H11        11.4210    6.5280   13.2630 ha        1 1WM      0.150000
     46 H12        10.2310    5.3380   11.4590 ha        1 1WM      0.142500
     47 H13         6.8950    2.0130    6.4340 ha        1 1WM      0.181000
     48 H14         5.6960    0.8160    4.6610 ha        1 1WM      0.142000
     49 H15         3.1480   -2.0930    1.6900 h1        1 1WM      0.094700
     50 H16         3.8480   -2.4320   -0.7300 ho        1 1WM      0.487000
     51 H17         5.9590   -1.0100   -0.6400 ha        1 1WM      0.143000
     52 H18         8.3170   -1.7400   -0.3230 ha        1 1WM      0.180000
     53 H19         9.7390   -2.9580    1.0710 ho        1 1WM      0.453000
     54 H20         7.2080   -3.7000    3.3960 ha        1 1WM      0.180000
     55 H21         4.8390   -2.9780    3.0620 ha        1 1WM      0.143000
     56 H022        1.9810    1.5460   -0.4980 hn        1 1WM      0.492800
     57 H062        3.7160    0.1300    3.3140 hn        1 1WM      0.478800
@<TRIPOS>BOND
     1    1    2 1   
     2    1   35 1   
     3    2    3 1   
     4    2   36 1   
     5    2   56 1   
     6    3    4 2   
     7    3    5 1   
     8    5    6 1   
     9    5   26 1   
    10    5   37 1   
    11    6    7 1   
    12    6   38 1   
    13    6   57 1   
    14    7    8 2   
    15    7    9 1   
    16    9   10 ar  
    17    9   25 ar  
    18   10   11 ar  
    19   10   39 1   
    20   11   12 ar  
    21   11   40 1   
    22   12   13 1   
    23   12   24 ar  
    24   13   14 3   
    25   14   15 1   
    26   15   16 3   
    27   16   17 1   
    28   17   18 ar  
    29   17   23 ar  
    30   18   19 ar  
    31   18   41 1   
    32   19   20 ar  
    33   19   42 1   
    34   20   21 1   
    35   20   22 ar  
    36   21   43 1   
    37   21   44 1   
    38   22   23 ar  
    39   22   45 1   
    40   23   46 1   
    41   24   25 ar  
    42   24   47 1   
    43   25   48 1   
    44   26   27 1   
    45   26   28 1   
    46   26   49 1   
    47   27   50 1   
    48   28   29 ar  
    49   28   34 ar  
    50   29   30 ar  
    51   29   51 1   
    52   30   31 ar  
    53   30   52 1   
    54   31   32 1   
    55   31   33 ar  
    56   32   53 1   
    57   33   34 ar  
    58   33   54 1   
    59   34   55 1   
@<TRIPOS>SUBSTRUCTURE
     1 1WM         1 TEMP              0 ****  ****    0 ROOT
