@<TRIPOS>MOLECULE
1WN
   60    63     1     0     0
SMALL
bcc


@<TRIPOS>ATOM
      1 O01         0.0000    0.0000    0.0000 oh        1 1WN     -0.209000
      2 N02         1.4160    0.0000    0.0000 ny        1 1WN      0.271000
      3 C03         2.0900    0.0000    1.1660 c2        1 1WN      0.139000
      4 O04         1.4870    0.0940    2.2150 o         1 1WN     -0.151000
      5 C05         3.5930   -0.1170    1.1690 c3        1 1WN     -0.205000
      6 N06         4.1310    0.5380    2.3640 ny        1 1WN      0.451000
      7 C07         4.3630    1.8660    2.3590 c3        1 1WN      0.203000
      8 O08         4.1250    2.5200    1.3630 o         1 1WN     -0.329000
      9 C09         4.9050    2.5240    3.5630 ca        1 1WN     -0.195000
     10 C10         5.1830    1.7690    4.7070 ca        1 1WN     -0.047500
     11 C11         5.6850    2.3770    5.8220 ca        1 1WN     -0.122500
     12 C12         5.9210    3.7590    5.8190 ca        1 1WN      0.220000
     13 C13         6.4480    4.3970    6.9870 c1        1 1WN     -0.254000
     14 C14         6.8900    4.9340    7.9340 c1        1 1WN      0.172000
     15 C15         7.1390    5.1770    9.5490 c1        1 1WN     -0.095000
     16 C16         7.5650    5.6670   10.5290 c1        1 1WN     -0.009000
     17 C17         7.8690    5.8610   11.9680 ca        1 1WN     -0.004000
     18 C18         8.5950    4.8320   12.6030 ca        1 1WN     -0.035000
     19 C19         9.0380    5.1240   13.9100 ca        1 1WN     -0.135000
     20 C20         8.9290    6.7380   14.2910 ca        1 1WN     -0.049000
     21 N21         9.3250    7.1530   15.6730 nv        1 1WN      0.060000
     22 C22         8.2310    7.7840   13.5760 ca        1 1WN     -0.135000
     23 C23         7.8760    7.1440   12.3890 ca        1 1WN     -0.035000
     24 C24         5.6430    4.5130    4.6720 ca        1 1WN     -0.122500
     25 C25         5.1460    3.9020    3.5570 ca        1 1WN     -0.047500
     26 C26         3.9890   -1.5940    1.1740 c3        1 1WN      0.203000
     27 O27         3.4110   -2.2390    2.3100 oh        1 1WN     -0.371000
     28 C28         5.5130   -1.7130    1.2400 c3        1 1WN     -0.177000
     29 C29         3.4890   -2.2530   -0.0860 ca        1 1WN     -0.262000
     30 C30         2.5910   -3.3020   -0.0060 ca        1 1WN     -0.059500
     31 C31         2.1310   -3.9070   -1.1590 ca        1 1WN     -0.170000
     32 C32         2.5690   -3.4620   -2.3980 ca        1 1WN      0.254000
     33 O33         2.1170   -4.0560   -3.5340 oh        1 1WN     -0.405000
     34 C34         3.4700   -2.4090   -2.4740 ca        1 1WN     -0.170000
     35 C35         3.9230   -1.8030   -1.3190 ca        1 1WN     -0.059500
     36 H1         -0.3490   -0.1830   -0.8570 ho        1 1WN      0.273000
     37 H2          1.6750    0.7570   -0.6020 hn        1 1WN      0.234000
     38 H3          3.9940    0.3620    0.2840 hx        1 1WN      0.144000
     39 H4          4.8080   -0.0120    2.8540 hn        1 1WN      0.170000
     40 H5          4.9970    0.7560    5.0430 ha        1 1WN      0.149500
     41 H6          6.1660    1.8130    6.6120 ha        1 1WN      0.145500
     42 H7          8.8650    3.7950   12.4460 ha        1 1WN      0.104500
     43 H8          9.7050    4.6740   14.6360 ha        1 1WN      0.144500
     44 H9          9.8300    6.5600   16.3020 hn        1 1WN      0.069000
     45 H10         8.9740    8.0070   16.0580 hn        1 1WN      0.069000
     46 H11         8.1170    8.8010   13.9330 ha        1 1WN      0.144500
     47 H12         7.2300    7.6750   11.7000 ha        1 1WN      0.104500
     48 H13         5.4590    5.5740    4.7970 ha        1 1WN      0.145500
     49 H14         5.1930    4.7760    2.9200 ha        1 1WN      0.149500
     50 H15         3.2750   -3.1720    2.2980 ho        1 1WN      0.279000
     51 H16         6.0120   -1.1080    1.9870 hc        1 1WN      0.085333
     52 H17         5.5370   -2.7930    1.3200 hc        1 1WN      0.085333
     53 H18         6.0660   -1.5530    0.3210 hc        1 1WN      0.085333
     54 H19         2.2320   -3.2220    1.0130 ha        1 1WN      0.118000
     55 H20         1.3560   -4.5180   -1.6070 ha        1 1WN      0.153500
     56 H21         1.5080   -4.0590   -4.2540 ho        1 1WN      0.330000
     57 H22         3.9720   -1.9220   -3.3020 ha        1 1WN      0.153500
     58 H23         3.9490   -0.8470   -1.8290 ha        1 1WN      0.118000
     59 H022        1.6420    0.8990   -0.3780 hn        1 1WN      0.234000
     60 H062        3.5110    1.3180    2.4610 DU        1 1WN      0.191000
@<TRIPOS>BOND
     1    1    2 1   
     2    1   36 1   
     3    2    3 1   
     4    2   37 1   
     5    2   59 1   
     6    3    4 1   
     7    3    5 1   
     8    5    6 1   
     9    5   26 1   
    10    5   38 1   
    11    6    7 1   
    12    6   39 1   
    13    6   60 1   
    14    7    8 1   
    15    7    9 1   
    16    7   60 1   
    17    9   10 1   
    18    9   25 1   
    19   10   11 1   
    20   10   40 1   
    21   11   12 1   
    22   11   41 1   
    23   12   13 1   
    24   12   24 1   
    25   13   14 1   
    26   14   15 1   
    27   15   16 1   
    28   16   17 1   
    29   17   18 1   
    30   17   23 1   
    31   18   19 1   
    32   18   42 1   
    33   19   20 1   
    34   19   43 1   
    35   20   21 1   
    36   20   22 1   
    37   21   44 1   
    38   21   45 1   
    39   22   23 1   
    40   22   46 1   
    41   23   47 1   
    42   24   25 1   
    43   24   48 1   
    44   25   49 1   
    45   26   27 1   
    46   26   28 1   
    47   26   29 1   
    48   27   50 1   
    49   28   51 1   
    50   28   52 1   
    51   28   53 1   
    52   29   30 1   
    53   29   35 1   
    54   30   31 1   
    55   30   54 1   
    56   31   32 1   
    57   31   55 1   
    58   32   33 1   
    59   32   34 1   
    60   33   56 1   
    61   34   35 1   
    62   34   57 1   
    63   35   58 1   
@<TRIPOS>SUBSTRUCTURE
     1 1WN         1 TEMP              0 ****  ****    0 ROOT
