@<TRIPOS>MOLECULE
1WN
   58    60     1     0     0
SMALL
bcc


@<TRIPOS>ATOM
      1 O01        -4.7870   -3.5040   -0.9300 oh        1 1WN     -0.431100
      2 N02        -4.7140   -2.4770   -0.0820 n         1 1WN     -0.354400
      3 C03        -4.5130   -1.2080   -0.6850 c         1 1WN      0.586100
      4 O04        -4.8100   -0.9990   -1.8730 o         1 1WN     -0.582100
      5 C05        -4.0050   -0.0860    0.2510 c3        1 1WN      0.009700
      6 N06        -2.5720    0.0070    0.1580 n         1 1WN     -0.561900
      7 C07        -1.7420   -0.8740    0.8220 c         1 1WN      0.679700
      8 O08        -2.2290   -1.8040    1.5040 o         1 1WN     -0.627100
      9 C09        -0.2720   -0.6820    0.6890 ca        1 1WN     -0.139600
     10 C10         0.3050    0.5850    0.5610 ca        1 1WN     -0.088500
     11 C11         1.6870    0.7140    0.4520 ca        1 1WN     -0.117500
     12 C12         2.5090   -0.4260    0.4670 ca        1 1WN      0.058000
     13 C13         3.9020   -0.2960    0.3500 cg        1 1WN     -0.107000
     14 C14         5.0950   -0.1850    0.2500 ch        1 1WN     -0.003000
     15 C15         6.4340   -0.0610    0.1370 ch        1 1WN     -0.073000
     16 C16         7.6270    0.0490    0.0370 cg        1 1WN     -0.039000
     17 C17         9.0180    0.1770   -0.0800 ca        1 1WN     -0.044000
     18 C18         9.6030    1.4360   -0.3000 ca        1 1WN     -0.056000
     19 C19        10.9780    1.5680   -0.4200 ca        1 1WN     -0.203500
     20 C20        11.8230    0.4360   -0.3130 ca        1 1WN      0.169600
     21 N21        13.2080    0.5750   -0.3430 nh        1 1WN     -0.828200
     22 C22        11.2260   -0.8310   -0.0980 ca        1 1WN     -0.203500
     23 C23         9.8500   -0.9510    0.0200 ca        1 1WN     -0.056000
     24 C24         1.9230   -1.6970    0.6050 ca        1 1WN     -0.117500
     25 C25         0.5420   -1.8210    0.7190 ca        1 1WN     -0.088500
     26 C26        -4.7050    1.2750   -0.0840 c3        1 1WN      0.219100
     27 O27        -4.2810    1.7300   -1.3610 oh        1 1WN     -0.607800
     28 C28        -4.2420    2.3520    0.9010 c3        1 1WN     -0.084100
     29 C29        -6.2010    1.1170    0.0160 ca        1 1WN     -0.160300
     30 C30        -7.0320    1.4680   -1.0520 ca        1 1WN     -0.073500
     31 C31        -8.4160    1.3520   -0.9470 ca        1 1WN     -0.185000
     32 C32        -8.9760    0.8830    0.2490 ca        1 1WN      0.133100
     33 O33       -10.3320    0.7390    0.4300 oh        1 1WN     -0.495100
     34 C34        -8.1570    0.5390    1.3370 ca        1 1WN     -0.185000
     35 C35        -6.7790    0.6630    1.2110 ca        1 1WN     -0.073500
     36 H1         -5.6670   -3.4400   -1.3520 ho        1 1WN      0.429000
     37 H2         -4.0220   -2.6980    0.6320 hn        1 1WN      0.336500
     38 H3         -4.2740   -0.3510    1.3200 h1        1 1WN      0.096700
     39 H4         -2.2040    0.6690   -0.4870 hn        1 1WN      0.337500
     40 H5         -0.3180    1.4930    0.5620 ha        1 1WN      0.150000
     41 H6          2.1400    1.7120    0.3530 ha        1 1WN      0.149000
     42 H7          8.9610    2.3270   -0.3800 ha        1 1WN      0.140000
     43 H8         11.4110    2.5650   -0.5890 ha        1 1WN      0.136000
     44 H9         13.5460    1.3980   -0.7860 hn        1 1WN      0.400800
     45 H10        13.7160   -0.2500   -0.5640 hn        1 1WN      0.400800
     46 H11        11.8550   -1.7300   -0.0130 ha        1 1WN      0.136000
     47 H12         9.4020   -1.9420    0.1920 ha        1 1WN      0.140000
     48 H13         2.5610   -2.5940    0.6250 ha        1 1WN      0.149000
     49 H14         0.0790   -2.8140    0.8440 ha        1 1WN      0.150000
     50 H15        -4.5780    1.0840   -2.0200 ho        1 1WN      0.435000
     51 H16        -3.1720    2.6120    0.7200 hc        1 1WN      0.051367
     52 H17        -4.8550    3.2740    0.7570 hc        1 1WN      0.051367
     53 H18        -4.3660    1.9860    1.9470 hc        1 1WN      0.051367
     54 H19        -6.5950    1.8470   -1.9900 ha        1 1WN      0.140500
     55 H20        -9.0610    1.6250   -1.7940 ha        1 1WN      0.145500
     56 H21       -10.7730    1.0000   -0.3920 ho        1 1WN      0.421000
     57 H22        -8.6150    0.1780    2.2690 ha        1 1WN      0.145500
     58 H23        -6.1400    0.4030    2.0700 ha        1 1WN      0.140500
@<TRIPOS>BOND
     1    1    2 1   
     2    1   36 1   
     3    2    3 1   
     4    2   37 1   
     5    3    4 2   
     6    3    5 1   
     7    5    6 1   
     8    5   26 1   
     9    5   38 1   
    10    6    7 1   
    11    6   39 1   
    12    7    8 2   
    13    7    9 1   
    14    9   10 ar  
    15    9   25 ar  
    16   10   11 ar  
    17   10   40 1   
    18   11   12 ar  
    19   11   41 1   
    20   12   13 1   
    21   12   24 ar  
    22   13   14 3   
    23   14   15 1   
    24   15   16 3   
    25   16   17 1   
    26   17   18 ar  
    27   17   23 ar  
    28   18   19 ar  
    29   18   42 1   
    30   19   20 ar  
    31   19   43 1   
    32   20   21 1   
    33   20   22 ar  
    34   21   44 1   
    35   21   45 1   
    36   22   23 ar  
    37   22   46 1   
    38   23   47 1   
    39   24   25 ar  
    40   24   48 1   
    41   25   49 1   
    42   26   27 1   
    43   26   28 1   
    44   26   29 1   
    45   27   50 1   
    46   28   51 1   
    47   28   52 1   
    48   28   53 1   
    49   29   30 ar  
    50   29   35 ar  
    51   30   31 ar  
    52   30   54 1   
    53   31   32 ar  
    54   31   55 1   
    55   32   33 1   
    56   32   34 ar  
    57   33   56 1   
    58   34   35 ar  
    59   34   57 1   
    60   35   58 1   
@<TRIPOS>SUBSTRUCTURE
     1 1WN         1 TEMP              0 ****  ****    0 ROOT
