@<TRIPOS>MOLECULE
1WN
   58    48     1     0     0
SMALL
bcc


@<TRIPOS>ATOM
      1 O01         3.2970    4.4470   -3.8990 oh        1 1WN     -0.241000
      2 N02         2.6390    3.7670   -4.9020 n3        1 1WN     -0.198000
      3 C03         2.1300    2.4390   -4.6590 c1        1 1WN      0.245000
      4 O04         1.2040    2.0260   -5.3050 o         1 1WN     -0.348000
      5 C05         2.6200    1.6520   -3.4490 c2        1 1WN     -0.012000
      6 N06         1.5190    1.0850   -2.7790 n         1 1WN     -0.358000
      7 C07         0.5570    1.9360   -2.1140 c2        1 1WN      0.363000
      8 O08         0.5520    3.1230   -2.3330 o         1 1WN     -0.389000
      9 C09        -0.3920    1.3450   -1.0590 c2        1 1WN     -0.113000
     10 C10        -1.6560    0.9020   -1.4310 c1        1 1WN     -0.078000
     11 C11        -2.5080    0.3510   -0.4790 c1        1 1WN     -0.116000
     12 C12        -2.0950    0.2440    0.8350 c1        1 1WN      0.056000
     13 C13        -3.0340   -0.3590    1.8890 c1        1 1WN     -0.107000
     14 C14        -3.7800   -0.8390    2.7300 c1        1 1WN     -0.009000
     15 C15        -4.7280   -1.4390    3.8010 c1        1 1WN     -0.058500
     16 C16        -5.4550   -1.8970    4.6240 c1        1 1WN     -0.058500
     17 C17        -6.3660   -2.4660    5.6580 c1        1 1WN      0.024000
     18 C18        -6.1820   -2.1430    6.9860 c1        1 1WN     -0.138750
     19 C19        -6.9580   -2.7380    7.9540 c1        1 1WN     -0.138750
     20 C20        -7.9160   -3.6560    7.5970 c1        1 1WN      0.086000
     21 N21        -8.6670   -4.2890    8.5770 n3        1 1WN     -0.337000
     22 C22        -8.1020   -3.9810    6.2680 c1        1 1WN     -0.203000
     23 C23        -7.3270   -3.3860    5.3000 c1        1 1WN     -0.111500
     24 C24        -0.8240    0.6900    1.2080 c1        1 1WN     -0.115000
     25 C25         0.0210    1.2370    0.2620 c2        1 1WN     -0.104000
     26 C26         3.5760    0.5190   -3.9140 c3        1 1WN      0.134000
     27 O27         2.9250   -0.7630   -3.7320 oh        1 1WN     -0.338000
     28 C28         3.9150    0.7050   -5.3590 c3        1 1WN     -0.248000
     29 C29         4.8290    0.5570   -3.0990 c1        1 1WN     -0.124000
     30 C30         5.9990    1.0910   -3.6440 c1        1 1WN     -0.138750
     31 C31         7.1930    1.0510   -2.9160 c1        1 1WN     -0.138750
     32 C32         7.2130    0.4750   -1.6400 c1        1 1WN      0.024000
     33 O33         8.3950    0.3680   -0.9570 o         1 1WN     -0.250000
     34 C34         6.0390   -0.0600   -1.0930 c1        1 1WN     -0.111500
     35 C35         4.8510   -0.0190   -1.8200 c1        1 1WN     -0.071000
     36 H1          3.4420    5.2980   -4.1580 ho        1 1WN      0.245000
     37 H2          2.5420    4.1570   -5.7430 hn        1 1WN      0.220000
     38 H3          3.1030    2.2600   -2.8360 h4        1 1WN      0.141000
     39 H4          1.3850    0.1620   -2.8010 hn        1 1WN      0.248000
     40 H5         -1.9520    0.9790   -2.3760 ha        1 1WN      0.158000
     41 H6         -3.3840    0.0450   -0.7360 ha        1 1WN      0.149000
     42 H7         -5.5110   -1.5000    7.2370 ha        1 1WN      0.137250
     43 H8         -6.8230   -2.5020    8.9230 ha        1 1WN      0.137250
     44 H9         -9.2560   -4.9360    8.3470 hn        1 1WN      0.195000
     45 H10        -8.5730   -4.0430    9.4600 hn        1 1WN      0.195000
     46 H11        -8.7990   -4.6480    6.0100 ha        1 1WN      0.136000
     47 H12        -7.4560   -3.6120    4.3760 ha        1 1WN      0.146000
     48 H13        -0.5340    0.6150    2.1340 ha        1 1WN      0.148000
     49 H14         0.9220    1.5540    0.5270 ha        1 1WN      0.144000
     50 H15         2.8250   -1.1700   -4.5380 ho        1 1WN      0.236000
     51 H16         4.2360    1.6310   -5.5060 hc        1 1WN      0.096667
     52 H17         3.1270    0.5460   -5.8990 hc        1 1WN      0.096667
     53 H18         4.6370    0.0560   -5.6190 hc        1 1WN      0.096667
     54 H19         5.9850    1.4820   -4.5110 ha        1 1WN      0.137250
     55 H20         8.0090    1.4230   -3.2960 ha        1 1WN      0.137250
     56 H21         8.5090    1.0800   -0.4530 ho        1 1WN      0.220000
     57 H22         6.0530   -0.4580   -0.2120 ha        1 1WN      0.146000
     58 H23         4.0280   -0.3950   -1.4370 ha        1 1WN      0.158000
@<TRIPOS>BOND
     1    1    2 1   
     2    1   36 1   
     3    2    3 1   
     4    2   37 1   
     5    3    4 1   
     6    5    6 1   
     7    5   26 1   
     8    5   38 1   
     9    6    7 1   
    10    6   39 1   
    11    7    8 1   
    12    7    9 1   
    13    9   10 1   
    14    9   25 1   
    15   10   40 1   
    16   11   12 1   
    17   11   41 1   
    18   12   13 1   
    19   13   14 1   
    20   15   16 1   
    21   17   23 1   
    22   18   19 1   
    23   18   42 1   
    24   19   43 1   
    25   20   21 1   
    26   20   22 1   
    27   21   44 1   
    28   21   45 1   
    29   22   46 1   
    30   23   47 1   
    31   24   25 1   
    32   24   48 1   
    33   25   49 1   
    34   26   27 1   
    35   26   28 1   
    36   26   29 1   
    37   27   50 1   
    38   28   51 1   
    39   28   52 1   
    40   28   53 1   
    41   29   35 1   
    42   30   31 1   
    43   30   54 1   
    44   31   55 1   
    45   32   34 1   
    46   33   56 1   
    47   34   57 1   
    48   35   58 1   
@<TRIPOS>SUBSTRUCTURE
     1 1WN         1 TEMP              0 ****  ****    0 ROOT
