@<TRIPOS>MOLECULE
1WN
   61    63     1     0     0
SMALL
bcc


@<TRIPOS>ATOM
      1 O01        -0.1190    0.1150    0.0540 oh        1 1WN     -0.332300
      2 N02         1.0160   -0.5600    0.3320 n4        1 1WN     -0.429300
      3 C03         1.8450    0.0830    1.4170 c         1 1WN      0.537100
      4 O04         1.2520    0.7860    2.2190 o         1 1WN     -0.391100
      5 C05         3.3410   -0.2430    1.4100 c3        1 1WN      0.057500
      6 N06         3.9790    0.2780    2.6580 n4        1 1WN     -0.690800
      7 C07         4.2930    1.7950    2.6250 c         1 1WN      0.594700
      8 O08         3.9910    2.3330    1.5700 o         1 1WN     -0.443100
      9 C09         4.8950    2.3540    3.8190 ca        1 1WN     -0.223600
     10 C10         5.1810    1.6310    4.9930 ca        1 1WN     -0.049000
     11 C11         5.7560    2.2660    6.0820 ca        1 1WN     -0.111500
     12 C12         6.0640    3.6450    6.0300 ca        1 1WN      0.150000
     13 C13         6.6470    4.2860    7.1320 cg        1 1WN     -0.129000
     14 C14         7.1460    4.8520    8.0690 ch        1 1WN      0.071000
     15 C15         7.7070    5.4970    9.1160 ch        1 1WN     -0.010000
     16 C16         8.2060    6.0800   10.0420 cg        1 1WN     -0.050000
     17 C17         8.7900    6.7670   11.1210 ca        1 1WN      0.073000
     18 C18         9.0970    6.0870   12.3130 ca        1 1WN     -0.076500
     19 C19         9.6740    6.7630   13.3850 ca        1 1WN     -0.095000
     20 C20         9.9480    8.1360   13.2640 ca        1 1WN     -0.055400
     21 N21        10.5640    8.8520   14.3820 n4        1 1WN     -0.704000
     22 C22         9.6460    8.8300   12.0790 ca        1 1WN     -0.095000
     23 C23         9.0690    8.1410   11.0150 ca        1 1WN     -0.076500
     24 C24         5.7790    4.3670    4.8570 ca        1 1WN     -0.111500
     25 C25         5.2010    3.7330    3.7640 ca        1 1WN     -0.049000
     26 C26         3.5390   -1.7970    1.2020 c3        1 1WN      0.227100
     27 O27         2.5300   -2.3440    2.0470 oh        1 1WN     -0.657800
     28 C28         4.9230   -2.2740    1.6220 c3        1 1WN     -0.159100
     29 C29         3.2980   -2.1210   -0.2460 ca        1 1WN     -0.313300
     30 C30         2.3410   -3.0890   -0.6090 ca        1 1WN     -0.089000
     31 C31         2.1920   -3.4870   -1.9250 ca        1 1WN     -0.175500
     32 C32         3.0300   -2.9250   -2.9190 ca        1 1WN      0.209100
     33 O33         2.8260   -3.3640   -4.1860 oh        1 1WN     -0.441100
     34 C34         4.0000   -1.9670   -2.5670 ca        1 1WN     -0.175500
     35 C35         4.1340   -1.5860   -1.2380 ca        1 1WN     -0.089000
     36 H1         -0.6100    0.3030    0.8930 ho        1 1WN      0.492000
     37 H2          1.5560   -0.5950   -0.5690 hn        1 1WN      0.513800
     38 H3          3.8160    0.2950    0.5250 hx        1 1WN      0.176700
     39 H4          3.3690    0.0890    3.4650 hn        1 1WN      0.478300
     40 H5          4.9570    0.5570    5.0850 ha        1 1WN      0.153500
     41 H6          5.9780    1.6960    7.0000 ha        1 1WN      0.184500
     42 H7          8.8800    5.0080   12.4070 ha        1 1WN      0.180500
     43 H8          9.9030    6.2070   14.3100 ha        1 1WN      0.170000
     44 H9         11.5880    8.8240   14.2870 hn        1 1WN      0.471133
     45 H10        10.2550    9.8320   14.3860 hn        1 1WN      0.471133
     46 H11         9.8530    9.9080   11.9700 ha        1 1WN      0.170000
     47 H12         8.8300    8.6840   10.0840 ha        1 1WN      0.180500
     48 H13         6.0130    5.4450    4.8020 ha        1 1WN      0.184500
     49 H14         4.9790    4.3090    2.8470 ha        1 1WN      0.153500
     50 H15         2.7130   -3.2880    2.1790 ho        1 1WN      0.478000
     51 H16         5.0170   -2.3330    2.7340 hc        1 1WN      0.086367
     52 H17         5.0880   -3.3100    1.2210 hc        1 1WN      0.086367
     53 H18         5.7220   -1.6230    1.1910 hc        1 1WN      0.086367
     54 H19         1.7240   -3.5790    0.1650 ha        1 1WN      0.143000
     55 H20         1.4540   -4.2530   -2.2180 ha        1 1WN      0.188500
     56 H21         3.4890   -2.9710   -4.7830 ho        1 1WN      0.461000
     57 H22         4.6640   -1.5420   -3.3370 ha        1 1WN      0.188500
     58 H23         4.9290   -0.8700   -0.9720 ha        1 1WN      0.143000
     59 H022        0.8140   -1.5500    0.6180 hn        1 1WN      0.513800
     60 H062        4.8690   -0.2210    2.8050 hn        1 1WN      0.478300
     61 H213       10.2980    8.4130   15.2720 hn        1 1WN      0.471133
@<TRIPOS>BOND
     1    1    2 1   
     2    1   36 1   
     3    2    3 1   
     4    2   37 1   
     5    2   59 1   
     6    3    4 2   
     7    3    5 1   
     8    5    6 1   
     9    5   26 1   
    10    5   38 1   
    11    6    7 1   
    12    6   39 1   
    13    6   60 1   
    14    7    8 2   
    15    7    9 1   
    16    9   10 ar  
    17    9   25 ar  
    18   10   11 ar  
    19   10   40 1   
    20   11   12 ar  
    21   11   41 1   
    22   12   13 1   
    23   12   24 ar  
    24   13   14 3   
    25   14   15 1   
    26   15   16 3   
    27   16   17 1   
    28   17   18 ar  
    29   17   23 ar  
    30   18   19 ar  
    31   18   42 1   
    32   19   20 ar  
    33   19   43 1   
    34   20   21 1   
    35   20   22 ar  
    36   21   44 1   
    37   21   45 1   
    38   21   61 1   
    39   22   23 ar  
    40   22   46 1   
    41   23   47 1   
    42   24   25 ar  
    43   24   48 1   
    44   25   49 1   
    45   26   27 1   
    46   26   28 1   
    47   26   29 1   
    48   27   50 1   
    49   28   51 1   
    50   28   52 1   
    51   28   53 1   
    52   29   30 ar  
    53   29   35 ar  
    54   30   31 ar  
    55   30   54 1   
    56   31   32 ar  
    57   31   55 1   
    58   32   33 1   
    59   32   34 ar  
    60   33   56 1   
    61   34   35 ar  
    62   34   57 1   
    63   35   58 1   
@<TRIPOS>SUBSTRUCTURE
     1 1WN         1 TEMP              0 ****  ****    0 ROOT
