@<TRIPOS>MOLECULE
1WN
   60    62     1     0     0
SMALL
bcc


@<TRIPOS>ATOM
      1 O01         0.6170    0.4580   -0.4050 oh        1 1WN     -0.338300
      2 N02         1.9510    0.4680   -0.1890 n4        1 1WN     -0.444300
      3 C03         2.3690   -0.1290    1.1420 c         1 1WN      0.547100
      4 O04         1.4920   -0.3110    1.9660 o         1 1WN     -0.368100
      5 C05         3.8640   -0.4080    1.2800 c3        1 1WN      0.072500
      6 N06         4.3250    0.0370    2.6280 n4        1 1WN     -0.680800
      7 C07         4.1030    1.5550    2.8280 c         1 1WN      0.602700
      8 O08         3.3930    2.0280    1.9290 o         1 1WN     -0.592100
      9 C09         4.7140    2.1580    3.9580 ca        1 1WN     -0.270600
     10 C10         5.4570    1.4610    4.9470 ca        1 1WN     -0.027500
     11 C11         6.0060    2.1320    6.0120 ca        1 1WN     -0.152000
     12 C12         5.8450    3.5420    6.1520 ca        1 1WN      0.239000
     13 C13         6.4010    4.2080    7.2230 cg        1 1WN     -0.267000
     14 C14         6.8850    4.8000    8.1650 ch        1 1WN      0.210000
     15 C15         7.4180    5.4510    9.2010 ch        1 1WN     -0.210000
     16 C16         7.9000    6.0450   10.1410 cg        1 1WN      0.137000
     17 C17         8.4510    6.7260   11.2180 ca        1 1WN     -0.145000
     18 C18         9.1900    6.0370   12.2050 ca        1 1WN     -0.006000
     19 C19         9.7390    6.7070   13.2770 ca        1 1WN     -0.236000
     20 C20         9.5740    8.1180   13.4150 ca        1 1WN      0.267600
     21 N21        10.1150    8.7870   14.4710 nh        1 1WN     -0.852200
     22 C22         8.8270    8.8080   12.4130 ca        1 1WN     -0.236000
     23 C23         8.2830    8.1230   11.3470 ca        1 1WN     -0.006000
     24 C24         5.1000    4.2380    5.1650 ca        1 1WN     -0.152000
     25 C25         4.5470    3.5670    4.0980 ca        1 1WN     -0.027500
     26 C26         4.1140   -1.9400    1.0040 c3        1 1WN      0.238100
     27 O27         3.5510   -2.5880    2.1360 oh        1 1WN     -0.623800
     28 C28         5.6130   -2.2070    0.9390 c3        1 1WN     -0.151100
     29 C29         3.4160   -2.2780   -0.2800 ca        1 1WN     -0.288300
     30 C30         2.2970   -3.1290   -0.2820 ca        1 1WN     -0.089000
     31 C31         1.7040   -3.5220   -1.4710 ca        1 1WN     -0.183500
     32 C32         2.2400   -3.0650   -2.6960 ca        1 1WN      0.193100
     33 O33         1.6100   -3.4890   -3.8230 oh        1 1WN     -0.450100
     34 C34         3.3560   -2.2060   -2.7060 ca        1 1WN     -0.183500
     35 C35         3.9410   -1.8320   -1.5030 ca        1 1WN     -0.089000
     36 H1          0.1430    0.6720    0.4380 ho        1 1WN      0.491000
     37 H2          2.3080    1.4470   -0.2430 hn        1 1WN      0.504300
     38 H3          4.4580    0.1760    0.5120 hx        1 1WN      0.134700
     39 H4          3.8090   -0.4870    3.3520 hn        1 1WN      0.482800
     40 H5          5.6000    0.3710    4.8910 ha        1 1WN      0.143000
     41 H6          6.5800    1.5870    6.7810 ha        1 1WN      0.181500
     42 H7          9.3270    4.9470   12.1150 ha        1 1WN      0.143500
     43 H8         10.3110    6.1470   14.0340 ha        1 1WN      0.151000
     44 H9          9.9940    9.7650   14.5590 hn        1 1WN      0.446800
     45 H10        10.6300    8.3010   15.1610 hn        1 1WN      0.446800
     46 H11         8.6820    9.8960   12.4920 ha        1 1WN      0.151000
     47 H12         7.7080    8.6720   10.5830 ha        1 1WN      0.143500
     48 H13         4.9670    5.3290    5.2650 ha        1 1WN      0.181500
     49 H14         3.9650    4.1150    3.3350 ha        1 1WN      0.143000
     50 H15         3.6920   -3.5430    2.0360 ho        1 1WN      0.471000
     51 H16         5.7860   -3.2230    0.4990 hc        1 1WN      0.079367
     52 H17         6.1340   -1.4610    0.2940 hc        1 1WN      0.079367
     53 H18         6.0600   -2.1970    1.9630 hc        1 1WN      0.079367
     54 H19         1.8840   -3.5020    0.6720 ha        1 1WN      0.151500
     55 H20         0.8340   -4.2000   -1.4840 ha        1 1WN      0.182500
     56 H21         2.1110   -3.1990   -4.6050 ho        1 1WN      0.453000
     57 H22         3.7840   -1.8670   -3.6630 ha        1 1WN      0.182500
     58 H23         4.8540   -1.2140   -1.5230 ha        1 1WN      0.151500
     59 H022        2.3620   -0.1100   -0.9660 hn        1 1WN      0.504300
     60 H062        5.3230   -0.1880    2.7210 hn        1 1WN      0.482800
@<TRIPOS>BOND
     1    1    2 1   
     2    1   36 1   
     3    2    3 1   
     4    2   37 1   
     5    2   59 1   
     6    3    4 2   
     7    3    5 1   
     8    5    6 1   
     9    5   26 1   
    10    5   38 1   
    11    6    7 1   
    12    6   39 1   
    13    6   60 1   
    14    7    8 2   
    15    7    9 1   
    16    9   10 ar  
    17    9   25 ar  
    18   10   11 ar  
    19   10   40 1   
    20   11   12 ar  
    21   11   41 1   
    22   12   13 1   
    23   12   24 ar  
    24   13   14 3   
    25   14   15 1   
    26   15   16 3   
    27   16   17 1   
    28   17   18 ar  
    29   17   23 ar  
    30   18   19 ar  
    31   18   42 1   
    32   19   20 ar  
    33   19   43 1   
    34   20   21 1   
    35   20   22 ar  
    36   21   44 1   
    37   21   45 1   
    38   22   23 ar  
    39   22   46 1   
    40   23   47 1   
    41   24   25 ar  
    42   24   48 1   
    43   25   49 1   
    44   26   27 1   
    45   26   28 1   
    46   26   29 1   
    47   27   50 1   
    48   28   51 1   
    49   28   52 1   
    50   28   53 1   
    51   29   30 ar  
    52   29   35 ar  
    53   30   31 ar  
    54   30   54 1   
    55   31   32 ar  
    56   31   55 1   
    57   32   33 1   
    58   32   34 ar  
    59   33   56 1   
    60   34   35 ar  
    61   34   57 1   
    62   35   58 1   
@<TRIPOS>SUBSTRUCTURE
     1 1WN         1 TEMP              0 ****  ****    0 ROOT
