@<TRIPOS>MOLECULE
1WO
   49    51     1     0     0
SMALL
bcc


@<TRIPOS>ATOM
      1 OAA        -0.1050    0.0260    0.0730 o         1 1WO     -0.535100
      2 CAB         1.1340    0.0320    0.0100 c         1 1WO      0.550500
      3 CAC         1.9160    0.0450    1.2820 cc        1 1WO      0.018900
      4 OAD         1.1700    0.1870    2.4260 oh        1 1WO     -0.491100
      5 CAE         3.2720   -0.0600    1.3290 cd        1 1WO     -0.093200
      6 CAF         4.1240    0.0240    2.5840 c3        1 1WO      0.028200
      7 CAG         4.6300    1.4650    2.6750 c3        1 1WO     -0.090100
      8 CAH         3.2940   -0.3020    3.8280 c3        1 1WO     -0.068400
      9 CAI         4.1140   -0.5250    5.0770 c3        1 1WO     -0.077400
     10 CAJ         5.1470   -1.6050    4.8750 c3        1 1WO     -0.074400
     11 CAK         6.1000   -1.2900    3.7190 c3        1 1WO     -0.029000
     12 CAL         7.0420   -0.1660    4.1180 c3        1 1WO     -0.097100
     13 CAM         6.9440   -2.5430    3.4730 c3        1 1WO     -0.097100
     14 CAN         5.2780   -1.0020    2.4520 c3        1 1WO     -0.138700
     15 CAO         6.1130   -0.6640    1.2390 c         1 1WO      0.568300
     16 OAP         7.3460   -0.6060    1.2000 o         1 1WO     -0.520100
     17 CAQ         5.3170   -0.4540    0.0150 ce        1 1WO     -0.200200
     18 CAR         3.9910   -0.1960    0.0600 cd        1 1WO     -0.007000
     19 CAS         3.2510   -0.0550   -1.1860 cd        1 1WO     -0.077000
     20 CAT         1.9080    0.0430   -1.2410 cc        1 1WO     -0.159400
     21 CAU         1.1890    0.1660   -2.5490 c3        1 1WO     -0.016500
     22 CAW         0.2890   -1.0310   -2.7910 c3        1 1WO     -0.095600
     23 CAV         0.3920    1.4550   -2.6180 c3        1 1WO     -0.095600
     24 H1          0.2270    0.1930    2.1800 ho        1 1WO      0.441000
     25 H2          3.8300    2.1710    2.3430 hc        1 1WO      0.043367
     26 H3          5.5290    1.6120    2.0300 hc        1 1WO      0.043367
     27 H4          4.8960    1.7260    3.7260 hc        1 1WO      0.043367
     28 H5          2.5850    0.5490    4.0190 hc        1 1WO      0.058200
     29 H6          2.6810   -1.2190    3.6220 hc        1 1WO      0.058200
     30 H7          3.4240   -0.8230    5.9110 hc        1 1WO      0.042700
     31 H8          4.6130    0.4290    5.3910 hc        1 1WO      0.042700
     32 H9          4.6300   -2.5790    4.6670 hc        1 1WO      0.042200
     33 H10         5.7460   -1.7360    5.8140 hc        1 1WO      0.042200
     34 H11         7.6360   -0.4780    5.0120 hc        1 1WO      0.041867
     35 H12         6.4830    0.7620    4.3800 hc        1 1WO      0.041867
     36 H13         7.7530    0.0660    3.2890 hc        1 1WO      0.041867
     37 H14         7.4790   -2.8270    4.4110 hc        1 1WO      0.041867
     38 H15         7.7020   -2.3510    2.6760 hc        1 1WO      0.041867
     39 H16         6.3000   -3.4000    3.1610 hc        1 1WO      0.041867
     40 H17         4.7730   -1.9860    2.1970 hc        1 1WO      0.074700
     41 H18         5.8660   -0.5240   -0.9380 ha        1 1WO      0.154000
     42 H19         3.8540   -0.0480   -2.1110 ha        1 1WO      0.144000
     43 H20         1.9610    0.1920   -3.3730 hc        1 1WO      0.048700
     44 H21        -0.5060   -1.0870   -2.0070 hc        1 1WO      0.044033
     45 H22         0.8810   -1.9770   -2.7700 hc        1 1WO      0.044033
     46 H23        -0.2010   -0.9380   -3.7900 hc        1 1WO      0.044033
     47 H24         1.0590    2.3360   -2.4620 hc        1 1WO      0.044033
     48 H25        -0.4050    1.4640   -1.8350 hc        1 1WO      0.044033
     49 H26        -0.0910    1.5460   -3.6200 hc        1 1WO      0.044033
@<TRIPOS>BOND
     1    1    2 2   
     2    2    3 1   
     3    2   20 1   
     4    3    4 1   
     5    3    5 2   
     6    4   24 1   
     7    5    6 1   
     8    5   18 1   
     9    6    7 1   
    10    6    8 1   
    11    6   14 1   
    12    7   25 1   
    13    7   26 1   
    14    7   27 1   
    15    8    9 1   
    16    8   28 1   
    17    8   29 1   
    18    9   10 1   
    19    9   30 1   
    20    9   31 1   
    21   10   11 1   
    22   10   32 1   
    23   10   33 1   
    24   11   12 1   
    25   11   13 1   
    26   11   14 1   
    27   12   34 1   
    28   12   35 1   
    29   12   36 1   
    30   13   37 1   
    31   13   38 1   
    32   13   39 1   
    33   14   15 1   
    34   14   40 1   
    35   15   16 2   
    36   15   17 1   
    37   17   18 2   
    38   17   41 1   
    39   18   19 1   
    40   19   20 2   
    41   19   42 1   
    42   20   21 1   
    43   21   22 1   
    44   21   23 1   
    45   21   43 1   
    46   22   44 1   
    47   22   45 1   
    48   22   46 1   
    49   23   47 1   
    50   23   48 1   
    51   23   49 1   
@<TRIPOS>SUBSTRUCTURE
     1 1WO         1 TEMP              0 ****  ****    0 ROOT
