@<TRIPOS>MOLECULE
1WO
   49    51     1     0     0
SMALL
bcc


@<TRIPOS>ATOM
      1 OAA        -0.0950    0.0500    0.0510 o         1 1WO     -0.535100
      2 CAB         1.1440    0.0430   -0.0060 c         1 1WO      0.550500
      3 CAC         1.9200    0.0610    1.2700 cc        1 1WO      0.018900
      4 OAD         1.1700    0.2210    2.4090 oh        1 1WO     -0.491100
      5 CAE         3.2750   -0.0570    1.3240 cd        1 1WO     -0.093200
      6 CAF         4.1230    0.0310    2.5830 c3        1 1WO      0.028200
      7 CAG         4.6420    1.4670    2.6620 c3        1 1WO     -0.090100
      8 CAH         3.2830   -0.2740    3.8250 c3        1 1WO     -0.068400
      9 CAI         4.0950   -0.4940    5.0810 c3        1 1WO     -0.077400
     10 CAJ         5.1180   -1.5860    4.8940 c3        1 1WO     -0.074400
     11 CAK         6.0790   -1.2920    3.7400 c3        1 1WO     -0.029000
     12 CAL         7.0310   -0.1740    4.1320 c3        1 1WO     -0.097100
     13 CAM         6.9120   -2.5560    3.5100 c3        1 1WO     -0.097100
     14 CAN         5.2660   -1.0080    2.4660 c3        1 1WO     -0.138700
     15 CAO         6.1110   -0.6900    1.2540 c         1 1WO      0.568300
     16 OAP         7.3450   -0.6460    1.2200 o         1 1WO     -0.520100
     17 CAQ         5.3220   -0.4830    0.0240 ce        1 1WO     -0.200200
     18 CAR         3.9990   -0.2120    0.0600 cd        1 1WO     -0.007000
     19 CAS         3.2660   -0.0750   -1.1900 cd        1 1WO     -0.077000
     20 CAT         1.9240    0.0360   -1.2530 cc        1 1WO     -0.159400
     21 CAU         1.2130    0.1530   -2.5650 c3        1 1WO     -0.016500
     22 CAW         0.3020   -1.0370   -2.8010 c3        1 1WO     -0.095600
     23 CAV         0.4290    1.4500   -2.6500 c3        1 1WO     -0.095600
     24 H1          0.2290    0.2340    2.1580 ho        1 1WO      0.441000
     25 H2          3.8510    2.1780    2.3200 hc        1 1WO      0.043367
     26 H3          5.5450    1.5990    2.0190 hc        1 1WO      0.043367
     27 H4          4.9070    1.7360    3.7120 hc        1 1WO      0.043367
     28 H5          2.5820    0.5860    4.0050 hc        1 1WO      0.058200
     29 H6          2.6620   -1.1870    3.6250 hc        1 1WO      0.058200
     30 H7          4.6020    0.4580    5.3880 hc        1 1WO      0.042700
     31 H8          3.3980   -0.7770    5.9140 hc        1 1WO      0.042700
     32 H9          4.5920   -2.5570    4.6930 hc        1 1WO      0.042200
     33 H10         5.7120   -1.7140    5.8370 hc        1 1WO      0.042200
     34 H11         7.6180   -0.4840    5.0320 hc        1 1WO      0.041867
     35 H12         6.4810    0.7620    4.3830 hc        1 1WO      0.041867
     36 H13         7.7480    0.0430    3.3040 hc        1 1WO      0.041867
     37 H14         6.2610   -3.4090    3.2030 hc        1 1WO      0.041867
     38 H15         7.4390   -2.8360    4.4530 hc        1 1WO      0.041867
     39 H16         7.6760   -2.3800    2.7150 hc        1 1WO      0.041867
     40 H17         4.7530   -1.9900    2.2180 hc        1 1WO      0.074700
     41 H18         5.8750   -0.5690   -0.9250 ha        1 1WO      0.154000
     42 H19         3.8740   -0.0830   -2.1130 ha        1 1WO      0.144000
     43 H20         1.9900    0.1640   -3.3850 hc        1 1WO      0.048700
     44 H21        -0.1820   -0.9480   -3.8030 hc        1 1WO      0.044033
     45 H22        -0.4960   -1.0790   -2.0210 hc        1 1WO      0.044033
     46 H23         0.8850   -1.9880   -2.7690 hc        1 1WO      0.044033
     47 H24         1.1040    2.3260   -2.4980 hc        1 1WO      0.044033
     48 H25        -0.3720    1.4730   -1.8710 hc        1 1WO      0.044033
     49 H26        -0.0480    1.5360   -3.6550 hc        1 1WO      0.044033
@<TRIPOS>BOND
     1    1    2 2   
     2    2    3 1   
     3    2   20 1   
     4    3    4 1   
     5    3    5 2   
     6    4   24 1   
     7    5    6 1   
     8    5   18 1   
     9    6    7 1   
    10    6    8 1   
    11    6   14 1   
    12    7   25 1   
    13    7   26 1   
    14    7   27 1   
    15    8    9 1   
    16    8   28 1   
    17    8   29 1   
    18    9   10 1   
    19    9   30 1   
    20    9   31 1   
    21   10   11 1   
    22   10   32 1   
    23   10   33 1   
    24   11   12 1   
    25   11   13 1   
    26   11   14 1   
    27   12   34 1   
    28   12   35 1   
    29   12   36 1   
    30   13   37 1   
    31   13   38 1   
    32   13   39 1   
    33   14   15 1   
    34   14   40 1   
    35   15   16 2   
    36   15   17 1   
    37   17   18 2   
    38   17   41 1   
    39   18   19 1   
    40   19   20 2   
    41   19   42 1   
    42   20   21 1   
    43   21   22 1   
    44   21   23 1   
    45   21   43 1   
    46   22   44 1   
    47   22   45 1   
    48   22   46 1   
    49   23   47 1   
    50   23   48 1   
    51   23   49 1   
@<TRIPOS>SUBSTRUCTURE
     1 1WO         1 TEMP              0 ****  ****    0 ROOT
