@<TRIPOS>MOLECULE
1WP
   41    44     1     0     0
SMALL
bcc


@<TRIPOS>ATOM
      1 C1          2.5580    0.0670   -0.3800 c3        1 1WP      0.182500
      2 C2          3.5320    0.0550    0.8770 c3        1 1WP      0.120100
      3 C3          4.9610   -0.4390    0.7120 c3        1 1WP     -0.087400
      4 C4          5.1970   -1.3120   -0.4960 c3        1 1WP     -0.077400
      5 C5          4.5850   -0.6900   -1.7300 c3        1 1WP     -0.080400
      6 C6          3.0810   -0.6970   -1.6130 c3        1 1WP     -0.061400
      7 N7          2.3770    1.5010   -0.6840 n2        1 1WP     -0.694900
      8 C8          2.9540    2.2060    0.2720 c2        1 1WP      0.761500
      9 O9          3.6280    1.4560    1.2640 os        1 1WP     -0.468400
     10 C10         1.2580   -0.6120    0.0290 ca        1 1WP     -0.078300
     11 C11         1.3210   -1.8900    0.6050 ca        1 1WP     -0.129000
     12 C12         0.1570   -2.5540    0.9790 ca        1 1WP     -0.131000
     13 C13        -1.0870   -1.9600    0.7770 ca        1 1WP     -0.115000
     14 C14        -1.1670   -0.6900    0.1910 cp        1 1WP     -0.047000
     15 C15         0.0100   -0.0230   -0.1850 ca        1 1WP     -0.087000
     16 C16        -2.4640   -0.0610   -0.0280 cp        1 1WP     -0.136300
     17 N17         2.9460    3.5750    0.5030 nh        1 1WP     -0.873800
     18 C18        -2.6420    1.3280    0.1790 ca        1 1WP      0.405200
     19 N19        -3.8110    1.9650   -0.0040 nb        1 1WP     -0.654000
     20 C20        -4.8690    1.2380   -0.4070 ca        1 1WP      0.402200
     21 C21        -4.7930   -0.1520   -0.6400 ca        1 1WP     -0.105900
     22 C22        -3.5740   -0.8090   -0.4480 ca        1 1WP     -0.084000
     23 CL1        -6.1640   -1.0060   -1.1470 cl        1 1WP     -0.077400
     24 H1          3.0370   -0.4520    1.7480 h1        1 1WP      0.080700
     25 H2          5.6400    0.4560    0.6520 hc        1 1WP      0.054700
     26 H3          5.2480   -1.0010    1.6400 hc        1 1WP      0.054700
     27 H4          6.3010   -1.4480   -0.6400 hc        1 1WP      0.043200
     28 H5          4.7550   -2.3300   -0.3270 hc        1 1WP      0.043200
     29 H6          4.9620    0.3580   -1.8600 hc        1 1WP      0.047700
     30 H7          4.8880   -1.2720   -2.6400 hc        1 1WP      0.047700
     31 H8          2.7310   -1.7630   -1.5470 hc        1 1WP      0.058700
     32 H9          2.6250   -0.2590   -2.5400 hc        1 1WP      0.058700
     33 H11         2.2990   -2.3740    0.7570 ha        1 1WP      0.133000
     34 H12         0.2180   -3.5530    1.4360 ha        1 1WP      0.134000
     35 H13        -2.0040   -2.4840    1.0830 ha        1 1WP      0.135000
     36 H14        -0.0730    0.9660   -0.6630 ha        1 1WP      0.159000
     37 H15         2.7680    4.1360   -0.3000 hn        1 1WP      0.422800
     38 H16        -1.7960    1.9570    0.5140 h4        1 1WP      0.035100
     39 H17        -5.8150    1.7900   -0.5480 h4        1 1WP      0.036100
     40 H18        -3.4810   -1.8910   -0.6280 ha        1 1WP      0.155000
     41 H10         3.6810    3.8920    1.0950 hn        1 1WP      0.422800
@<TRIPOS>BOND
     1    1    2 1   
     2    1    6 1   
     3    1    7 1   
     4    1   10 1   
     5    2    3 1   
     6    2    9 1   
     7    2   24 1   
     8    3    4 1   
     9    3   25 1   
    10    3   26 1   
    11    4    5 1   
    12    4   27 1   
    13    4   28 1   
    14    5    6 1   
    15    5   29 1   
    16    5   30 1   
    17    6   31 1   
    18    6   32 1   
    19    7    8 2   
    20    8    9 1   
    21    8   17 1   
    22   10   11 ar  
    23   10   15 ar  
    24   11   12 ar  
    25   11   33 1   
    26   12   13 ar  
    27   12   34 1   
    28   13   14 ar  
    29   13   35 1   
    30   14   15 ar  
    31   14   16 1   
    32   15   36 1   
    33   16   18 ar  
    34   16   22 ar  
    35   17   37 1   
    36   17   41 1   
    37   18   19 ar  
    38   18   38 1   
    39   19   20 ar  
    40   20   21 ar  
    41   20   39 1   
    42   21   22 ar  
    43   21   23 1   
    44   22   40 1   
@<TRIPOS>SUBSTRUCTURE
     1 1WP         1 TEMP              0 ****  ****    0 ROOT
