@<TRIPOS>MOLECULE
1WP
   41    37     1     0     0
SMALL
bcc


@<TRIPOS>ATOM
      1 C1          0.9370    1.4010   -1.0890 c3        1 1WP      0.134300
      2 C2          2.6870    1.4680   -1.1770 c3        1 1WP      0.193800
      3 C3          2.9670    1.2770    0.3620 c3        1 1WP     -0.068400
      4 C4          2.2860    2.5020    1.2790 c3        1 1WP     -0.079400
      5 C5          1.1930    3.2090    0.4990 c3        1 1WP     -0.081400
      6 C6          0.2800    2.5740   -0.3220 c3        1 1WP     -0.061400
      7 N7          0.6590    1.2860   -2.0660 n2        1 1WP     -0.599600
      8 C8          1.6660    0.5630   -2.7370 c1        1 1WP      0.397400
      9 O9          2.9560    0.6120   -1.9250 o         1 1WP     -0.418500
     10 C10         0.4950   -0.0830   -0.2410 c1        1 1WP     -0.027100
     11 C11         1.4750   -1.0000    0.1100 c1        1 1WP     -0.066000
     12 C12         1.1270   -2.1680    0.7680 c1        1 1WP     -0.066000
     13 C13        -0.2010   -2.4210    1.0760 c1        1 1WP     -0.041000
     14 C14        -1.1810   -1.5050    0.7250 cg        1 1WP     -0.059000
     15 C15        -0.8320   -0.3360    0.0670 c1        1 1WP     -0.042500
     16 C16        -2.6370   -1.8220    0.9820 cg        1 1WP     -0.059000
     17 N17         1.7190    0.5700   -4.1520 n3        1 1WP     -0.415400
     18 C18        -3.2780   -1.2390    2.0640 c1        1 1WP      0.317300
     19 N19        -4.5140   -1.6730    2.4390 n1        1 1WP     -0.453800
     20 C20        -5.1220   -2.6810    1.7520 c1        1 1WP     -0.007500
     21 C21        -4.4830   -3.2650    0.6690 c1        1 1WP     -0.027100
     22 C22        -3.2450   -2.8310    0.2930 c1        1 1WP     -0.041000
     23 CL1        -5.2290   -4.6030   -0.1640 cl        1 1WP     -0.086900
     24 H1          2.9920    2.3410   -1.4960 h1        1 1WP      0.057700
     25 H2          3.9330    1.2680    0.5110 hc        1 1WP      0.058200
     26 H3          2.5950    0.4230    0.6480 hc        1 1WP      0.058200
     27 H4          2.9800    3.1470    1.5200 hc        1 1WP      0.049700
     28 H5          1.9050    2.1200    2.0950 hc        1 1WP      0.049700
     29 H6          0.6650    3.7050    1.1590 hc        1 1WP      0.041700
     30 H7          1.6450    3.8740   -0.0610 hc        1 1WP      0.041700
     31 H8         -0.4560    2.2280    0.2230 hc        1 1WP      0.055200
     32 H9         -0.0750    3.2200   -0.9680 hc        1 1WP      0.055200
     33 H11         2.4090   -0.8220   -0.1070 ha        1 1WP      0.085000
     34 H12         1.8170   -2.8140    1.0150 ha        1 1WP      0.085000
     35 H13        -0.4460   -3.2450    1.5400 ha        1 1WP      0.088500
     36 H14        -1.5220    0.3090   -0.1800 ha        1 1WP      0.081500
     37 H15         2.5120    0.4190   -4.5800 hn        1 1WP      0.270200
     38 H16        -2.8440   -0.5170    2.5570 ha        1 1WP      0.107500
     39 H17        -6.0070   -2.9910    2.0220 ha        1 1WP      0.115500
     40 H18        -2.7940   -3.2430   -0.4690 ha        1 1WP      0.088500
     41 H10         0.9650    0.7460   -4.6370 hn        1 1WP      0.270200
@<TRIPOS>BOND
     1    1    2 1   
     2    1    6 1   
     3    1    7 1   
     4    1   10 1   
     5    2    3 1   
     6    2    9 1   
     7    2   24 1   
     8    3    4 1   
     9    3   25 1   
    10    3   26 1   
    11    4    5 1   
    12    4   27 1   
    13    4   28 1   
    14    5    6 1   
    15    5   29 1   
    16    5   30 1   
    17    6   31 1   
    18    6   32 1   
    19    7    8 2   
    20    8   17 2   
    21   10   15 3   
    22   11   12 3   
    23   11   33 1   
    24   12   34 1   
    25   13   14 3   
    26   13   35 1   
    27   14   16 1   
    28   15   36 1   
    29   16   22 3   
    30   17   37 1   
    31   17   41 1   
    32   18   19 3   
    33   18   38 1   
    34   20   21 3   
    35   20   39 1   
    36   21   23 1   
    37   22   40 1   
@<TRIPOS>SUBSTRUCTURE
     1 1WP         1 TEMP              0 ****  ****    0 ROOT
