@<TRIPOS>MOLECULE
1WP
   42    45     1     0     0
SMALL
bcc


@<TRIPOS>ATOM
      1 C1         -0.0460   -0.2260   -0.0480 c3        1 1WP      0.174500
      2 C2          1.5420   -0.2220    0.0810 c3        1 1WP      0.135100
      3 C3          2.1990    0.3690    1.3150 c3        1 1WP     -0.095400
      4 C4          1.3160    1.2760    2.1360 c3        1 1WP     -0.084400
      5 C5         -0.0520    0.6670    2.3390 c3        1 1WP     -0.087400
      6 C6         -0.7850    0.6010    1.0220 c3        1 1WP     -0.069400
      7 N7         -0.4130   -1.6690    0.0670 n2        1 1WP     -0.516900
      8 C8          0.6970   -2.3500    0.1150 c2        1 1WP      0.601500
      9 O9          1.9070   -1.6580    0.0770 os        1 1WP     -0.448400
     10 C10        -0.4240    0.3440   -1.4030 ca        1 1WP     -0.115300
     11 C11         0.1470    1.5680   -1.7840 ca        1 1WP     -0.126000
     12 C12        -0.1860    2.1460   -3.0060 ca        1 1WP     -0.112000
     13 C13        -1.0940    1.5180   -3.8580 ca        1 1WP     -0.096000
     14 C14        -1.6840    0.3050   -3.4810 cp        1 1WP     -0.021000
     15 C15        -1.3500   -0.2740   -2.2460 ca        1 1WP     -0.104000
     16 C16        -2.6400   -0.3610   -4.3590 cp        1 1WP     -0.159300
     17 N17         0.8710   -3.8000    0.2070 nz        1 1WP     -0.768600
     18 C18        -2.6240   -1.7660   -4.5080 ca        1 1WP      0.400200
     19 N19        -3.4770   -2.4440   -5.2950 nb        1 1WP     -0.651000
     20 C20        -4.3950   -1.7390   -5.9800 ca        1 1WP      0.417200
     21 C21        -4.4900   -0.3300   -5.9020 ca        1 1WP     -0.099900
     22 C22        -3.5990    0.3660   -5.0800 ca        1 1WP     -0.074000
     23 Cl1        -5.6670    0.4910   -6.7910 cl        1 1WP     -0.045400
     24 H1          2.0080    0.1730   -0.8630 h1        1 1WP      0.113700
     25 H2          2.5630   -0.4750    1.9650 hc        1 1WP      0.070700
     26 H3          3.1110    0.9380    0.9870 hc        1 1WP      0.070700
     27 H4          1.2140    2.2740    1.6310 hc        1 1WP      0.065200
     28 H5          1.8060    1.4580    3.1300 hc        1 1WP      0.065200
     29 H6          0.0410   -0.3530    2.7940 hc        1 1WP      0.057700
     30 H7         -0.6450    1.2980    3.0540 hc        1 1WP      0.057700
     31 H8         -1.8180    0.1870    1.1720 hc        1 1WP      0.082700
     32 H9         -0.9070    1.6450    0.6210 hc        1 1WP      0.082700
     33 H11         0.8480    2.0870   -1.1110 ha        1 1WP      0.138000
     34 H12         0.2670    3.1060   -3.2990 ha        1 1WP      0.154000
     35 H13        -1.3470    1.9750   -4.8280 ha        1 1WP      0.155000
     36 H14        -1.8590   -1.2060   -1.9560 ha        1 1WP      0.144000
     37 H15         1.4900   -4.0040    1.0040 hn        1 1WP      0.489133
     38 H16        -1.8770   -2.3790   -3.9730 h4        1 1WP      0.011100
     39 H17        -5.0830   -2.3230   -6.6190 h4        1 1WP      0.048100
     40 H18        -3.6520    1.4620   -4.9920 ha        1 1WP      0.160000
     41 H10        -0.0400   -4.2620    0.3350 hn        1 1WP      0.489133
     42 H173        1.3150   -4.1280   -0.6630 hn        1 1WP      0.489133
@<TRIPOS>BOND
     1    1    2 1   
     2    1    6 1   
     3    1    7 1   
     4    1   10 1   
     5    2    3 1   
     6    2    9 1   
     7    2   24 1   
     8    3    4 1   
     9    3   25 1   
    10    3   26 1   
    11    4    5 1   
    12    4   27 1   
    13    4   28 1   
    14    5    6 1   
    15    5   29 1   
    16    5   30 1   
    17    6   31 1   
    18    6   32 1   
    19    7    8 2   
    20    8    9 1   
    21    8   17 1   
    22   10   11 ar  
    23   10   15 ar  
    24   11   12 ar  
    25   11   33 1   
    26   12   13 ar  
    27   12   34 1   
    28   13   14 ar  
    29   13   35 1   
    30   14   15 ar  
    31   14   16 1   
    32   15   36 1   
    33   16   18 ar  
    34   16   22 ar  
    35   17   37 1   
    36   17   41 1   
    37   17   42 1   
    38   18   19 ar  
    39   18   38 1   
    40   19   20 ar  
    41   20   21 ar  
    42   20   39 1   
    43   21   22 ar  
    44   21   23 1   
    45   22   40 1   
@<TRIPOS>SUBSTRUCTURE
     1 1WP         1 TEMP              0 ****  ****    0 ROOT
