@<TRIPOS>MOLECULE
1WP
   42    45     1     0     0
SMALL
bcc


@<TRIPOS>ATOM
      1 C1         -0.0470   -0.2210   -0.0480 c3        1 1WP      0.174500
      2 C2          1.5410   -0.2330    0.0830 c3        1 1WP      0.135100
      3 C3          2.2040    0.3600    1.3120 c3        1 1WP     -0.095400
      4 C4          1.3290    1.2840    2.1260 c3        1 1WP     -0.084400
      5 C5         -0.0450    0.6910    2.3320 c3        1 1WP     -0.087400
      6 C6         -0.7780    0.6230    1.0150 c3        1 1WP     -0.069400
      7 N7         -0.4300   -1.6590    0.0790 n2        1 1WP     -0.516900
      8 C8          0.6730   -2.3520    0.1330 c2        1 1WP      0.601500
      9 O9          1.8910   -1.6730    0.0910 os        1 1WP     -0.448400
     10 C10        -0.4180    0.3420   -1.4080 ca        1 1WP     -0.115300
     11 C11         0.1670    1.5560   -1.7980 ca        1 1WP     -0.126000
     12 C12        -0.1590    2.1270   -3.0250 ca        1 1WP     -0.112000
     13 C13        -1.0730    1.5020   -3.8730 ca        1 1WP     -0.096000
     14 C14        -1.6760    0.2990   -3.4860 cp        1 1WP     -0.021000
     15 C15        -1.3500   -0.2730   -2.2460 ca        1 1WP     -0.104000
     16 C16        -2.6390   -0.3630   -4.3590 cp        1 1WP     -0.159300
     17 N17         0.8310   -3.8030    0.2370 n4        1 1WP     -0.768600
     18 C18        -2.6390   -1.7700   -4.4960 ca        1 1WP      0.400200
     19 N19        -3.4990   -2.4450   -5.2790 nb        1 1WP     -0.651000
     20 C20        -4.4090   -1.7360   -5.9700 ca        1 1WP      0.417200
     21 C21        -4.4880   -0.3250   -5.9040 ca        1 1WP     -0.099900
     22 C22        -3.5900    0.3680   -5.0870 ca        1 1WP     -0.074000
     23 CL1        -5.6550    0.5020   -6.8010 cl        1 1WP     -0.045400
     24 H1          2.0120    0.1480   -0.8640 h1        1 1WP      0.113700
     25 H2          2.5580   -0.4820    1.9700 hc        1 1WP      0.070700
     26 H3          3.1220    0.9160    0.9800 hc        1 1WP      0.070700
     27 H4          1.8210    1.4680    3.1180 hc        1 1WP      0.065200
     28 H5          1.2380    2.2780    1.6120 hc        1 1WP      0.065200
     29 H6         -0.6320    1.3340    3.0410 hc        1 1WP      0.057700
     30 H7          0.0360   -0.3260    2.7960 hc        1 1WP      0.057700
     31 H8         -1.8150    0.2210    1.1670 hc        1 1WP      0.082700
     32 H9         -0.8880    1.6640    0.6050 hc        1 1WP      0.082700
     33 H11         0.8730    2.0720   -1.1290 ha        1 1WP      0.138000
     34 H12         0.3050    3.0790   -3.3260 ha        1 1WP      0.154000
     35 H13        -1.3200    1.9540   -4.8460 ha        1 1WP      0.155000
     36 H14        -1.8690   -1.1970   -1.9480 ha        1 1WP      0.144000
     37 H15         1.4500   -4.0070    1.0340 hn        1 1WP      0.489133
     38 H16        -1.9000   -2.3860   -3.9550 h4        1 1WP      0.011100
     39 H17        -5.1030   -2.3180   -6.6050 h4        1 1WP      0.048100
     40 H18        -3.6310    1.4650   -5.0080 ha        1 1WP      0.160000
     41 H10         1.2680   -4.1440   -0.6300 hn        1 1WP      0.489133
     42 H173       -0.0850   -4.2540    0.3730 hn        1 1WP      0.489133
@<TRIPOS>BOND
     1    1    2 1   
     2    1    6 1   
     3    1    7 1   
     4    1   10 1   
     5    2    3 1   
     6    2    9 1   
     7    2   24 1   
     8    3    4 1   
     9    3   25 1   
    10    3   26 1   
    11    4    5 1   
    12    4   27 1   
    13    4   28 1   
    14    5    6 1   
    15    5   29 1   
    16    5   30 1   
    17    6   31 1   
    18    6   32 1   
    19    7    8 2   
    20    8    9 1   
    21    8   17 1   
    22   10   11 ar  
    23   10   15 ar  
    24   11   12 ar  
    25   11   33 1   
    26   12   13 ar  
    27   12   34 1   
    28   13   14 ar  
    29   13   35 1   
    30   14   15 ar  
    31   14   16 1   
    32   15   36 1   
    33   16   18 ar  
    34   16   22 ar  
    35   17   37 1   
    36   17   41 1   
    37   17   42 1   
    38   18   19 ar  
    39   18   38 1   
    40   19   20 ar  
    41   20   21 ar  
    42   20   39 1   
    43   21   22 ar  
    44   21   23 1   
    45   22   40 1   
@<TRIPOS>SUBSTRUCTURE
     1 1WP         1 TEMP              0 ****  ****    0 ROOT
