@<TRIPOS>MOLECULE
1WP
   42    45     1     0     0
SMALL
bcc


@<TRIPOS>ATOM
      1 C1         -0.0430   -0.2260   -0.0500 c3        1 1WP      0.174500
      2 C2          1.5470   -0.2150    0.0750 c3        1 1WP      0.135100
      3 C3          2.2040    0.3760    1.3080 c3        1 1WP     -0.095400
      4 C4          1.3190    1.2770    2.1350 c3        1 1WP     -0.084400
      5 C5         -0.0460    0.6600    2.3400 c3        1 1WP     -0.087400
      6 C6         -0.7820    0.5950    1.0250 c3        1 1WP     -0.069400
      7 N7         -0.4020   -1.6710    0.0620 n2        1 1WP     -0.516900
      8 C8          0.7120   -2.3470    0.1060 c2        1 1WP      0.601500
      9 O9          1.9190   -1.6490    0.0670 os        1 1WP     -0.448400
     10 C10        -0.4270    0.3450   -1.4030 ca        1 1WP     -0.115300
     11 C11         0.1370    1.5730   -1.7820 ca        1 1WP     -0.126000
     12 C12        -0.2020    2.1520   -3.0010 ca        1 1WP     -0.112000
     13 C13        -1.1090    1.5220   -3.8520 ca        1 1WP     -0.096000
     14 C14        -1.6920    0.3050   -3.4770 cp        1 1WP     -0.021000
     15 C15        -1.3520   -0.2750   -2.2440 ca        1 1WP     -0.104000
     16 C16        -2.6480   -0.3630   -4.3530 cp        1 1WP     -0.159300
     17 N17         0.8930   -3.7960    0.1940 n4        1 1WP     -0.768600
     18 C18        -2.6260   -1.7670   -4.5050 ca        1 1WP      0.400200
     19 N19        -3.4790   -2.4470   -5.2920 nb        1 1WP     -0.651000
     20 C20        -4.4020   -1.7450   -5.9720 ca        1 1WP      0.417200
     21 C21        -4.5030   -0.3370   -5.8910 ca        1 1WP     -0.099900
     22 C22        -3.6130    0.3610   -5.0690 ca        1 1WP     -0.074000
     23 CL1        -5.6860    0.4810   -6.7740 cl        1 1WP     -0.045400
     24 H1          2.0070    0.1840   -0.8690 h1        1 1WP      0.113700
     25 H2          2.5740   -0.4680    1.9550 hc        1 1WP      0.070700
     26 H3          3.1120    0.9500    0.9790 hc        1 1WP      0.070700
     27 H4          1.2100    2.2750    1.6330 hc        1 1WP      0.065200
     28 H5          1.8110    1.4580    3.1270 hc        1 1WP      0.065200
     29 H6         -0.6400    1.2860    3.0580 hc        1 1WP      0.057700
     30 H7          0.0530   -0.3600    2.7920 hc        1 1WP      0.057700
     31 H8         -0.9100    1.6390    0.6260 hc        1 1WP      0.082700
     32 H9         -1.8120    0.1750    1.1760 hc        1 1WP      0.082700
     33 H11         0.8380    2.0930   -1.1100 ha        1 1WP      0.138000
     34 H12         0.2460    3.1150   -3.2940 ha        1 1WP      0.154000
     35 H13        -1.3670    1.9800   -4.8200 ha        1 1WP      0.155000
     36 H14        -1.8560   -1.2100   -1.9540 ha        1 1WP      0.144000
     37 H15         1.3350   -4.1200   -0.6780 hn        1 1WP      0.489133
     38 H16        -1.8750   -2.3780   -3.9740 h4        1 1WP      0.011100
     39 H17        -5.0890   -2.3310   -6.6110 h4        1 1WP      0.048100
     40 H18        -3.6710    1.4570   -4.9790 ha        1 1WP      0.160000
     41 H10        -0.0150   -4.2630    0.3240 hn        1 1WP      0.489133
     42 H173        1.5160   -4.0000    0.9880 hn        1 1WP      0.489133
@<TRIPOS>BOND
     1    1    2 1   
     2    1    6 1   
     3    1    7 1   
     4    1   10 1   
     5    2    3 1   
     6    2    9 1   
     7    2   24 1   
     8    3    4 1   
     9    3   25 1   
    10    3   26 1   
    11    4    5 1   
    12    4   27 1   
    13    4   28 1   
    14    5    6 1   
    15    5   29 1   
    16    5   30 1   
    17    6   31 1   
    18    6   32 1   
    19    7    8 2   
    20    8    9 1   
    21    8   17 1   
    22   10   11 ar  
    23   10   15 ar  
    24   11   12 ar  
    25   11   33 1   
    26   12   13 ar  
    27   12   34 1   
    28   13   14 ar  
    29   13   35 1   
    30   14   15 ar  
    31   14   16 1   
    32   15   36 1   
    33   16   18 ar  
    34   16   22 ar  
    35   17   37 1   
    36   17   41 1   
    37   17   42 1   
    38   18   19 ar  
    39   18   38 1   
    40   19   20 ar  
    41   20   21 ar  
    42   20   39 1   
    43   21   22 ar  
    44   21   23 1   
    45   22   40 1   
@<TRIPOS>SUBSTRUCTURE
     1 1WP         1 TEMP              0 ****  ****    0 ROOT
