@<TRIPOS>MOLECULE
1WQ
   47    50     1     0     0
SMALL
bcc


@<TRIPOS>ATOM
      1 C1         -0.2720   -0.5850    0.2970 c3        1 1WQ     -0.122100
      2 C2          1.0440   -0.0550   -0.2350 c3        1 1WQ      0.080100
      3 O4          1.9990    0.0970    0.8220 os        1 1WQ     -0.314900
      4 C5          1.9090    1.2810    1.5370 ca        1 1WQ      0.070100
      5 C6          2.3790    1.2760    2.8530 ca        1 1WQ     -0.120000
      6 C7          2.3930    2.4650    3.5770 ca        1 1WQ     -0.112000
      7 C8          1.9350    3.6540    3.0000 ca        1 1WQ     -0.080300
      8 C9          1.8970    4.9250    3.7990 c3        1 1WQ      0.218100
      9 N10         3.1330    5.2160    4.5140 n3        1 1WQ     -0.731600
     10 C11         2.9800    6.3470    5.4190 c3        1 1WQ      0.171800
     11 C12         4.2330    6.6110    6.2550 c3        1 1WQ     -0.039200
     12 C13         5.4680    6.6100    5.4200 ce        1 1WQ     -0.066400
     13 C14         5.4760    6.0070    4.2190 c2        1 1WQ     -0.156200
     14 C15         4.2810    5.3430    3.6240 c3        1 1WQ      0.196000
     15 C16         6.6490    7.2670    5.9760 ca        1 1WQ     -0.044800
     16 C17         6.9000    7.2340    7.3560 ca        1 1WQ     -0.114500
     17 C18         8.0270    7.8550    7.8890 ca        1 1WQ     -0.124000
     18 C19         8.9140    8.5230    7.0400 ca        1 1WQ      0.016400
     19 CL         10.2900    9.2850    7.6860 cl        1 1WQ     -0.095400
     20 C21         8.6760    8.5690    5.6630 ca        1 1WQ     -0.124000
     21 C22         7.5490    7.9430    5.1380 ca        1 1WQ     -0.114500
     22 C23         1.4580    3.6640    1.6870 ca        1 1WQ     -0.148000
     23 C24         1.4400    2.4760    0.9330 ca        1 1WQ      0.015600
     24 N25         0.9680    2.4370   -0.3860 n         1 1WQ     -0.465100
     25 C26         0.7960    1.2240   -1.0340 c         1 1WQ      0.678500
     26 O27         0.4220    1.1940   -2.2190 o         1 1WQ     -0.615500
     27 H1         -0.0980   -1.5530    0.8270 hc        1 1WQ      0.058367
     28 H2         -0.9800   -0.7510   -0.5500 hc        1 1WQ      0.058367
     29 H3         -0.7260    0.1360    1.0190 hc        1 1WQ      0.058367
     30 H4          1.5390   -0.8090   -0.9150 h1        1 1WQ      0.111700
     31 H5          2.7420    0.3360    3.2940 ha        1 1WQ      0.154000
     32 H6          2.7680    2.4690    4.6120 ha        1 1WQ      0.156000
     33 H7          1.0810    4.8160    4.5720 h1        1 1WQ      0.040700
     34 H8          1.6030    5.7810    3.1180 h1        1 1WQ      0.040700
     35 H10         2.1280    6.1150    6.1180 h1        1 1WQ      0.033200
     36 H11         2.7140    7.2930    4.8610 h1        1 1WQ      0.033200
     37 H12         4.1120    7.5990    6.7710 hc        1 1WQ      0.058700
     38 H13         4.3310    5.8200    7.0470 hc        1 1WQ      0.058700
     39 H14         6.3790    5.9670    3.5900 ha        1 1WQ      0.133000
     40 H15         4.5610    4.2910    3.3180 h1        1 1WQ      0.049200
     41 H16         4.0160    5.9080    2.6780 h1        1 1WQ      0.049200
     42 H17         6.2040    6.7060    8.0260 ha        1 1WQ      0.139000
     43 H18         8.2150    7.8180    8.9720 ha        1 1WQ      0.147000
     44 H19         9.3740    9.0980    4.9950 ha        1 1WQ      0.147000
     45 H20         7.3600    7.9850    4.0550 ha        1 1WQ      0.139000
     46 H21         1.1000    4.6040    1.2400 ha        1 1WQ      0.138000
     47 H22         0.7730    3.2890   -0.8590 hn        1 1WQ      0.335500
@<TRIPOS>BOND
     1    1    2 1   
     2    1   27 1   
     3    1   28 1   
     4    1   29 1   
     5    2    3 1   
     6    2   25 1   
     7    2   30 1   
     8    3    4 1   
     9    4    5 ar  
    10    4   23 ar  
    11    5    6 ar  
    12    5   31 1   
    13    6    7 ar  
    14    6   32 1   
    15    7    8 1   
    16    7   22 ar  
    17    8    9 1   
    18    8   33 1   
    19    8   34 1   
    20    9   10 1   
    21    9   14 1   
    22   10   11 1   
    23   10   35 1   
    24   10   36 1   
    25   11   12 1   
    26   11   37 1   
    27   11   38 1   
    28   12   13 2   
    29   12   15 1   
    30   13   14 1   
    31   13   39 1   
    32   14   40 1   
    33   14   41 1   
    34   15   16 ar  
    35   15   21 ar  
    36   16   17 ar  
    37   16   42 1   
    38   17   18 ar  
    39   17   43 1   
    40   18   19 1   
    41   18   20 ar  
    42   20   21 ar  
    43   20   44 1   
    44   21   45 1   
    45   22   23 ar  
    46   22   46 1   
    47   23   24 1   
    48   24   25 1   
    49   24   47 1   
    50   25   26 2   
@<TRIPOS>SUBSTRUCTURE
     1 1WQ         1 TEMP              0 ****  ****    0 ROOT
