@<TRIPOS>MOLECULE
1WQ
   47    50     1     0     0
SMALL
bcc


@<TRIPOS>ATOM
      1 C1         -0.2650   -0.5900    0.2960 c3        1 1WQ     -0.122100
      2 C2          1.0410   -0.0440   -0.2460 c3        1 1WQ      0.080100
      3 O4          2.0060    0.1070    0.8020 os        1 1WQ     -0.314900
      4 C5          1.9140    1.2840    1.5280 ca        1 1WQ      0.070100
      5 C6          2.3980    1.2720    2.8380 ca        1 1WQ     -0.120000
      6 C7          2.4100    2.4550    3.5730 ca        1 1WQ     -0.112000
      7 C8          1.9370    3.6440    3.0100 ca        1 1WQ     -0.080300
      8 C9          1.8960    4.9090    3.8210 c3        1 1WQ      0.218100
      9 N10         3.1370    5.2040    4.5250 n3        1 1WQ     -0.731600
     10 C11         2.9850    6.3250    5.4420 c3        1 1WQ      0.171800
     11 C12         4.2440    6.5930    6.2660 c3        1 1WQ     -0.039200
     12 C13         5.4700    6.6090    5.4190 ce        1 1WQ     -0.066400
     13 C14         5.4700    6.0170    4.2120 c2        1 1WQ     -0.156200
     14 C15         4.2740    5.3480    3.6240 c3        1 1WQ      0.196000
     15 C16         6.6510    7.2720    5.9680 ca        1 1WQ     -0.044800
     16 C17         6.9170    7.2290    7.3440 ca        1 1WQ     -0.114500
     17 C18         8.0440    7.8550    7.8710 ca        1 1WQ     -0.124000
     18 C19         8.9170    8.5380    7.0180 ca        1 1WQ      0.016400
     19 Cl         10.2930    9.3060    7.6560 cl        1 1WQ     -0.095400
     20 C21         8.6640    8.5940    5.6440 ca        1 1WQ     -0.124000
     21 C22         7.5370    7.9620    5.1260 ca        1 1WQ     -0.114500
     22 C23         1.4450    3.6620    1.7030 ca        1 1WQ     -0.148000
     23 C24         1.4280    2.4800    0.9400 ca        1 1WQ      0.015600
     24 N25         0.9430    2.4490   -0.3750 ns        1 1WQ     -0.465100
     25 C26         0.7730    1.2400   -1.0310 c         1 1WQ      0.678500
     26 O27         0.3870    1.2170   -2.2120 o         1 1WQ     -0.615500
     27 H1         -0.0770   -1.5600    0.8150 hc        1 1WQ      0.058367
     28 H2         -0.7170    0.1210    1.0280 hc        1 1WQ      0.058367
     29 H3         -0.9800   -0.7550   -0.5450 hc        1 1WQ      0.058367
     30 H4          1.5340   -0.7880   -0.9370 h1        1 1WQ      0.111700
     31 H5          2.7740    0.3310    3.2670 ha        1 1WQ      0.154000
     32 H6          2.7970    2.4530    4.6040 ha        1 1WQ      0.156000
     33 H7          1.5880    5.7670    3.1500 h1        1 1WQ      0.040700
     34 H8          1.0890    4.7860    4.6020 h1        1 1WQ      0.040700
     35 H10         2.7050    7.2740    4.8950 h1        1 1WQ      0.033200
     36 H11         2.1420    6.0800    6.1480 h1        1 1WQ      0.033200
     37 H12         4.1200    7.5750    6.7920 hc        1 1WQ      0.058700
     38 H13         4.3570    5.7960    7.0510 hc        1 1WQ      0.058700
     39 H14         6.3670    5.9900    3.5740 ha        1 1WQ      0.133000
     40 H15         3.9950    5.9190    2.6860 h1        1 1WQ      0.049200
     41 H16         4.5600    4.3010    3.3060 h1        1 1WQ      0.049200
     42 H17         6.2330    6.6910    8.0170 ha        1 1WQ      0.139000
     43 H18         8.2440    7.8110    8.9520 ha        1 1WQ      0.147000
     44 H19         9.3500    9.1330    4.9740 ha        1 1WQ      0.147000
     45 H20         7.3360    8.0120    4.0450 ha        1 1WQ      0.139000
     46 H21         1.0740    4.6030    1.2680 ha        1 1WQ      0.138000
     47 H22         0.7360    3.3030   -0.8390 hn        1 1WQ      0.335500
@<TRIPOS>BOND
     1    1    2 1   
     2    1   27 1   
     3    1   28 1   
     4    1   29 1   
     5    2    3 1   
     6    2   25 1   
     7    2   30 1   
     8    3    4 1   
     9    4    5 ar  
    10    4   23 ar  
    11    5    6 ar  
    12    5   31 1   
    13    6    7 ar  
    14    6   32 1   
    15    7    8 1   
    16    7   22 ar  
    17    8    9 1   
    18    8   33 1   
    19    8   34 1   
    20    9   10 1   
    21    9   14 1   
    22   10   11 1   
    23   10   35 1   
    24   10   36 1   
    25   11   12 1   
    26   11   37 1   
    27   11   38 1   
    28   12   13 2   
    29   12   15 1   
    30   13   14 1   
    31   13   39 1   
    32   14   40 1   
    33   14   41 1   
    34   15   16 ar  
    35   15   21 ar  
    36   16   17 ar  
    37   16   42 1   
    38   17   18 ar  
    39   17   43 1   
    40   18   19 1   
    41   18   20 ar  
    42   20   21 ar  
    43   20   44 1   
    44   21   45 1   
    45   22   23 ar  
    46   22   46 1   
    47   23   24 1   
    48   24   25 1   
    49   24   47 1   
    50   25   26 2   
@<TRIPOS>SUBSTRUCTURE
     1 1WQ         1 TEMP              0 ****  ****    0 ROOT
