@<TRIPOS>MOLECULE
1WQ
   47    50     1     0     0
SMALL
bcc


@<TRIPOS>ATOM
      1 C1          7.6460    0.1010   -0.7300 c3        1 1WQ     -0.122100
      2 C2          6.7780   -1.1050   -0.4280 c3        1 1WQ      0.080100
      3 O4          5.5710   -1.0700   -1.1980 os        1 1WQ     -0.314900
      4 C5          4.5460   -0.3060   -0.6610 ca        1 1WQ      0.070100
      5 C6          3.6040    0.2210   -1.5480 ca        1 1WQ     -0.120000
      6 C7          2.5080    0.9180   -1.0440 ca        1 1WQ     -0.112000
      7 C8          2.3520    1.0960    0.3340 ca        1 1WQ     -0.080300
      8 C9          1.2020    1.8950    0.8750 c3        1 1WQ      0.218100
      9 N10        -0.0930    1.5270    0.3170 n3        1 1WQ     -0.731600
     10 C11        -1.1410    2.4530    0.7250 c3        1 1WQ      0.171800
     11 C12        -2.4900    2.1470    0.0730 c3        1 1WQ     -0.039200
     12 C13        -2.8330    0.6990    0.1600 ce        1 1WQ     -0.066400
     13 C14        -1.8710   -0.2160    0.3680 c2        1 1WQ     -0.156200
     14 C15        -0.4330    0.1310    0.5600 c3        1 1WQ      0.196000
     15 C16        -4.2380    0.3360   -0.0110 ca        1 1WQ     -0.044800
     16 C17        -5.0600    1.0600   -0.8870 ca        1 1WQ     -0.114500
     17 C18        -6.3980    0.7150   -1.0560 ca        1 1WQ     -0.124000
     18 C19        -6.9290   -0.3630   -0.3410 ca        1 1WQ      0.016400
     19 CL         -8.5630   -0.7870   -0.5420 cl        1 1WQ     -0.095400
     20 C21        -6.1250   -1.0920    0.5400 ca        1 1WQ     -0.124000
     21 C22        -4.7870   -0.7410    0.7000 ca        1 1WQ     -0.114500
     22 C23         3.2950    0.5770    1.2250 ca        1 1WQ     -0.148000
     23 C24         4.4070   -0.1350    0.7400 ca        1 1WQ      0.015600
     24 N25         5.3790   -0.6720    1.5950 n         1 1WQ     -0.465100
     25 C26         6.5490   -1.2070    1.0790 c         1 1WQ      0.678500
     26 O27         7.3880   -1.7250    1.8360 o         1 1WQ     -0.615500
     27 H1          8.6050    0.0220   -0.1650 hc        1 1WQ      0.058367
     28 H2          7.8650    0.1390   -1.8240 hc        1 1WQ      0.058367
     29 H3          7.1250    1.0440   -0.4400 hc        1 1WQ      0.058367
     30 H4          7.2730   -2.0580   -0.7790 h1        1 1WQ      0.111700
     31 H5          3.7340    0.0690   -2.6290 ha        1 1WQ      0.154000
     32 H6          1.7580    1.3300   -1.7370 ha        1 1WQ      0.156000
     33 H7          1.1990    1.8220    2.0050 h1        1 1WQ      0.040700
     34 H8          1.3850    2.9780    0.6090 h1        1 1WQ      0.040700
     35 H10        -1.2760    2.4580    1.8470 h1        1 1WQ      0.033200
     36 H11        -0.8230    3.4890    0.4170 h1        1 1WQ      0.033200
     37 H12        -3.2760    2.7660    0.5810 hc        1 1WQ      0.058700
     38 H13        -2.4620    2.4490   -1.0090 hc        1 1WQ      0.058700
     39 H14        -2.0890   -1.2940    0.4110 ha        1 1WQ      0.133000
     40 H15         0.1890   -0.4760   -0.1630 h1        1 1WQ      0.049200
     41 H16        -0.1450   -0.1950    1.6060 h1        1 1WQ      0.049200
     42 H17        -4.6440    1.9080   -1.4540 ha        1 1WQ      0.139000
     43 H18        -7.0320    1.2870   -1.7500 ha        1 1WQ      0.147000
     44 H19        -6.5440   -1.9390    1.1050 ha        1 1WQ      0.147000
     45 H20        -4.1570   -1.3130    1.3980 ha        1 1WQ      0.139000
     46 H21         3.1640    0.7220    2.3090 ha        1 1WQ      0.138000
     47 H22         5.2150   -0.6800    2.5760 hn        1 1WQ      0.335500
@<TRIPOS>BOND
     1    1    2 1   
     2    1   27 1   
     3    1   28 1   
     4    1   29 1   
     5    2    3 1   
     6    2   25 1   
     7    2   30 1   
     8    3    4 1   
     9    4    5 ar  
    10    4   23 ar  
    11    5    6 ar  
    12    5   31 1   
    13    6    7 ar  
    14    6   32 1   
    15    7    8 1   
    16    7   22 ar  
    17    8    9 1   
    18    8   33 1   
    19    8   34 1   
    20    9   10 1   
    21    9   14 1   
    22   10   11 1   
    23   10   35 1   
    24   10   36 1   
    25   11   12 1   
    26   11   37 1   
    27   11   38 1   
    28   12   13 2   
    29   12   15 1   
    30   13   14 1   
    31   13   39 1   
    32   14   40 1   
    33   14   41 1   
    34   15   16 ar  
    35   15   21 ar  
    36   16   17 ar  
    37   16   42 1   
    38   17   18 ar  
    39   17   43 1   
    40   18   19 1   
    41   18   20 ar  
    42   20   21 ar  
    43   20   44 1   
    44   21   45 1   
    45   22   23 ar  
    46   22   46 1   
    47   23   24 1   
    48   24   25 1   
    49   24   47 1   
    50   25   26 2   
@<TRIPOS>SUBSTRUCTURE
     1 1WQ         1 TEMP              0 ****  ****    0 ROOT
