@<TRIPOS>MOLECULE
1WQ
   47    50     1     0     0
SMALL
bcc


@<TRIPOS>ATOM
      1 C1         -0.3040   -0.5810    0.3240 c3        1 1WQ     -0.122100
      2 C2          1.0140   -0.0580   -0.2140 c3        1 1WQ      0.080100
      3 O4          1.9710    0.0950    0.8410 os        1 1WQ     -0.314900
      4 C5          1.8880    1.2820    1.5510 ca        1 1WQ      0.070100
      5 C6          2.3610    1.2800    2.8660 ca        1 1WQ     -0.120000
      6 C7          2.3810    2.4720    3.5860 ca        1 1WQ     -0.112000
      7 C8          1.9270    3.6600    3.0050 ca        1 1WQ     -0.080300
      8 C9          1.8950    4.9350    3.7990 c3        1 1WQ      0.218100
      9 N10         3.1330    5.2230    4.5110 n3        1 1WQ     -0.731600
     10 C11         2.9870    6.3580    5.4120 c3        1 1WQ      0.171800
     11 C12         4.2420    6.6190    6.2450 c3        1 1WQ     -0.039200
     12 C13         5.4760    6.6100    5.4080 ce        1 1WQ     -0.066400
     13 C14         5.4790    6.0030    4.2090 c2        1 1WQ     -0.156200
     14 C15         4.2800    5.3420    3.6180 c3        1 1WQ      0.196000
     15 C16         6.6600    7.2640    5.9600 ca        1 1WQ     -0.044800
     16 C17         6.9130    7.2360    7.3390 ca        1 1WQ     -0.114500
     17 C18         8.0430    7.8540    7.8680 ca        1 1WQ     -0.124000
     18 C19         8.9330    8.5150    7.0150 ca        1 1WQ      0.016400
     19 CL         10.3120    9.2740    7.6560 cl        1 1WQ     -0.095400
     20 C21         8.6930    8.5570    5.6380 ca        1 1WQ     -0.124000
     21 C22         7.5620    7.9330    5.1180 ca        1 1WQ     -0.114500
     22 C23         1.4460    3.6670    1.6930 ca        1 1WQ     -0.148000
     23 C24         1.4210    2.4770    0.9440 ca        1 1WQ      0.015600
     24 N25         0.9470    2.4340   -0.3740 n         1 1WQ     -0.465100
     25 C26         0.7680    1.2200   -1.0160 c         1 1WQ      0.678500
     26 O27         0.3920    1.1870   -2.2010 o         1 1WQ     -0.615500
     27 H1         -1.0140   -0.7470   -0.5210 hc        1 1WQ      0.058367
     28 H2         -0.7530    0.1450    1.0440 hc        1 1WQ      0.058367
     29 H3         -0.1320   -1.5470    0.8570 hc        1 1WQ      0.058367
     30 H4          1.5030   -0.8160   -0.8910 h1        1 1WQ      0.111700
     31 H5          2.7210    0.3410    3.3090 ha        1 1WQ      0.154000
     32 H6          2.7590    2.4780    4.6200 ha        1 1WQ      0.156000
     33 H7          1.6040    5.7890    3.1150 h1        1 1WQ      0.040700
     34 H8          1.0790    4.8320    4.5740 h1        1 1WQ      0.040700
     35 H10         2.1350    6.1320    6.1140 h1        1 1WQ      0.033200
     36 H11         2.7240    7.3030    4.8510 h1        1 1WQ      0.033200
     37 H12         4.3380    5.8310    7.0400 hc        1 1WQ      0.058700
     38 H13         4.1260    7.6100    6.7570 hc        1 1WQ      0.058700
     39 H14         6.3810    5.9570    3.5790 ha        1 1WQ      0.133000
     40 H15         4.5550    4.2880    3.3160 h1        1 1WQ      0.049200
     41 H16         4.0160    5.9050    2.6710 h1        1 1WQ      0.049200
     42 H17         6.2160    6.7140    8.0120 ha        1 1WQ      0.139000
     43 H18         8.2330    7.8210    8.9510 ha        1 1WQ      0.147000
     44 H19         9.3920    9.0790    4.9680 ha        1 1WQ      0.147000
     45 H20         7.3720    7.9720    4.0350 ha        1 1WQ      0.139000
     46 H21         1.0910    4.6070    1.2440 ha        1 1WQ      0.138000
     47 H22         0.7540    3.2850   -0.8500 hn        1 1WQ      0.335500
@<TRIPOS>BOND
     1    1    2 1   
     2    1   27 1   
     3    1   28 1   
     4    1   29 1   
     5    2    3 1   
     6    2   25 1   
     7    2   30 1   
     8    3    4 1   
     9    4    5 ar  
    10    4   23 ar  
    11    5    6 ar  
    12    5   31 1   
    13    6    7 ar  
    14    6   32 1   
    15    7    8 1   
    16    7   22 ar  
    17    8    9 1   
    18    8   33 1   
    19    8   34 1   
    20    9   10 1   
    21    9   14 1   
    22   10   11 1   
    23   10   35 1   
    24   10   36 1   
    25   11   12 1   
    26   11   37 1   
    27   11   38 1   
    28   12   13 2   
    29   12   15 1   
    30   13   14 1   
    31   13   39 1   
    32   14   40 1   
    33   14   41 1   
    34   15   16 ar  
    35   15   21 ar  
    36   16   17 ar  
    37   16   42 1   
    38   17   18 ar  
    39   17   43 1   
    40   18   19 1   
    41   18   20 ar  
    42   20   21 ar  
    43   20   44 1   
    44   21   45 1   
    45   22   23 ar  
    46   22   46 1   
    47   23   24 1   
    48   24   25 1   
    49   24   47 1   
    50   25   26 2   
@<TRIPOS>SUBSTRUCTURE
     1 1WQ         1 TEMP              0 ****  ****    0 ROOT
