@<TRIPOS>MOLECULE
1WQ
   47    41     1     0     0
SMALL
bcc


@<TRIPOS>ATOM
      1 C1         -4.5260   -5.1280    2.6290 c3        1 1WQ     -0.240000
      2 C2         -3.1710   -5.3260    1.8160 c3        1 1WQ      0.019000
      3 O4         -2.1630   -4.5440    2.3540 os        1 1WQ     -0.198000
      4 C5         -2.0060   -3.1500    1.8230 c1        1 1WQ      0.025000
      5 C6         -1.1320   -2.2300    2.3990 c1        1 1WQ     -0.117500
      6 C7         -1.0210   -0.9220    1.8600 c1        1 1WQ     -0.117500
      7 C8         -1.8070   -0.5450    0.7250 c1        1 1WQ     -0.072000
      8 C9         -1.6660    0.8720    0.1270 c3        1 1WQ     -0.026000
      9 N10        -0.2600    1.1350   -0.1760 n3        1 1WQ     -0.256000
     10 C11         0.1080    2.0540    0.4470 c3        1 1WQ     -0.065000
     11 C12         1.6970    2.4570    0.2660 c3        1 1WQ     -0.120000
     12 C13         2.0470    2.5790   -1.0830 c1        1 1WQ     -0.075000
     13 C14         1.2710    1.5720   -2.1050 c1        1 1WQ     -0.153000
     14 C15        -0.0680    1.2190   -1.7340 c2        1 1WQ     -0.045000
     15 C16         3.4410    3.1890   -1.4840 c1        1 1WQ     -0.048500
     16 C17         3.5430    4.5410   -1.8120 c1        1 1WQ     -0.117500
     17 C18         4.7910    5.0970   -2.1050 c1        1 1WQ     -0.117500
     18 C19         5.9360    4.3010   -2.0690 c1        1 1WQ     -0.048500
     19 CL          7.4950    4.9890   -2.4730 cl        1 1WQ     -0.017000
     20 C21         5.8350    2.9520   -1.7420 c1        1 1WQ     -0.118500
     21 C22         4.5860    2.3940   -1.4490 c1        1 1WQ     -0.118500
     22 C23        -2.6980   -1.4780    0.1350 c1        1 1WQ     -0.148000
     23 C24        -2.8100   -2.7650    0.6620 c1        1 1WQ      0.023000
     24 N25        -3.5860   -3.8210   -0.0220 n         1 1WQ     -0.319000
     25 C26        -3.3890   -5.0640    0.3600 c2        1 1WQ      0.286000
     26 O27        -3.6740   -5.9830   -0.3890 o         1 1WQ     -0.340000
     27 H1         -4.7760   -5.9760    3.0630 hc        1 1WQ      0.097667
     28 H2         -5.2310   -4.8580    2.0200 hc        1 1WQ      0.097667
     29 H3         -4.4000   -4.4360    3.3120 hc        1 1WQ      0.097667
     30 H4         -2.9940   -6.2810    1.9770 h1        1 1WQ      0.151000
     31 H5         -0.5930   -2.4870    3.1770 ha        1 1WQ      0.148750
     32 H6         -0.3800   -0.2890    2.2420 ha        1 1WQ      0.148750
     33 H7         -1.9900    1.5320    0.7730 h1        1 1WQ      0.080000
     34 H8         -2.1930    0.9330   -0.6930 h1        1 1WQ      0.080000
     35 H10        -0.0520    1.8650    1.3920 h1        1 1WQ      0.072000
     36 H11        -0.4350    2.8320    0.1940 h1        1 1WQ      0.072000
     37 H12         1.9630    3.1810    0.8650 hc        1 1WQ      0.098500
     38 H13         2.2520    1.7290    0.6220 hc        1 1WQ      0.098500
     39 H14         1.5520    1.5120   -3.0410 ha        1 1WQ      0.134000
     40 H15        -0.7110    1.8470   -2.1220 h4        1 1WQ      0.088000
     41 H16        -0.3390    0.3860   -2.1630 h4        1 1WQ      0.088000
     42 H17         2.7460    5.0950   -1.8370 ha        1 1WQ      0.148750
     43 H18         4.8630    6.0470   -2.3350 ha        1 1WQ      0.148750
     44 H19         6.6420    2.3910   -1.7170 ha        1 1WQ      0.145000
     45 H20         4.5160    1.4490   -1.2200 ha        1 1WQ      0.145000
     46 H21        -3.2330   -1.2190   -0.6390 ha        1 1WQ      0.138000
     47 H22        -3.9820   -3.6480   -0.8290 hn        1 1WQ      0.249000
@<TRIPOS>BOND
     1    1    2 1   
     2    1   27 1   
     3    1   28 1   
     4    1   29 1   
     5    2    3 1   
     6    2   25 1   
     7    2   30 1   
     8    3    4 1   
     9    4   23 1   
    10    5    6 1   
    11    5   31 1   
    12    6   32 1   
    13    7    8 1   
    14    7   22 1   
    15    8    9 1   
    16    8   33 1   
    17    8   34 1   
    18    9   10 1   
    19    9   14 1   
    20   10   11 1   
    21   10   35 1   
    22   10   36 1   
    23   11   12 1   
    24   11   37 1   
    25   11   38 1   
    26   12   13 1   
    27   13   39 1   
    28   14   40 1   
    29   14   41 1   
    30   15   21 1   
    31   16   17 1   
    32   16   42 1   
    33   17   43 1   
    34   18   20 1   
    35   20   44 1   
    36   21   45 1   
    37   22   46 1   
    38   23   24 1   
    39   24   25 1   
    40   24   47 1   
    41   25   26 1   
@<TRIPOS>SUBSTRUCTURE
     1 1WQ         1 TEMP              0 ****  ****    0 ROOT
