@<TRIPOS>MOLECULE
1WS
   47    50     1     0     0
SMALL
bcc


@<TRIPOS>ATOM
      1 O23         4.2850   -1.3980   -0.2480 o         1 1WS     -0.614100
      2 C21         3.7950   -0.2630   -0.4250 c         1 1WS      0.599600
      3 N22         4.5540    0.7840   -0.9110 n         1 1WS     -0.553900
      4 C24         5.9770    0.6770   -1.0810 c3        1 1WS      0.085000
      5 C25         6.7970    1.4170   -0.0220 c3        1 1WS     -0.111400
      6 C26         8.2820    1.2540   -0.3420 c3        1 1WS      0.160800
      7 N27         9.1420    1.9690    0.5710 n3        1 1WS     -0.915800
      8 C8          2.3560   -0.0170   -0.1660 cc        1 1WS      0.259800
      9 C7          1.3800   -1.0450    0.1000 cc        1 1WS     -0.173600
     10 C4          1.4670   -2.5100    0.1100 c3        1 1WS     -0.007100
     11 C3          0.3390   -3.1950    0.8790 c3        1 1WS     -0.105700
     12 N9          1.7500    1.2180   -0.1190 nd        1 1WS     -0.504800
     13 N10         0.4720    1.0230    0.1700 na        1 1WS      0.024400
     14 C6          0.1720   -0.3330    0.3120 cd        1 1WS     -0.034300
     15 C1         -1.0280   -1.0160    0.6260 cd        1 1WS     -0.170300
     16 C11        -2.3890   -0.6880    0.7590 cc        1 1WS      0.075300
     17 N12        -3.0380   -1.9140    1.0810 na        1 1WS     -0.035600
     18 N5         -2.1960   -2.9500    1.0800 nc        1 1WS     -0.494800
     19 C2         -0.9500   -2.4590    0.8510 cd        1 1WS      0.339600
     20 N13        -2.9820    0.5810    0.6730 nh        1 1WS     -0.572000
     21 C14        -4.2510    0.6880    0.0530 ca        1 1WS      0.133600
     22 C19        -5.1750    1.6450    0.5190 ca        1 1WS     -0.217000
     23 C18        -6.3890    1.8250   -0.1650 ca        1 1WS      0.156900
     24 F20        -7.2690    2.7520    0.2830 f         1 1WS     -0.135900
     25 C17        -6.7000    1.0540   -1.2980 ca        1 1WS     -0.186000
     26 C16        -5.7810    0.1080   -1.7420 ca        1 1WS     -0.078000
     27 C15        -4.5710   -0.0850   -1.0850 ca        1 1WS     -0.179000
     28 H22         4.1720    1.7000   -0.9210 hn        1 1WS      0.320500
     29 H241        6.2630   -0.4140   -1.0740 h1        1 1WS      0.062700
     30 H242        6.2320    1.1010   -2.0950 h1        1 1WS      0.062700
     31 H251        6.5260    2.5040   -0.0090 hc        1 1WS      0.052200
     32 H252        6.5750    1.0000    0.9950 hc        1 1WS      0.052200
     33 H261        8.5120    0.1470   -0.3760 h1        1 1WS      0.026700
     34 H262        8.4800    1.6630   -1.3740 h1        1 1WS      0.026700
     35 H271        8.9130    1.7600    1.5220 hn        1 1WS      0.349800
     36 H272       10.0990    1.7310    0.4040 hn        1 1WS      0.349800
     37 H41C        1.4540   -2.8680   -0.9580 hc        1 1WS      0.074700
     38 H42C        2.4560   -2.8260    0.5450 hc        1 1WS      0.074700
     39 H31C        0.2040   -4.2310    0.4690 hc        1 1WS      0.065200
     40 H32C        0.6420   -3.3000    1.9590 hc        1 1WS      0.065200
     41 H10        -0.1680    1.7840    0.2010 hn        1 1WS      0.332700
     42 H12        -4.0170   -2.0810    1.0210 hn        1 1WS      0.321700
     43 H13        -2.9230    1.0810    1.5430 hn        1 1WS      0.413800
     44 H19        -4.9640    2.2650    1.4020 ha        1 1WS      0.151000
     45 H15        -3.8550   -0.8280   -1.4700 ha        1 1WS      0.153000
     46 H17        -7.6560    1.2070   -1.8190 ha        1 1WS      0.155000
     47 H16        -6.0150   -0.4980   -2.6320 ha        1 1WS      0.145000
@<TRIPOS>BOND
     1    1    2 2   
     2    2    3 1   
     3    2    8 1   
     4    3    4 1   
     5    3   28 1   
     6    4    5 1   
     7    4   29 1   
     8    4   30 1   
     9    5    6 1   
    10    5   31 1   
    11    5   32 1   
    12    6    7 1   
    13    6   33 1   
    14    6   34 1   
    15    7   35 1   
    16    7   36 1   
    17    8    9 1   
    18    8   12 2   
    19    9   10 1   
    20    9   14 2   
    21   10   11 1   
    22   10   37 1   
    23   10   38 1   
    24   11   19 1   
    25   11   39 1   
    26   11   40 1   
    27   12   13 1   
    28   13   14 1   
    29   13   41 1   
    30   14   15 1   
    31   15   16 2   
    32   15   19 1   
    33   16   17 1   
    34   16   20 1   
    35   17   18 1   
    36   17   42 1   
    37   18   19 2   
    38   20   21 1   
    39   20   43 1   
    40   21   22 ar  
    41   21   27 ar  
    42   22   23 ar  
    43   22   44 1   
    44   23   24 1   
    45   23   25 ar  
    46   25   26 ar  
    47   25   46 1   
    48   26   27 ar  
    49   26   47 1   
    50   27   45 1   
@<TRIPOS>SUBSTRUCTURE
     1 1WS         1 TEMP              0 ****  ****    0 ROOT
