@<TRIPOS>MOLECULE
1WS
   47    42     1     0     0
SMALL
bcc


@<TRIPOS>ATOM
      1 O23        -0.3000    0.5850    4.0250 o         1 1WS     -0.373000
      2 C21        -0.6770   -0.2030    3.1670 c1        1 1WS      0.384000
      3 N22        -1.6910   -1.2170    3.4940 n2        1 1WS     -0.365000
      4 C24        -2.5020   -1.0790    4.7170 c3        1 1WS     -0.032000
      5 C25        -3.9650   -1.0840    4.3560 c3        1 1WS     -0.188000
      6 C26        -4.7120   -2.0920    5.2630 c3        1 1WS     -0.075000
      7 N27        -6.1540   -1.8940    5.1340 n3        1 1WS     -0.348000
      8 C8         -0.0720   -0.1490    1.7540 c2        1 1WS     -0.156000
      9 C7         -0.3190    0.6610    0.6430 c1        1 1WS     -0.102000
     10 C4         -1.4630    1.6050    0.3060 c2        1 1WS     -0.094000
     11 C3         -1.5320    2.1770   -1.0330 c3        1 1WS     -0.090000
     12 N9          1.1130   -0.8020    1.5460 n2        1 1WS     -0.074000
     13 N10         1.6130   -0.4060    0.3070 n2        1 1WS     -0.121000
     14 C6          0.7260    0.4950   -0.2440 c1        1 1WS     -0.011000
     15 C1          0.6500    1.0890   -1.6500 c1        1 1WS     -0.115000
     16 C11         1.4930    1.0000   -2.7090 c1        1 1WS      0.024000
     17 N12         0.9150    1.6480   -3.7660 n2        1 1WS     -0.178000
     18 N5         -0.2940    2.1400   -3.3530 n2        1 1WS     -0.064000
     19 C2         -0.4630    1.7990   -2.0500 c2        1 1WS     -0.079000
     20 N13         2.9730    1.0370   -2.6340 n2        1 1WS     -0.206000
     21 C14         3.7440    0.4600   -3.6620 c2        1 1WS      0.054000
     22 C19         3.9690    1.1640   -4.8410 c2        1 1WS     -0.216000
     23 C18         4.8330    0.6570   -5.7920 c1        1 1WS      0.123000
     24 F20         4.9350    1.2830   -7.0440 f         1 1WS     -0.100000
     25 C17         5.4860   -0.5730   -5.5660 c2        1 1WS     -0.186000
     26 C16         5.2610   -1.2730   -4.3900 c1        1 1WS     -0.077000
     27 C15         4.3990   -0.7680   -3.4400 c1        1 1WS     -0.182000
     28 H22        -1.8600   -1.9470    2.8810 hn        1 1WS      0.233000
     29 H241       -2.2840   -0.2490    5.1550 h1        1 1WS      0.101000
     30 H242       -2.3120   -1.8300    5.3240 h1        1 1WS      0.101000
     31 H251       -4.3410   -0.1750    4.4920 hc        1 1WS      0.091500
     32 H252       -4.0700   -1.3460    3.4160 hc        1 1WS      0.091500
     33 H261       -4.4800   -3.0160    4.9900 h1        1 1WS      0.066000
     34 H262       -4.4480   -1.9520    6.1860 h1        1 1WS      0.066000
     35 H271       -6.5320   -1.7800    5.9880 hn        1 1WS      0.144500
     36 H272       -6.5280   -2.6270    4.7310 hn        1 1WS      0.144500
     37 H41C       -1.4280    2.3280    0.9250 ha        1 1WS      0.114500
     38 H42C       -2.3170    1.1100    0.4650 ha        1 1WS      0.114500
     39 H31C       -2.4080    1.9270   -1.4180 hc        1 1WS      0.105000
     40 H32C       -1.5160    3.1810   -0.9340 hc        1 1WS      0.105000
     41 H10         2.4100   -0.7000   -0.0830 DU        1 1WS      0.277000
     42 H12         1.2690    1.7240   -4.6170 DU        1 1WS      0.277000
     43 H13         3.3590    1.3590   -1.9380 hn        1 1WS      0.212000
     44 H19         3.4670    2.0630   -5.0170 ha        1 1WS      0.152000
     45 H15         4.2410   -1.2610   -2.6180 ha        1 1WS      0.151000
     46 H17         6.0930   -0.9300   -6.2340 ha        1 1WS      0.155000
     47 H16         5.7210   -2.1390   -4.2320 ha        1 1WS      0.145000
@<TRIPOS>BOND
     1    1    2 1   
     2    2    8 1   
     3    3    4 1   
     4    3   28 1   
     5    4    5 1   
     6    4   29 1   
     7    4   30 1   
     8    5    6 1   
     9    5   31 1   
    10    5   32 1   
    11    6    7 1   
    12    6   33 1   
    13    6   34 1   
    14    7   35 1   
    15    7   36 1   
    16    8    9 1   
    17    8   12 1   
    18    9   14 1   
    19   10   11 1   
    20   10   37 1   
    21   10   38 1   
    22   11   19 1   
    23   11   39 1   
    24   11   40 1   
    25   12   13 1   
    26   13   14 1   
    27   15   16 1   
    28   15   19 1   
    29   16   17 1   
    30   17   18 1   
    31   18   19 1   
    32   20   21 1   
    33   20   43 1   
    34   21   22 1   
    35   21   27 1   
    36   22   23 1   
    37   22   44 1   
    38   23   25 1   
    39   25   26 1   
    40   25   46 1   
    41   26   47 1   
    42   27   45 1   
@<TRIPOS>SUBSTRUCTURE
     1 1WS         1 TEMP              0 ****  ****    0 ROOT
