@<TRIPOS>MOLECULE
1WS
   49    52     1     0     0
SMALL
bcc


@<TRIPOS>ATOM
      1 O23        -0.0040    0.0930    0.1950 o         1 1WS     -0.430100
      2 C21         1.1830    0.0850   -0.0810 c         1 1WS      0.527600
      3 N22         2.1370   -0.0130    1.1440 n4        1 1WS     -0.685800
      4 C24         1.4020   -0.0870    2.4290 c3        1 1WS      0.103800
      5 C25         2.3120   -0.1850    3.6530 c3        1 1WS     -0.134400
      6 C26         1.4240   -0.2550    4.8950 c3        1 1WS      0.102800
      7 N27         2.1950   -0.3540    6.1660 n4        1 1WS     -0.837600
      8 C8          1.8640    0.1520   -1.3400 cc        1 1WS      0.170800
      9 C7          1.2220    0.2400   -2.6260 cc        1 1WS     -0.135600
     10 C4         -0.1830    0.1980   -3.0480 c3        1 1WS     -0.018100
     11 C3         -0.4290    0.7520   -4.4510 c3        1 1WS     -0.107700
     12 N9          3.2520    0.1510   -1.4990 nd        1 1WS     -0.537800
     13 N10         3.4860    0.2420   -2.7880 na        1 1WS      0.087400
     14 C6          2.3130    0.3010   -3.5440 cd        1 1WS      0.054700
     15 C1          2.0860    0.4050   -4.9300 cd        1 1WS     -0.281300
     16 C11         2.8660    0.3280   -6.1110 cc        1 1WS      0.155300
     17 N12         1.9380    0.4340   -7.1670 na        1 1WS     -0.011600
     18 N5          0.6740    0.5350   -6.7420 nc        1 1WS     -0.457800
     19 C2          0.7040    0.5520   -5.3850 cd        1 1WS      0.353600
     20 N13         4.2580    0.1860   -6.1940 nh        1 1WS     -0.578000
     21 C14         4.7970   -0.4480   -7.3510 ca        1 1WS      0.091600
     22 C19         5.9470    0.0850   -7.9630 ca        1 1WS     -0.203000
     23 C18         6.5390   -0.6010   -9.0380 ca        1 1WS      0.165900
     24 F20         7.6490   -0.0910   -9.6160 f         1 1WS     -0.117900
     25 C17         5.9840   -1.8020   -9.5170 ca        1 1WS     -0.159000
     26 C16         4.8420   -2.3100   -8.9060 ca        1 1WS     -0.076000
     27 C15         4.2450   -1.6510   -7.8340 ca        1 1WS     -0.172000
     28 H22         2.7230   -0.8450    1.0190 hn        1 1WS      0.465300
     29 H241        0.7480    0.8330    2.5030 hx        1 1WS      0.125700
     30 H242        0.7170   -0.9860    2.3800 hx        1 1WS      0.125700
     31 H251        2.9580   -1.1030    3.5840 hc        1 1WS      0.088700
     32 H252        2.9880    0.7110    3.7080 hc        1 1WS      0.088700
     33 H261        0.7460   -1.1590    4.8350 hx        1 1WS      0.128700
     34 H262        0.7770    0.6710    4.9590 hx        1 1WS      0.128700
     35 H271        1.5420   -0.3980    6.9610 hn        1 1WS      0.476133
     36 H272        2.7770   -1.2000    6.1730 hn        1 1WS      0.476133
     37 H41C       -0.8230    0.7660   -2.3170 hc        1 1WS      0.076200
     38 H42C       -0.5230   -0.8770   -3.0140 hc        1 1WS      0.076200
     39 H31C       -0.6250    1.8590   -4.3840 hc        1 1WS      0.086700
     40 H32C       -1.3620    0.2760   -4.8610 hc        1 1WS      0.086700
     41 H10         4.4250    0.2140   -3.1410 hn        1 1WS      0.362700
     42 H12         2.1250    0.2920   -8.1380 hn        1 1WS      0.349700
     43 H13         4.7250    1.0500   -5.9760 hn        1 1WS      0.416800
     44 H19         6.4040    1.0250   -7.6180 ha        1 1WS      0.155000
     45 H15         3.3530   -2.0890   -7.3600 ha        1 1WS      0.146000
     46 H17         6.4570   -2.3240  -10.3630 ha        1 1WS      0.171000
     47 H16         4.4030   -3.2520   -9.2750 ha        1 1WS      0.157000
     48 H222        2.7500    0.8100    1.1310 hn        1 1WS      0.465300
     49 H273        2.8050    0.4640    6.2860 hn        1 1WS      0.476133
@<TRIPOS>BOND
     1    1    2 2   
     2    2    3 1   
     3    2    8 1   
     4    3    4 1   
     5    3   28 1   
     6    3   48 1   
     7    4    5 1   
     8    4   29 1   
     9    4   30 1   
    10    5    6 1   
    11    5   31 1   
    12    5   32 1   
    13    6    7 1   
    14    6   33 1   
    15    6   34 1   
    16    7   35 1   
    17    7   36 1   
    18    7   49 1   
    19    8    9 1   
    20    8   12 2   
    21    9   10 1   
    22    9   14 2   
    23   10   11 1   
    24   10   37 1   
    25   10   38 1   
    26   11   19 1   
    27   11   39 1   
    28   11   40 1   
    29   12   13 1   
    30   13   14 1   
    31   13   41 1   
    32   14   15 1   
    33   15   16 2   
    34   15   19 1   
    35   16   17 1   
    36   16   20 1   
    37   17   18 1   
    38   17   42 1   
    39   18   19 2   
    40   20   21 1   
    41   20   43 1   
    42   21   22 ar  
    43   21   27 ar  
    44   22   23 ar  
    45   22   44 1   
    46   23   24 1   
    47   23   25 ar  
    48   25   26 ar  
    49   25   46 1   
    50   26   27 ar  
    51   26   47 1   
    52   27   45 1   
@<TRIPOS>SUBSTRUCTURE
     1 1WS         1 TEMP              0 ****  ****    0 ROOT
