@<TRIPOS>MOLECULE
1WS
   50    53     1     0     0
SMALL
bcc


@<TRIPOS>ATOM
      1 O23         0.1130    0.3020    0.2300 o         1 1WS     -0.397100
      2 C21         1.2950    0.0570    0.0560 c         1 1WS      0.514600
      3 N22         2.1370   -0.1200    1.3320 n4        1 1WS     -0.676800
      4 C24         1.3260    0.0520    2.5700 c3        1 1WS      0.103800
      5 C25         2.1290   -0.1080    3.8610 c3        1 1WS     -0.133400
      6 C26         1.1720    0.0970    5.0380 c3        1 1WS      0.102800
      7 N27         1.8280   -0.0300    6.3690 n4        1 1WS     -0.837600
      8 C8          2.0190   -0.0820   -1.1870 cc        1 1WS      0.181800
      9 C7          1.4360    0.0710   -2.4990 cc        1 1WS     -0.079600
     10 C4          0.0620    0.3470   -2.9340 c3        1 1WS     -0.036100
     11 C3         -0.0020    1.0150   -4.3030 c3        1 1WS     -0.118700
     12 N9          3.3730   -0.3620   -1.3070 nd        1 1WS     -0.473800
     13 N10         3.6510   -0.3930   -2.5900 na        1 1WS      0.071400
     14 C6          2.5270   -0.1390   -3.3910 cd        1 1WS     -0.042300
     15 C1          2.3340   -0.0180   -4.7970 cd        1 1WS     -0.158300
     16 C11         3.0120   -0.3080   -6.0080 cc        1 1WS     -0.083700
     17 N12         2.1400    0.0730   -7.0490 na        1 1WS      0.062400
     18 N5          1.0020    0.5600   -6.5960 nc        1 1WS     -0.388800
     19 C2          1.0500    0.5300   -5.2290 cd        1 1WS      0.357600
     20 N13         4.3200   -0.8970   -6.2200 n4        1 1WS     -0.468800
     21 C14         4.7620   -0.8980   -7.6280 ca        1 1WS     -0.069400
     22 C19         5.3690    0.2580   -8.1470 ca        1 1WS     -0.167000
     23 C18         5.8390    0.2290   -9.4730 ca        1 1WS      0.182900
     24 F20         6.4270    1.3260   -9.9860 f         1 1WS     -0.078900
     25 C17         5.6970   -0.9380  -10.2580 ca        1 1WS     -0.090000
     26 C16         5.0860   -2.0620   -9.7130 ca        1 1WS     -0.071000
     27 C15         4.6100   -2.0600   -8.4000 ca        1 1WS     -0.117000
     28 H22         2.9000    0.5680    1.3120 hn        1 1WS      0.470300
     29 H241        0.8570    1.0810    2.5290 hx        1 1WS      0.130700
     30 H242        0.4880   -0.7080    2.5360 hx        1 1WS      0.130700
     31 H251        2.5900   -1.1320    3.9100 hc        1 1WS      0.091700
     32 H252        2.9590    0.6480    3.9000 hc        1 1WS      0.091700
     33 H261        0.7100    1.1290    4.9830 hx        1 1WS      0.131700
     34 H262        0.3390   -0.6680    4.9940 hx        1 1WS      0.131700
     35 H271        2.2360   -0.9660    6.4890 hn        1 1WS      0.480467
     36 H272        1.1270    0.1190    7.1110 hn        1 1WS      0.480467
     37 H41C       -0.4640    1.0010   -2.1840 hc        1 1WS      0.099200
     38 H42C       -0.5040   -0.6300   -2.9660 hc        1 1WS      0.099200
     39 H31C       -1.0240    0.8400   -4.7430 hc        1 1WS      0.108200
     40 H32C        0.1210    2.1300   -4.1910 hc        1 1WS      0.108200
     41 H10         4.5940   -0.5510   -2.8810 hn        1 1WS      0.348700
     42 H12         2.3220    0.0170   -8.0360 hn        1 1WS      0.375700
     43 H13         5.0070   -0.3630   -5.6690 hn        1 1WS      0.467800
     44 H19         5.4970    1.1800   -7.5570 ha        1 1WS      0.177000
     45 H15         4.1350   -2.9710   -7.9990 ha        1 1WS      0.168000
     46 H17         6.0770   -0.9440  -11.2970 ha        1 1WS      0.207000
     47 H16         4.9750   -2.9760  -10.3260 ha        1 1WS      0.196000
     48 H222        2.5560   -1.0580    1.3120 hn        1 1WS      0.470300
     49 H273        2.5740    0.6690    6.4790 hn        1 1WS      0.480467
     50 H132        4.2920   -1.8740   -5.8870 hn        1 1WS      0.467800
@<TRIPOS>BOND
     1    1    2 2   
     2    2    3 1   
     3    2    8 1   
     4    3    4 1   
     5    3   28 1   
     6    3   48 1   
     7    4    5 1   
     8    4   29 1   
     9    4   30 1   
    10    5    6 1   
    11    5   31 1   
    12    5   32 1   
    13    6    7 1   
    14    6   33 1   
    15    6   34 1   
    16    7   35 1   
    17    7   36 1   
    18    7   49 1   
    19    8    9 1   
    20    8   12 2   
    21    9   10 1   
    22    9   14 2   
    23   10   11 1   
    24   10   37 1   
    25   10   38 1   
    26   11   19 1   
    27   11   39 1   
    28   11   40 1   
    29   12   13 1   
    30   13   14 1   
    31   13   41 1   
    32   14   15 1   
    33   15   16 2   
    34   15   19 1   
    35   16   17 1   
    36   16   20 1   
    37   17   18 1   
    38   17   42 1   
    39   18   19 2   
    40   20   21 1   
    41   20   43 1   
    42   20   50 1   
    43   21   22 ar  
    44   21   27 ar  
    45   22   23 ar  
    46   22   44 1   
    47   23   24 1   
    48   23   25 ar  
    49   25   26 ar  
    50   25   46 1   
    51   26   27 ar  
    52   26   47 1   
    53   27   45 1   
@<TRIPOS>SUBSTRUCTURE
     1 1WS         1 TEMP              0 ****  ****    0 ROOT
