@<TRIPOS>MOLECULE
1WS
   49    52     1     0     0
SMALL
bcc


@<TRIPOS>ATOM
      1 O23        -0.0030    0.0960    0.1970 o         1 1WS     -0.430100
      2 C21         1.1850    0.0870   -0.0800 c         1 1WS      0.527600
      3 N22         2.1390   -0.0100    1.1440 ny        1 1WS     -0.685800
      4 C24         1.4050   -0.0830    2.4300 c3        1 1WS      0.103800
      5 C25         2.3160   -0.1810    3.6540 c3        1 1WS     -0.134400
      6 C26         1.4280   -0.2490    4.8960 c3        1 1WS      0.102800
      7 N27         2.2000   -0.3480    6.1670 nz        1 1WS     -0.837600
      8 C8          1.8650    0.1530   -1.3390 cc        1 1WS      0.170800
      9 C7          1.2220    0.2400   -2.6260 cc        1 1WS     -0.135600
     10 C4         -0.1830    0.1980   -3.0460 c3        1 1WS     -0.018100
     11 C3         -0.4300    0.7500   -4.4500 c3        1 1WS     -0.107700
     12 N9          3.2530    0.1510   -1.4990 nd        1 1WS     -0.537800
     13 N10         3.4860    0.2410   -2.7880 na        1 1WS      0.087400
     14 C6          2.3120    0.2990   -3.5440 cd        1 1WS      0.054700
     15 C1          2.0840    0.4030   -4.9300 cd        1 1WS     -0.281300
     16 C11         2.8640    0.3240   -6.1110 cc        1 1WS      0.155300
     17 N12         1.9350    0.4300   -7.1670 na        1 1WS     -0.011600
     18 N5          0.6720    0.5320   -6.7410 nc        1 1WS     -0.457800
     19 C2          0.7030    0.5500   -5.3840 cd        1 1WS      0.353600
     20 N13         4.2550    0.1820   -6.1950 nu        1 1WS     -0.578000
     21 C14         4.7940   -0.4520   -7.3530 ca        1 1WS      0.091600
     22 C19         5.9430    0.0810   -7.9650 ca        1 1WS     -0.203000
     23 C18         6.5350   -0.6050   -9.0400 ca        1 1WS      0.165900
     24 F20         7.6450   -0.0950   -9.6190 f         1 1WS     -0.117900
     25 C17         5.9790   -1.8070   -9.5190 ca        1 1WS     -0.159000
     26 C16         4.8380   -2.3140   -8.9070 ca        1 1WS     -0.076000
     27 C15         4.2410   -1.6550   -7.8350 ca        1 1WS     -0.172000
     28 H22         2.7530    0.8120    1.1300 hn        1 1WS      0.465300
     29 H241        0.7510    0.8370    2.5030 hx        1 1WS      0.125700
     30 H242        0.7200   -0.9820    2.3820 hx        1 1WS      0.125700
     31 H251        2.9610   -1.0990    3.5850 hc        1 1WS      0.088700
     32 H252        2.9930    0.7140    3.7070 hc        1 1WS      0.088700
     33 H261        0.7820    0.6780    4.9600 hx        1 1WS      0.128700
     34 H262        0.7500   -1.1520    4.8370 hx        1 1WS      0.128700
     35 H271        2.7810   -1.1950    6.1740 hn        1 1WS      0.476133
     36 H272        2.8110    0.4700    6.2860 hn        1 1WS      0.476133
     37 H41C       -0.8230    0.7660   -2.3160 hc        1 1WS      0.076200
     38 H42C       -0.5240   -0.8770   -3.0120 hc        1 1WS      0.076200
     39 H31C       -1.3640    0.2750   -4.8590 hc        1 1WS      0.086700
     40 H32C       -0.6250    1.8580   -4.3840 hc        1 1WS      0.086700
     41 H10         4.4250    0.2130   -3.1420 hn        1 1WS      0.362700
     42 H12         2.1210    0.2880   -8.1380 hn        1 1WS      0.349700
     43 H13         4.7240    1.0460   -5.9780 hn        1 1WS      0.416800
     44 H19         6.4010    1.0210   -7.6210 ha        1 1WS      0.155000
     45 H15         3.3500   -2.0920   -7.3600 ha        1 1WS      0.146000
     46 H17         6.4520   -2.3280  -10.3650 ha        1 1WS      0.171000
     47 H16         4.3990   -3.2560   -9.2750 ha        1 1WS      0.157000
     48 H222        2.7250   -0.8440    1.0200 hn        1 1WS      0.465300
     49 H273        1.5470   -0.3890    6.9620 hn        1 1WS      0.476133
@<TRIPOS>BOND
     1    1    2 2   
     2    2    3 1   
     3    2    8 1   
     4    3    4 1   
     5    3   28 1   
     6    3   48 1   
     7    4    5 1   
     8    4   29 1   
     9    4   30 1   
    10    5    6 1   
    11    5   31 1   
    12    5   32 1   
    13    6    7 1   
    14    6   33 1   
    15    6   34 1   
    16    7   35 1   
    17    7   36 1   
    18    7   49 1   
    19    8    9 1   
    20    8   12 2   
    21    9   10 1   
    22    9   14 2   
    23   10   11 1   
    24   10   37 1   
    25   10   38 1   
    26   11   19 1   
    27   11   39 1   
    28   11   40 1   
    29   12   13 1   
    30   13   14 1   
    31   13   41 1   
    32   14   15 1   
    33   15   16 2   
    34   15   19 1   
    35   16   17 1   
    36   16   20 1   
    37   17   18 1   
    38   17   42 1   
    39   18   19 2   
    40   20   21 1   
    41   20   43 1   
    42   21   22 ar  
    43   21   27 ar  
    44   22   23 ar  
    45   22   44 1   
    46   23   24 1   
    47   23   25 ar  
    48   25   26 ar  
    49   25   46 1   
    50   26   27 ar  
    51   26   47 1   
    52   27   45 1   
@<TRIPOS>SUBSTRUCTURE
     1 1WS         1 TEMP              0 ****  ****    0 ROOT
