@<TRIPOS>MOLECULE
1WV
   53    49     1     0     0
SMALL
bcc


@<TRIPOS>ATOM
      1 C10         1.3990    0.7970    2.4810 cx        1 1WV     -0.208500
      2 C13        -2.9620    0.1410    0.4270 c3        1 1WV     -0.161000
      3 C17        -6.6700   -2.0990    5.3990 c2        1 1WV     -0.320000
      4 C20        -5.3670    2.6890    3.5380 c1        1 1WV     -0.019000
      5 C07         2.2110    0.8720   -0.9200 c2        1 1WV     -0.157000
      6 C08         1.5770    0.1370   -0.0000 c2        1 1WV     -0.149000
      7 C09         0.7860    0.6830    1.1050 cx        1 1WV     -0.146000
      8 C11         0.3380   -0.2260    2.2220 cx        1 1WV     -0.208500
      9 C12        -3.3270   -0.8240   -0.6710 c3        1 1WV     -0.212000
     10 C14        -3.7450   -0.1260    1.6720 c2        1 1WV      0.325000
     11 O15        -4.9360   -0.4380    1.7980 o         1 1WV     -0.401000
     12 O16        -3.0300    0.0170    2.8210 oh        1 1WV     -0.322000
     13 C18        -5.9490   -0.9810    5.5090 c2        1 1WV     -0.023000
     14 O19        -5.5830   -0.1770    4.4540 oh        1 1WV     -0.325000
     15 H1          2.4450    0.4710    2.6250 hc        1 1WV      0.113750
     16 H2         -1.8620    0.0850    0.6590 hc        1 1WV      0.127000
     17 H3         -3.6000   -0.1350    3.5960 ho        1 1WV      0.253000
     18 H4         -7.0390   -2.4790    4.4380 ha        1 1WV      0.130500
     19 H5         -6.9310   -2.6990    6.2790 ha        1 1WV      0.130500
     20 H6         -4.9490    1.7230    3.1560 ha        1 1WV     -0.005000
     21 H8          2.7770    0.3760   -1.7260 ha        1 1WV      0.120000
     22 H10         1.6270   -0.9650   -0.0430 ha        1 1WV      0.120000
     23 H12         0.0940    1.4910    0.7870 hc        1 1WV      0.120000
     24 H13         1.1550    1.6820    3.0950 hc        1 1WV      0.113750
     25 H14        -3.0120   -1.8620   -0.4070 hc        1 1WV      0.089000
     26 H15        -4.4320   -0.8250   -0.8410 hc        1 1WV      0.089000
     27 H16        -5.5520   -0.5560    6.4450 h4        1 1WV      0.160000
     28 H17        -5.9370   -0.5470    3.6260 ho        1 1WV      0.250000
     29 H18        -6.3590    1.7490    4.9160 ho        1 1WV      0.164000
     30 C1          2.2180    2.3530   -0.9660 c3        1 1WV     -0.136000
     31 C2          3.5280    2.8950   -1.4830 c3        1 1WV     -0.212000
     32 C3          4.9030    1.8980    2.0860 c3        1 1WV     -0.187500
     33 C4          6.0990    2.0950    1.2440 c2        1 1WV     -0.170000
     34 C5          7.0700    2.9710    1.5200 c2        1 1WV     -0.170000
     35 C6          8.2670    3.1670    0.6800 c3        1 1WV     -0.187500
     36 H7         -2.8150   -0.5270   -1.6180 hc        1 1WV      0.089000
     37 H9         -3.1930    1.1960    0.1140 hc        1 1WV      0.127000
     38 H11        -0.6710   -0.0800    2.6540 hc        1 1WV      0.113750
     39 H19         0.6210   -1.2930    2.1860 hc        1 1WV      0.113750
     40 H20         2.0180    2.7760    0.0560 hc        1 1WV      0.087500
     41 H21         1.3800    2.6960   -1.6340 hc        1 1WV      0.087500
     42 H22         4.3680    2.6000   -0.8060 hc        1 1WV      0.075333
     43 H23         3.7440    2.5030   -2.5060 hc        1 1WV      0.075333
     44 H24         3.4900    4.0100   -1.5320 hc        1 1WV      0.075333
     45 H25         3.9740    2.0590    1.4800 hc        1 1WV      0.080000
     46 H26         4.8800    0.8500    2.4800 hc        1 1WV      0.080000
     47 H27         6.1490    1.4570    0.3460 ha        1 1WV      0.118000
     48 H28         4.8840    2.6000    2.9550 hc        1 1WV      0.080000
     49 H29         7.0190    3.6100    2.4180 ha        1 1WV      0.118000
     50 H30         8.3170    4.2260    0.3230 hc        1 1WV      0.080000
     51 H31         8.2640    2.4950   -0.2130 hc        1 1WV      0.080000
     52 H32         9.1910    2.9570    1.2740 hc        1 1WV      0.080000
     53 O21        -6.1630    2.6390    4.5400 oh        1 1WV     -0.147000
@<TRIPOS>BOND
     1    1    7 1   
     2    1    8 1   
     3    1   15 1   
     4    1   24 1   
     5    2    9 1   
     6    2   10 1   
     7    2   16 1   
     8    2   37 1   
     9    3   13 1   
    10    3   18 1   
    11    3   19 1   
    12    4   20 1   
    13    4   53 1   
    14    5    6 1   
    15    5   21 1   
    16    5   30 1   
    17    6    7 1   
    18    6   22 1   
    19    7    8 1   
    20    7   23 1   
    21    8   38 1   
    22    8   39 1   
    23    9   25 1   
    24    9   26 1   
    25    9   36 1   
    26   10   11 1   
    27   10   12 1   
    28   12   17 1   
    29   13   14 1   
    30   13   27 1   
    31   14   28 1   
    32   29   53 1   
    33   30   31 1   
    34   30   40 1   
    35   30   41 1   
    36   31   42 1   
    37   31   43 1   
    38   31   44 1   
    39   32   33 1   
    40   32   45 1   
    41   32   46 1   
    42   32   48 1   
    43   33   34 1   
    44   33   47 1   
    45   34   35 1   
    46   34   49 1   
    47   35   50 1   
    48   35   51 1   
    49   35   52 1   
@<TRIPOS>SUBSTRUCTURE
     1 1WV         1 TEMP              0 ****  ****    0 ROOT
