@<TRIPOS>MOLECULE
1WV
   53    52     1     0     0
SMALL
bcc


@<TRIPOS>ATOM
      1 C10        -0.7600   -1.5190    0.1180 c3        1 1WV     -0.077400
      2 C13         2.7000    0.1120   -0.1890 c3        1 1WV     -0.126400
      3 C17         6.3570   -0.2000   -0.7750 c3        1 1WV      0.104400
      4 C20         8.5560    0.1940    0.3560 c3        1 1WV      0.097400
      5 C07        -4.5120   -1.7670    0.2130 c2        1 1WV     -0.171200
      6 C08        -3.1960   -2.0070    0.2420 c2        1 1WV     -0.176200
      7 C09        -2.1650   -0.9540    0.0920 c3        1 1WV     -0.048200
      8 C11         0.2720   -0.4220   -0.0400 c3        1 1WV     -0.079400
      9 C12         1.6750   -0.9880   -0.0100 c3        1 1WV     -0.079400
     10 C14         4.0910   -0.4150   -0.0220 c         1 1WV      0.645100
     11 O15         4.5070   -1.2820    0.7510 o         1 1WV     -0.561000
     12 O16         4.9850    0.1870   -0.8670 os        1 1WV     -0.432900
     13 C18         7.0820    0.6170    0.2940 c3        1 1WV      0.118100
     14 O19         6.4970    0.4860    1.5730 oh        1 1WV     -0.596800
     15 H1         -0.5880   -2.0590    1.0860 hc        1 1WV      0.044700
     16 H2          2.5960    0.5900   -1.1990 hc        1 1WV      0.081200
     17 H3          6.4410   -1.2980   -0.5660 h1        1 1WV      0.078200
     18 H4          6.7760    0.0440   -1.7880 h1        1 1WV      0.078200
     19 H5          9.0650    0.7460    1.1900 h1        1 1WV      0.034200
     20 H6          8.6400   -0.9100    0.5420 h1        1 1WV      0.034200
     21 H8         -5.2300   -2.5940    0.3330 ha        1 1WV      0.123000
     22 H10        -2.8210   -3.0340    0.3850 ha        1 1WV      0.122000
     23 H12        -2.2810   -0.1980    0.9170 hc        1 1WV      0.047200
     24 H13        -2.3310   -0.4020   -0.8740 hc        1 1WV      0.047200
     25 H14         0.1020    0.1170   -1.0100 hc        1 1WV      0.041700
     26 H15         1.7940   -1.7500   -0.8240 hc        1 1WV      0.057200
     27 H16         7.0080    1.7160    0.0580 h1        1 1WV      0.094700
     28 H17         6.3250   -0.4540    1.7270 ho        1 1WV      0.420000
     29 H18        10.0890    0.3910   -0.7970 ho        1 1WV      0.406000
     30 C1         -5.0980   -0.4190    0.0250 c3        1 1WV     -0.049200
     31 C2         -6.6120   -0.4390    0.0740 c3        1 1WV     -0.077400
     32 C3         -7.1830    0.9490   -0.1200 c3        1 1WV     -0.079400
     33 C4         -8.6960    0.9320   -0.0730 c3        1 1WV     -0.079400
     34 C5         -9.2690    2.3200   -0.2660 c3        1 1WV     -0.080400
     35 C6        -10.7750    2.3070   -0.2200 c3        1 1WV     -0.093100
     36 H7         -0.6410   -2.2700   -0.7070 hc        1 1WV      0.044700
     37 H9          2.5550    0.9130    0.5870 hc        1 1WV      0.081200
     38 H11         0.1500    0.3300    0.7830 hc        1 1WV      0.041700
     39 H19         1.8570   -1.5140    0.9650 hc        1 1WV      0.057200
     40 H20        -4.7060    0.2740    0.8210 hc        1 1WV      0.047700
     41 H21        -4.7590    0.0010   -0.9620 hc        1 1WV      0.047700
     42 H22        -7.0050   -1.1230   -0.7250 hc        1 1WV      0.041700
     43 H23        -6.9520   -0.8520    1.0600 hc        1 1WV      0.041700
     44 H24        -6.7900    1.6330    0.6780 hc        1 1WV      0.039700
     45 H25        -6.8430    1.3620   -1.1060 hc        1 1WV      0.039700
     46 H26        -9.0900    0.2480   -0.8710 hc        1 1WV      0.039700
     47 H27        -9.0370    0.5190    0.9130 hc        1 1WV      0.039700
     48 H28        -8.8730    3.0020    0.5320 hc        1 1WV      0.038700
     49 H29        -8.9260    2.7320   -1.2520 hc        1 1WV      0.038700
     50 H30       -11.1770    3.3390   -0.3640 hc        1 1WV      0.032700
     51 H31       -11.1890    1.6520   -1.0240 hc        1 1WV      0.032700
     52 H32       -11.1370    1.9230    0.7640 hc        1 1WV      0.032700
     53 O21         9.1390    0.5200   -0.8940 oh        1 1WV     -0.602800
@<TRIPOS>BOND
     1    1    7 1   
     2    1    8 1   
     3    1   15 1   
     4    1   36 1   
     5    2    9 1   
     6    2   10 1   
     7    2   16 1   
     8    2   37 1   
     9    3   12 1   
    10    3   13 1   
    11    3   17 1   
    12    3   18 1   
    13    4   13 1   
    14    4   19 1   
    15    4   20 1   
    16    4   53 1   
    17    5    6 2   
    18    5   21 1   
    19    5   30 1   
    20    6    7 1   
    21    6   22 1   
    22    7   23 1   
    23    7   24 1   
    24    8    9 1   
    25    8   25 1   
    26    8   38 1   
    27    9   26 1   
    28    9   39 1   
    29   10   11 2   
    30   10   12 1   
    31   13   14 1   
    32   13   27 1   
    33   14   28 1   
    34   29   53 1   
    35   30   31 1   
    36   30   40 1   
    37   30   41 1   
    38   31   32 1   
    39   31   42 1   
    40   31   43 1   
    41   32   33 1   
    42   32   44 1   
    43   32   45 1   
    44   33   34 1   
    45   33   46 1   
    46   33   47 1   
    47   34   35 1   
    48   34   48 1   
    49   34   49 1   
    50   35   50 1   
    51   35   51 1   
    52   35   52 1   
@<TRIPOS>SUBSTRUCTURE
     1 1WV         1 TEMP              0 ****  ****    0 ROOT
