@<TRIPOS>MOLECULE
1WV
   53    49     1     0     0
SMALL
bcc


@<TRIPOS>ATOM
      1 C10        -0.2030   -0.1870    0.4950 c3        1 1WV     -0.216500
      2 C13        -3.3140   -0.0480    2.3460 cv        1 1WV     -0.338000
      3 C17        -6.6150   -0.1000    4.0510 c3        1 1WV     -0.130000
      4 C20       -10.6860    0.6470    7.0590 c3        1 1WV     -0.062000
      5 C07         5.1140    0.1290   -1.9740 cy        1 1WV     -0.121000
      6 C08         4.1160   -0.8350   -1.3530 cv        1 1WV     -0.176000
      7 C09         3.2530    0.1360   -0.9720 cv        1 1WV     -0.208000
      8 C11         0.1370    0.8860    1.4880 c3        1 1WV     -0.216500
      9 C12        -3.7610   -1.1460    1.3910 cy        1 1WV      0.010000
     10 C14        -4.5500   -0.1280    2.9190 cv        1 1WV      0.164000
     11 O15        -5.0860   -1.1420    2.1030 os        1 1WV     -0.264000
     12 O16        -5.2740    0.4240    3.9060 os        1 1WV     -0.230000
     13 C18        -7.2960    0.5910    5.1760 c1        1 1WV      0.025000
     14 O19        -6.7340    1.5070    5.8820 oh        1 1WV     -0.139000
     15 H1         -0.1280    0.2020   -0.5490 hc        1 1WV      0.072500
     16 H2         -3.9200   -0.8570    0.3330 h1        1 1WV      0.118500
     17 H3         -7.1890    0.0680    3.0990 h1        1 1WV      0.147000
     18 H4         -6.5670   -1.2040    4.2570 h1        1 1WV      0.147000
     19 H5        -10.0380    0.4480    7.9480 h1        1 1WV      0.059667
     20 H6        -11.7400    0.3420    7.2780 h1        1 1WV      0.059667
     21 H8          5.2470    0.0350   -3.0710 hc        1 1WV      0.106500
     22 H10         4.1560   -1.9120   -1.2830 ha        1 1WV      0.153000
     23 H12         2.3020    0.1790   -0.4590 ha        1 1WV      0.154000
     24 H13         0.4940   -1.0540    0.5960 hc        1 1WV      0.072500
     25 H14        -0.5620    1.7520    1.3890 hc        1 1WV      0.072500
     26 H15        -3.2890   -2.1410    1.5140 h1        1 1WV      0.118500
     27 H16       -10.6490    1.7370    6.8080 h1        1 1WV      0.059667
     28 H17        -5.8100    1.7460    5.6500 ho        1 1WV      0.198000
     29 H18        -9.3750    0.1070    5.7450 ho        1 1WV      0.224000
     30 C1          4.1070    1.2690   -1.5470 cy        1 1WV     -0.158000
     31 C2          4.6830    2.3000   -0.7250 c1        1 1WV     -0.062000
     32 C3          4.0820    2.7470    0.5090 c3        1 1WV     -0.272000
     33 C4          7.7940    3.4610   -0.4820 cu        1 1WV     -0.203000
     34 C5          9.0030    3.9250   -0.7320 cu        1 1WV     -0.203000
     35 C6          8.6830    3.6620    0.6970 cx        1 1WV     -0.179000
     36 H7         -1.2470   -0.5560    0.6580 hc        1 1WV      0.072500
     37 H9         -2.4040    0.5100    2.4660 ha        1 1WV      0.183000
     38 H11         1.1790    1.2580    1.3270 hc        1 1WV      0.072500
     39 H19         0.0630    0.4960    2.5330 hc        1 1WV      0.072500
     40 H20         3.6370    1.7740   -2.4330 hc        1 1WV      0.154000
     41 H21         6.0990    0.1850   -1.4660 hc        1 1WV      0.106500
     42 H22         6.4080    2.5500   -3.5090 ha        1 1WV      0.000250
     43 H23         6.1060    2.4000   -2.9200 ha        1 1WV      0.000250
     44 H24         3.8920    3.8520    0.4240 hc        1 1WV      0.110000
     45 H25         3.1340    2.2370    0.8180 hc        1 1WV      0.110000
     46 H26         4.8490    2.6110    1.3230 hc        1 1WV      0.110000
     47 H27         6.8110    3.1370   -0.7890 ha        1 1WV      0.205000
     48 H28         6.9440    2.8670    2.4340 ha        1 1WV      0.000250
     49 H29         6.5020    2.6660    2.9070 ha        1 1WV      0.000250
     50 H30         8.5060    4.5010    1.3960 hc        1 1WV      0.083500
     51 H31         9.1260    2.7930    1.2200 hc        1 1WV      0.083500
     52 H32         9.7620    4.2700   -1.3990 ha        1 1WV      0.205000
     53 O21       -10.2900   -0.1380    5.9590 oh        1 1WV     -0.351000
@<TRIPOS>BOND
     1    1    8 1   
     2    1   15 1   
     3    1   24 1   
     4    1   36 1   
     5    2    9 1   
     6    2   10 1   
     7    2   37 1   
     8    3   12 1   
     9    3   13 1   
    10    3   17 1   
    11    3   18 1   
    12    4   19 1   
    13    4   20 1   
    14    4   27 1   
    15    4   53 1   
    16    5    6 1   
    17    5   21 1   
    18    5   30 1   
    19    5   41 1   
    20    6    7 1   
    21    6   22 1   
    22    7   23 1   
    23    7   30 1   
    24    8   25 1   
    25    8   38 1   
    26    8   39 1   
    27    9   11 1   
    28    9   16 1   
    29    9   26 1   
    30   10   11 1   
    31   10   12 1   
    32   13   14 1   
    33   14   28 1   
    34   29   53 1   
    35   30   31 1   
    36   30   40 1   
    37   31   32 1   
    38   32   44 1   
    39   32   45 1   
    40   32   46 1   
    41   33   34 1   
    42   33   35 1   
    43   33   47 1   
    44   34   35 1   
    45   34   52 1   
    46   35   50 1   
    47   35   51 1   
    48   42   43 1   
    49   48   49 1   
@<TRIPOS>SUBSTRUCTURE
     1 1WV         1 TEMP              0 ****  ****    0 ROOT
