@<TRIPOS>MOLECULE
1WV
   53    49     1     0     0
SMALL
bcc


@<TRIPOS>ATOM
      1 C10        -0.7410    1.8200   -0.3770 c3        1 1WV     -0.155000
      2 C13        -3.1430    1.7430    2.6070 c3        1 1WV     -0.156000
      3 C17        -5.8820   -0.3800    4.1860 c3        1 1WV     -0.012000
      4 C20        -6.8830   -1.8190    5.9180 c3        1 1WV     -0.058000
      5 C07         2.6460    1.1830   -1.9140 c1        1 1WV     -0.164000
      6 C08         1.3380    1.5930   -1.7960 c1        1 1WV     -0.169000
      7 C09         0.7950    2.0550   -0.4290 c2        1 1WV     -0.130000
      8 C11        -1.2590    2.1120    1.0530 c3        1 1WV     -0.158000
      9 C12        -2.7110    1.6550    1.1730 c3        1 1WV     -0.158000
     10 C14        -4.4240    0.9390    2.8050 c1        1 1WV      0.305000
     11 O15        -5.0540    0.5590    1.8460 o         1 1WV     -0.353000
     12 O16        -4.9000    0.6730    4.1220 o         1 1WV     -0.283000
     13 C18        -6.4970   -0.4180    5.5810 c3        1 1WV      0.029000
     14 O19        -7.6440    0.4040    5.6120 oh        1 1WV     -0.327000
     15 O21        -7.6330   -1.8230    7.0920 oh        1 1WV     -0.339000
     16 H1         -1.1870    2.4210   -1.0160 hc        1 1WV      0.084000
     17 H2         -3.3050    2.6710    2.8390 hc        1 1WV      0.118500
     18 H3         -6.5910   -0.2100    3.5190 h1        1 1WV      0.107500
     19 H4         -5.4480   -1.2470    3.9930 h1        1 1WV      0.107500
     20 H5         -7.4170   -2.1950    5.1890 h1        1 1WV      0.077000
     21 H6         -6.0770   -2.3590    6.0440 h1        1 1WV      0.077000
     22 H8          3.2340    1.1850   -1.1260 DU        1 1WV      0.120000
     23 H10         0.7510    1.5910   -2.5820 ha        1 1WV      0.121000
     24 H12         0.9830    3.0110   -0.3080 ha        1 1WV      0.085000
     25 H13         1.2350    1.5370    0.2940 ha        1 1WV      0.085000
     26 H14        -1.2050    3.0690    1.2290 hc        1 1WV      0.080500
     27 H15        -3.2760    2.2270    0.6290 hc        1 1WV      0.097500
     28 H16        -5.8490   -0.0970    6.2300 h1        1 1WV      0.109000
     29 H17        -7.7140    0.7930    6.4230 ho        1 1WV      0.220000
     30 H18        -7.5380   -2.5960    7.4980 ho        1 1WV      0.209000
     31 C1          3.1900    0.7230   -3.2770 c3        1 1WV     -0.132000
     32 C2          4.5570   -0.0060   -3.0690 c3        1 1WV     -0.155000
     33 C3          4.9590   -0.7140   -4.3520 c3        1 1WV     -0.158000
     34 C4          6.2960   -1.4740   -4.1280 c3        1 1WV     -0.158000
     35 C5          6.5130   -2.4630   -5.2670 c3        1 1WV     -0.159000
     36 C6          7.8380   -3.1680   -5.0760 c3        1 1WV     -0.210000
     37 H7         -0.9400    0.8780   -0.6150 hc        1 1WV      0.084000
     38 H9         -2.4410    1.3820    3.1810 hc        1 1WV      0.118500
     39 H11        -0.7080    1.6280    1.7060 hc        1 1WV      0.080500
     40 H19        -2.7880    0.7380    0.8670 hc        1 1WV      0.097500
     41 H20         3.3210    1.5070   -3.8610 hc        1 1WV      0.085500
     42 H21         2.5550    0.1110   -3.6910 hc        1 1WV      0.085500
     43 H22         4.4700   -0.6610   -2.3500 hc        1 1WV      0.081000
     44 H23         5.2390    0.6460   -2.8320 hc        1 1WV      0.081000
     45 H24         5.0740   -0.0490   -5.0720 hc        1 1WV      0.079000
     46 H25         4.2680   -1.3440   -4.6030 hc        1 1WV      0.079000
     47 H26         7.0430   -0.8280   -4.1050 hc        1 1WV      0.079000
     48 H27         6.2570   -1.9580   -3.2810 hc        1 1WV      0.079000
     49 H28         5.7980   -3.1140   -5.2700 hc        1 1WV      0.078000
     50 H29         6.5200   -1.9810   -6.1230 hc        1 1WV      0.078000
     51 H30         7.9290   -3.8790   -5.7430 hc        1 1WV      0.072000
     52 H31         8.5720   -2.5200   -5.1850 hc        1 1WV      0.072000
     53 H32         7.8750   -3.5520   -4.1870 hc        1 1WV      0.072000
@<TRIPOS>BOND
     1    1    7 1   
     2    1    8 1   
     3    1   16 1   
     4    1   37 1   
     5    2    9 1   
     6    2   10 1   
     7    2   17 1   
     8    2   38 1   
     9    3   12 1   
    10    3   13 1   
    11    3   18 1   
    12    3   19 1   
    13    4   13 1   
    14    4   15 1   
    15    4   20 1   
    16    4   21 1   
    17    5    6 1   
    18    5   31 1   
    19    6   23 1   
    20    7   24 1   
    21    7   25 1   
    22    8    9 1   
    23    8   26 1   
    24    8   39 1   
    25    9   27 1   
    26    9   40 1   
    27   10   11 1   
    28   13   14 1   
    29   13   28 1   
    30   14   29 1   
    31   15   30 1   
    32   31   32 1   
    33   31   41 1   
    34   31   42 1   
    35   32   33 1   
    36   32   43 1   
    37   32   44 1   
    38   33   34 1   
    39   33   45 1   
    40   33   46 1   
    41   34   35 1   
    42   34   47 1   
    43   34   48 1   
    44   35   36 1   
    45   35   49 1   
    46   35   50 1   
    47   36   51 1   
    48   36   52 1   
    49   36   53 1   
@<TRIPOS>SUBSTRUCTURE
     1 1WV         1 TEMP              0 ****  ****    0 ROOT
