@<TRIPOS>MOLECULE
1WW
   36    35     1     0     0
SMALL
bcc


@<TRIPOS>ATOM
      1 C1         -0.6760    0.1200   -0.8930 c2        1 1WW     -0.054000
      2 CL1         4.4170    5.8390   -5.9690 cl        1 1WW     -0.034000
      3 C2          0.3700   -0.2730   -1.5660 c1        1 1WW     -0.223000
      4 C3          5.5870    1.0650    0.4200 c2        1 1WW     -0.197000
      5 C4         -0.6500    1.2320    0.0440 c2        1 1WW     -0.088000
      6 C5          4.5100    0.9880   -0.3610 c2        1 1WW     -0.038000
      7 C6         -1.5700    1.4690    0.9790 c2        1 1WW     -0.352000
      8 I7         -3.2160    0.3830    1.3900 i         1 1WW      0.098000
      9 C8          1.4480   -0.6660   -2.2020 c2        1 1WW     -0.035000
     10 N9          1.9560   -0.1070   -3.3860 n3        1 1WW     -0.333000
     11 C10         4.3560    1.3440   -2.7030 c2        1 1WW      0.448000
     12 O11         4.7170    0.5480   -1.7000 os        1 1WW     -0.117000
     13 C12         4.1370    3.6240   -3.5420 c2        1 1WW     -0.010000
     14 C13         3.7510    2.6810   -2.6140 c2        1 1WW      0.079000
     15 C14         2.8420    2.8840   -1.6050 c1        1 1WW     -0.660000
     16 C15         3.6620    4.9840   -3.5000 c2        1 1WW     -0.111000
     17 C16         1.9850    3.0870   -0.7310 c1        1 1WW     -0.038000
     18 C17         3.7380    5.9490   -4.4250 c2        1 1WW     -0.135000
     19 C20         4.6530    2.5010   -5.5390 c3        1 1WW     -0.036000
     20 C21         4.2880    1.1120   -5.1080 c2        1 1WW      0.308000
     21 O22         3.7780    0.1940   -5.7230 o         1 1WW     -0.213000
     22 O23         4.6900    0.6680   -3.8080 os        1 1WW     -0.217000
     23 H1         -1.6450   -0.4010   -1.0260 ha        1 1WW      0.143000
     24 H3          5.4750    1.2820    1.4920 ha        1 1WW      0.148500
     25 H4          0.2150    1.9320   -0.0620 ha        1 1WW      0.196000
     26 H5         -1.4790    2.3430    1.6370 h4        1 1WW      0.149000
     27 H8          6.6120    0.9090    0.0600 ha        1 1WW      0.148500
     28 H8A         2.0880   -1.4660   -1.7740 h4        1 1WW      0.150000
     29 HN9         2.2770   -0.8090   -4.0260 hn        1 1WW      0.173000
     30 H14         3.4480    1.1590   -0.1200 h4        1 1WW      0.221000
     31 H15         3.1430    5.2210   -2.5440 ha        1 1WW      0.185000
     32 H16         3.3260    6.9520   -4.2380 h4        1 1WW      0.159000
     33 H20         3.7610    2.9760   -6.0330 h1        1 1WW      0.157000
     34 H20A        5.5200    2.4450   -6.2570 h1        1 1WW      0.157000
     35 H92         1.3080    0.5090   -3.8350 hn        1 1WW      0.173000
     36 O19         5.1350    3.2840   -4.4610 os        1 1WW     -0.203000
@<TRIPOS>BOND
     1    1    3 1   
     2    1    5 1   
     3    1   23 1   
     4    2   18 1   
     5    3    9 1   
     6    4    6 1   
     7    4   24 1   
     8    4   27 1   
     9    5    7 1   
    10    5   25 1   
    11    6   12 1   
    12    6   30 1   
    13    7    8 1   
    14    7   26 1   
    15    9   10 1   
    16    9   28 1   
    17   10   29 1   
    18   10   35 1   
    19   11   12 1   
    20   11   14 1   
    21   11   22 1   
    22   13   14 1   
    23   13   16 1   
    24   13   36 1   
    25   14   15 1   
    26   15   17 1   
    27   16   18 1   
    28   16   31 1   
    29   18   32 1   
    30   19   20 1   
    31   19   33 1   
    32   19   34 1   
    33   19   36 1   
    34   20   21 1   
    35   20   22 1   
@<TRIPOS>SUBSTRUCTURE
     1 1WW         1 TEMP              0 ****  ****    0 ROOT
