@<TRIPOS>MOLECULE
1WW
   36    34     1     0     0
SMALL
bcc


@<TRIPOS>ATOM
      1 C1         -0.6440   -1.4520    0.6400 c3        1 1WW     -0.014000
      2 Cl1         6.4610    6.6700   -3.9280 cl        1 1WW      0.018000
      3 C2          0.5190   -0.7660    0.0250 c2        1 1WW     -0.280000
      4 C3          4.0760    0.7700    0.4510 c1        1 1WW     -0.225000
      5 C4         -1.3930   -0.5880    1.5090 c1        1 1WW     -0.059000
      6 C5          3.5180    0.6830    1.5050 c1        1 1WW     -0.225000
      7 C6         -2.0270    0.1240    2.2370 c1        1 1WW     -0.414000
      8 I7         -3.0360    1.2570    3.3950 i         1 1WW      0.289000
      9 C8          0.7100   -0.7360   -1.3110 c2        1 1WW     -0.037000
     10 N9          1.7120   -0.0330   -1.9690 n8        1 1WW     -0.339000
     11 C10         4.2660    1.8120   -3.7740 c2        1 1WW      0.385000
     12 O11         4.2790    1.0450   -2.8130 o         1 1WW     -0.291000
     13 C12         4.4590    4.1890   -4.4320 c2        1 1WW      0.086000
     14 C13         3.7810    3.2030   -3.7850 c2        1 1WW     -0.089000
     15 C14         2.5870    3.4640   -3.0190 c2        1 1WW     -0.438000
     16 C15         4.0410    5.5810   -4.4280 c2        1 1WW     -0.195000
     17 C16         2.0140    4.6350   -2.8000 c1        1 1WW      0.231000
     18 C17         4.8070    6.6610   -4.2330 c2        1 1WW     -0.074000
     19 C20         5.4690    3.1740   -6.2970 c3        1 1WW     -0.049000
     20 C21         4.8830    1.7990   -6.1400 c2        1 1WW      0.286000
     21 O22         4.6020    1.0470   -7.0680 o         1 1WW     -0.255000
     22 O23         4.7250    1.1820   -4.9120 os        1 1WW     -0.266000
     23 H1         -0.2720   -2.3330    1.2410 hc        1 1WW      0.104000
     24 H3          1.2180   -0.2830    0.7260 ha        1 1WW      0.138000
     25 H4         -1.3370   -1.8600   -0.1510 hc        1 1WW      0.104000
     26 H5          3.0220    0.6070    2.4400 ha        1 1WW      0.226500
     27 H8          4.5710    0.8470   -0.4880 ha        1 1WW      0.226500
     28 H8A        -0.0040   -1.2370   -1.9960 h4        1 1WW      0.130000
     29 HN9         2.4620    0.2820   -1.3850 hn        1 1WW      0.187000
     30 H14         2.1060    2.5730   -2.5450 ha        1 1WW      0.232000
     31 H15         2.9520    5.7290   -4.5920 ha        1 1WW      0.164000
     32 H16         4.3770    7.6760   -4.2440 h4        1 1WW      0.162000
     33 H20         4.8320    3.7620   -7.0110 h1        1 1WW      0.145500
     34 H20A        6.5170    3.0740   -6.7030 h1        1 1WW      0.145500
     35 H92         2.0510   -0.4840   -2.7920 hn        1 1WW      0.187000
     36 O19         5.6530    3.8880   -5.0820 os        1 1WW     -0.198000
@<TRIPOS>BOND
     1    1    3 1   
     2    1    5 1   
     3    1   23 1   
     4    1   25 1   
     5    2   18 1   
     6    3    9 1   
     7    3   24 1   
     8    4    6 1   
     9    4   27 1   
    10    5    7 1   
    11    6   26 1   
    12    7    8 1   
    13    9   10 1   
    14    9   28 1   
    15   10   29 1   
    16   10   35 1   
    17   11   12 1   
    18   11   14 1   
    19   11   22 1   
    20   13   14 1   
    21   13   16 1   
    22   13   36 1   
    23   14   15 1   
    24   15   17 1   
    25   15   30 1   
    26   16   18 1   
    27   16   31 1   
    28   18   32 1   
    29   19   20 1   
    30   19   33 1   
    31   19   34 1   
    32   19   36 1   
    33   20   21 1   
    34   20   22 1   
@<TRIPOS>SUBSTRUCTURE
     1 1WW         1 TEMP              0 ****  ****    0 ROOT
