@<TRIPOS>MOLECULE
1WX
   36    37     1     0     0
SMALL
bcc


@<TRIPOS>ATOM
      1 C1         -0.8730    0.0750    0.0030 ca        1 1WX     -0.121300
      2 C2          0.3580    0.3800   -0.6010 ca        1 1WX      0.109900
      3 C3         -0.9420    0.0460    1.4050 ca        1 1WX      0.109900
      4 C4          1.5130    0.6510    0.1830 ca        1 1WX      0.130900
      5 C5          0.2090    0.3200    2.1970 ca        1 1WX      0.130900
      6 C6          1.4450    0.6220    1.5910 ca        1 1WX     -0.066900
      7 C7         -2.0980   -0.1810   -0.8380 c3        1 1WX      0.138300
      8 C9         -2.6910   -2.4230   -1.6770 c         1 1WX      0.683700
      9 C10        -2.4040   -3.5180   -2.6510 ca        1 1WX     -0.145600
     10 C11        -2.1010   -3.3260   -4.0090 ca        1 1WX      0.121100
     11 C12        -2.4720   -4.8300   -2.1620 ca        1 1WX     -0.054000
     12 C13        -1.8720   -4.4150   -4.8620 ca        1 1WX     -0.183000
     13 C14        -2.2420   -5.9210   -2.9950 ca        1 1WX     -0.142000
     14 C15        -1.9410   -5.7100   -4.3460 ca        1 1WX      0.059400
     15 C18        -2.6590   -1.7460   -5.7010 c3        1 1WX      0.032400
     16 C19        -1.7340   -1.8500   -6.8880 c         1 1WX      0.596100
     17 O21        -2.0840   -1.7890   -8.0660 o         1 1WX     -0.478000
     18 O20        -0.3960   -2.0170   -6.7030 oh        1 1WX     -0.570100
     19 O17        -1.9640   -2.0260   -4.4850 os        1 1WX     -0.354900
     20 CL2        -1.6590   -7.0330   -5.3660 cl        1 1WX     -0.062400
     21 O16        -3.5600   -2.5720   -0.7940 o         1 1WX     -0.597100
     22 N8         -1.9490   -1.2640   -1.7640 n         1 1WX     -0.562900
     23 F27        -2.1030   -0.2370    2.0350 f         1 1WX     -0.110900
     24 F24         0.4660    0.4260   -1.9500 f         1 1WX     -0.110900
     25 F25         2.6620    0.9360   -0.4670 f         1 1WX     -0.098900
     26 F26         0.0700    0.2760    3.5400 f         1 1WX     -0.098900
     27 BR2         2.9630    0.9780    2.6310 br        1 1WX     -0.009100
     28 H1         -2.3060    0.7670   -1.4180 h1        1 1WX      0.087200
     29 H2         -2.9810   -0.3900   -0.1630 h1        1 1WX      0.087200
     30 H3         -2.7310   -4.9870   -1.1010 ha        1 1WX      0.170000
     31 H4         -1.6340   -4.2400   -5.9240 ha        1 1WX      0.165000
     32 H5         -2.3030   -6.9440   -2.5910 ha        1 1WX      0.161000
     33 H6         -3.5440   -2.4180   -5.8470 h1        1 1WX      0.104700
     34 H7         -2.9970   -0.6780   -5.5900 h1        1 1WX      0.104700
     35 H9         -1.2810   -1.1600   -2.4940 hn        1 1WX      0.330500
     36 H82        -0.1910   -2.0280   -5.7540 ho        1 1WX      0.441000
@<TRIPOS>BOND
     1    1    2 ar  
     2    1    3 ar  
     3    1    7 1   
     4    2    4 ar  
     5    2   24 1   
     6    3    5 ar  
     7    3   23 1   
     8    4    6 ar  
     9    4   25 1   
    10    5    6 ar  
    11    5   26 1   
    12    6   27 1   
    13    7   22 1   
    14    7   28 1   
    15    7   29 1   
    16    8    9 1   
    17    8   21 2   
    18    8   22 1   
    19    9   10 ar  
    20    9   11 ar  
    21   10   12 ar  
    22   10   19 1   
    23   11   13 ar  
    24   11   30 1   
    25   12   14 ar  
    26   12   31 1   
    27   13   14 ar  
    28   13   32 1   
    29   14   20 1   
    30   15   16 1   
    31   15   19 1   
    32   15   33 1   
    33   15   34 1   
    34   16   17 2   
    35   16   18 1   
    36   18   36 1   
    37   22   35 1   
@<TRIPOS>SUBSTRUCTURE
     1 1WX         1 TEMP              0 ****  ****    0 ROOT
