@<TRIPOS>MOLECULE
1WX
   36    37     1     0     0
SMALL
bcc


@<TRIPOS>ATOM
      1 C1         -0.5500   -0.0200   -0.2360 ca        1 1WX     -0.127300
      2 C2          0.7640   -0.0450   -0.7340 ca        1 1WX      0.110900
      3 C3         -0.7380    0.0920    1.1510 ca        1 1WX      0.110900
      4 C4          1.8820    0.0350    0.1400 ca        1 1WX      0.130900
      5 C5          0.3770    0.1760    2.0330 ca        1 1WX      0.130900
      6 C6          1.6950    0.1460    1.5340 ca        1 1WX     -0.066900
      7 C7         -1.7300   -0.0730   -1.1730 c3        1 1WX      0.134300
      8 C9         -2.6070   -2.2860   -1.8230 c         1 1WX      0.679700
      9 C10        -2.4340   -3.5020   -2.6690 ca        1 1WX     -0.164600
     10 C11        -2.1250   -3.4890   -4.0420 ca        1 1WX      0.156100
     11 C12        -2.6220   -4.7400   -2.0380 ca        1 1WX     -0.045000
     12 C13        -1.9900   -4.6840   -4.7630 ca        1 1WX     -0.197000
     13 C14        -2.4930   -5.9340   -2.7410 ca        1 1WX     -0.153000
     14 C15        -2.1740   -5.9010   -4.1030 ca        1 1WX      0.066400
     15 C18        -2.1750   -2.1830   -6.0390 c3        1 1WX      0.031400
     16 C19        -2.4730   -0.7400   -6.3650 c         1 1WX      0.629100
     17 O21        -2.5320   -0.2880   -7.5080 o         1 1WX     -0.481000
     18 O20        -2.7130    0.1640   -5.3810 oh        1 1WX     -0.567100
     19 O17        -1.9120   -2.2550   -4.6330 os        1 1WX     -0.357900
     20 Cl2        -2.0090   -7.3500   -4.9680 cl        1 1WX     -0.067400
     21 O16        -3.4950   -2.2390   -0.9480 o         1 1WX     -0.589100
     22 N8         -1.7540   -1.2170   -2.0360 ns        1 1WX     -0.565900
     23 F27        -1.9800    0.1270    1.6810 f         1 1WX     -0.109900
     24 F24         0.9900   -0.1420   -2.0650 f         1 1WX     -0.109900
     25 F25         3.1150    0.0030   -0.4100 f         1 1WX     -0.098900
     26 F26         0.1220    0.2820    3.3550 f         1 1WX     -0.098900
     27 Br2         3.1630    0.2510    2.6930 br        1 1WX     -0.009100
     28 H1         -1.6830    0.8530   -1.8210 h1        1 1WX      0.091200
     29 H2         -2.6880   -0.0460   -0.5730 h1        1 1WX      0.091200
     30 H3         -2.8920   -4.7530   -0.9680 ha        1 1WX      0.169000
     31 H4         -1.7350   -4.6670   -5.8330 ha        1 1WX      0.160000
     32 H5         -2.6460   -6.8960   -2.2270 ha        1 1WX      0.161000
     33 H6         -1.2580   -2.5150   -6.5960 h1        1 1WX      0.090200
     34 H7         -3.0550   -2.8180   -6.3240 h1        1 1WX      0.090200
     35 H9         -1.0060   -1.3200   -2.6840 hn        1 1WX      0.327500
     36 H82        -2.6630   -0.2560   -4.5080 ho        1 1WX      0.448000
@<TRIPOS>BOND
     1    1    2 ar  
     2    1    3 ar  
     3    1    7 1   
     4    2    4 ar  
     5    2   24 1   
     6    3    5 ar  
     7    3   23 1   
     8    4    6 ar  
     9    4   25 1   
    10    5    6 ar  
    11    5   26 1   
    12    6   27 1   
    13    7   22 1   
    14    7   28 1   
    15    7   29 1   
    16    8    9 1   
    17    8   21 2   
    18    8   22 1   
    19    9   10 ar  
    20    9   11 ar  
    21   10   12 ar  
    22   10   19 1   
    23   11   13 ar  
    24   11   30 1   
    25   12   14 ar  
    26   12   31 1   
    27   13   14 ar  
    28   13   32 1   
    29   14   20 1   
    30   15   16 1   
    31   15   19 1   
    32   15   33 1   
    33   15   34 1   
    34   16   17 2   
    35   16   18 1   
    36   18   36 1   
    37   22   35 1   
@<TRIPOS>SUBSTRUCTURE
     1 1WX         1 TEMP              0 ****  ****    0 ROOT
