@<TRIPOS>MOLECULE
1WX
   36    37     1     0     0
SMALL
bcc


@<TRIPOS>ATOM
      1 C1         -0.5730    0.0050   -0.2510 ca        1 1WX     -0.127300
      2 C2          0.7430   -0.0140   -0.7440 ca        1 1WX      0.110900
      3 C3         -0.7670    0.1280    1.1340 ca        1 1WX      0.110900
      4 C4          1.8570    0.0830    0.1340 ca        1 1WX      0.130900
      5 C5          0.3440    0.2280    2.0200 ca        1 1WX      0.130900
      6 C6          1.6640    0.2040    1.5260 ca        1 1WX     -0.066900
      7 C7         -1.7490   -0.0650   -1.1920 c3        1 1WX      0.134300
      8 C9         -2.6080   -2.2900   -1.8240 c         1 1WX      0.679700
      9 C10        -2.4220   -3.5130   -2.6580 ca        1 1WX     -0.164600
     10 C11        -2.1070   -3.5110   -4.0290 ca        1 1WX      0.156100
     11 C12        -2.6050   -4.7460   -2.0160 ca        1 1WX     -0.045000
     12 C13        -1.9600   -4.7120   -4.7380 ca        1 1WX     -0.197000
     13 C14        -2.4650   -5.9460   -2.7060 ca        1 1WX     -0.153000
     14 C15        -2.1390   -5.9230   -4.0670 ca        1 1WX      0.066400
     15 C18        -2.1540   -2.2250   -6.0390 c3        1 1WX      0.031400
     16 C19        -2.4590   -0.7870   -6.3820 c         1 1WX      0.629100
     17 O21        -2.5130   -0.3470   -7.5290 o         1 1WX     -0.481000
     18 O20        -2.7100    0.1260   -5.4090 oh        1 1WX     -0.567100
     19 O17        -1.9000   -2.2810   -4.6310 os        1 1WX     -0.357900
     20 CL2        -1.9590   -7.3800   -4.9170 cl        1 1WX     -0.067400
     21 O16        -3.5000   -2.2410   -0.9540 o         1 1WX     -0.589100
     22 N8         -1.7620   -1.2170   -2.0440 n         1 1WX     -0.565900
     23 F27        -2.0110    0.1580    1.6590 f         1 1WX     -0.109900
     24 F24         0.9740   -0.1200   -2.0730 f         1 1WX     -0.109900
     25 F25         3.0920    0.0560   -0.4110 f         1 1WX     -0.098900
     26 F26         0.0830    0.3440    3.3400 f         1 1WX     -0.098900
     27 BR2         3.1270    0.3300    2.6890 br        1 1WX     -0.009100
     28 H1         -1.7060    0.8560   -1.8480 h1        1 1WX      0.091200
     29 H2         -2.7090   -0.0390   -0.5950 h1        1 1WX      0.091200
     30 H3         -2.8810   -4.7500   -0.9470 ha        1 1WX      0.169000
     31 H4         -1.7000   -4.7040   -5.8070 ha        1 1WX      0.160000
     32 H5         -2.6140   -6.9030   -2.1840 ha        1 1WX      0.161000
     33 H6         -3.0300   -2.8680   -6.3230 h1        1 1WX      0.090200
     34 H7         -1.2320   -2.5570   -6.5870 h1        1 1WX      0.090200
     35 H9         -1.0100   -1.3210   -2.6870 hn        1 1WX      0.327500
     36 H82        -2.6630   -0.2860   -4.5310 ho        1 1WX      0.448000
@<TRIPOS>BOND
     1    1    2 ar  
     2    1    3 ar  
     3    1    7 1   
     4    2    4 ar  
     5    2   24 1   
     6    3    5 ar  
     7    3   23 1   
     8    4    6 ar  
     9    4   25 1   
    10    5    6 ar  
    11    5   26 1   
    12    6   27 1   
    13    7   22 1   
    14    7   28 1   
    15    7   29 1   
    16    8    9 1   
    17    8   21 2   
    18    8   22 1   
    19    9   10 ar  
    20    9   11 ar  
    21   10   12 ar  
    22   10   19 1   
    23   11   13 ar  
    24   11   30 1   
    25   12   14 ar  
    26   12   31 1   
    27   13   14 ar  
    28   13   32 1   
    29   14   20 1   
    30   15   16 1   
    31   15   19 1   
    32   15   33 1   
    33   15   34 1   
    34   16   17 2   
    35   16   18 1   
    36   18   36 1   
    37   22   35 1   
@<TRIPOS>SUBSTRUCTURE
     1 1WX         1 TEMP              0 ****  ****    0 ROOT
