@<TRIPOS>MOLECULE
1WY
   50    38     1     0     0
SMALL
bcc


@<TRIPOS>ATOM
      1 C2          0.6190    0.1260   -0.5530 c1        1 1WY      0.145000
      2 C3          2.4980    0.7230    0.7100 c1        1 1WY      0.066500
      3 C5          1.9780    0.0620    1.7840 c1        1 1WY     -0.220000
      4 C6          0.7720   -0.5670    1.6780 c1        1 1WY     -0.003000
      5 C8         -1.5400    0.1530   -1.7210 c1        1 1WY      0.038000
      6 C11        -3.5470   -1.0890   -1.2790 c1        1 1WY      0.056000
      7 C12        -3.6700    1.2590   -1.7620 c1        1 1WY     -0.166000
      8 O14        -1.6620    2.5040   -2.2690 os        1 1WY     -0.226000
      9 C15        -2.1130    3.6320   -1.5560 c3        1 1WY     -0.071000
     10 C17        -5.4820   -2.2750   -0.3320 c1        1 1WY      0.309000
     11 C19        -6.1720   -3.5670    0.0400 c2        1 1WY     -0.186000
     12 C23         3.9820    2.7010    1.1350 c1        1 1WY      0.066500
     13 C24         5.1280    0.8280    0.7450 c1        1 1WY     -0.027500
     14 C27         5.5890   -0.4700    0.4530 c1        1 1WY     -0.122250
     15 C30         7.8580    0.2690    0.7470 c1        1 1WY     -0.122250
     16 CL1         2.8120    0.0940    3.3150 cl        1 1WY      0.021000
     17 C22         3.8620    1.3660    0.8070 c1        1 1WY     -0.141000
     18 C28         6.9490   -0.7400    0.4560 c1        1 1WY     -0.122250
     19 C29         7.4040    1.5490    1.0350 c1        1 1WY     -0.122250
     20 C26         6.0250    1.8240    1.0320 c1        1 1WY     -0.027500
     21 N25         5.3120    2.9850    1.2730 n1        1 1WY     -0.212500
     22 N1          1.8230    0.7540   -0.4480 n1        1 1WY     -0.212500
     23 N4          0.0990   -0.5350    0.5190 n1        1 1WY     -0.204000
     24 N7         -0.1260    0.2190   -1.7570 n2        1 1WY     -0.201000
     25 C10        -2.2920    1.3040   -1.8950 c2        1 1WY      0.023000
     26 C13        -4.2980    0.0620   -1.4530 c1        1 1WY     -0.128000
     27 C9         -2.1690   -1.0440   -1.4120 c1        1 1WY     -0.131000
     28 N16        -4.1850   -2.3030   -0.9060 n3        1 1WY     -0.323000
     29 O18        -6.0470   -1.2140   -0.1590 o         1 1WY     -0.356000
     30 C20        -5.9500   -3.8530    1.5080 c3        1 1WY     -0.213000
     31 H1          0.3990   -1.0410    2.4460 ha        1 1WY      0.173000
     32 H2         -4.2000    2.0710   -1.8850 ha        1 1WY      0.142000
     33 H3         -2.9270    3.9830   -1.9790 h1        1 1WY      0.085000
     34 H4         -1.4170    4.3230   -1.5630 h1        1 1WY      0.085000
     35 H5         -2.3100    3.3760   -0.6290 h1        1 1WY      0.085000
     36 H6         -5.8030   -4.2990   -0.4930 ha        1 1WY      0.113000
     37 H7         -7.1300   -3.4880   -0.1350 ha        1 1WY      0.113000
     38 H8          3.2450    3.3320    1.2520 DU        1 1WY      0.214500
     39 H9          4.9500   -1.1800    0.2490 ha        1 1WY      0.133500
     40 H10         8.8150    0.0780    0.7490 ha        1 1WY      0.133500
     41 H11         7.2680   -1.6400    0.2540 ha        1 1WY      0.133500
     42 H12         8.0430    2.2590    1.2390 ha        1 1WY      0.133500
     43 H13         5.6670    3.7980    1.4880 DU        1 1WY      0.214500
     44 H14         0.3060    0.3360   -2.5530 hn        1 1WY      0.240000
     45 H15        -5.2680    0.0310   -1.3590 ha        1 1WY      0.177000
     46 H16        -1.6400   -1.8550   -1.2890 ha        1 1WY      0.154000
     47 H17        -3.7480   -3.0970   -1.0050 hn        1 1WY      0.232000
     48 H18        -6.2610   -4.7590    1.7160 hc        1 1WY      0.083000
     49 H19        -6.4500   -3.2050    2.0460 hc        1 1WY      0.083000
     50 H20        -4.9950   -3.7800    1.7140 hc        1 1WY      0.083000
@<TRIPOS>BOND
     1    1   23 1   
     2    1   24 1   
     3    2   17 1   
     4    2   22 1   
     5    3    4 1   
     6    4   31 1   
     7    5   25 1   
     8    5   27 1   
     9    6   26 1   
    10    6   28 1   
    11    7   25 1   
    12    7   32 1   
    13    8    9 1   
    14    8   25 1   
    15    9   33 1   
    16    9   34 1   
    17    9   35 1   
    18   10   28 1   
    19   10   29 1   
    20   11   30 1   
    21   11   36 1   
    22   11   37 1   
    23   12   17 1   
    24   12   21 1   
    25   13   20 1   
    26   14   18 1   
    27   14   39 1   
    28   15   19 1   
    29   15   40 1   
    30   18   41 1   
    31   19   42 1   
    32   24   44 1   
    33   26   45 1   
    34   27   46 1   
    35   28   47 1   
    36   30   48 1   
    37   30   49 1   
    38   30   50 1   
@<TRIPOS>SUBSTRUCTURE
     1 1WY         1 TEMP              0 ****  ****    0 ROOT
