@<TRIPOS>MOLECULE
1WY
   50    53     1     0     0
SMALL
bcc


@<TRIPOS>ATOM
      1 C2          0.1070    0.1480   -0.3550 ca        1 1WY      0.867900
      2 C3          2.2830    0.9600   -0.0080 ca        1 1WY      0.597100
      3 C5          1.7330    2.1090    0.6240 ca        1 1WY     -0.283200
      4 C6          0.3280    2.1840    0.7230 ca        1 1WY      0.467200
      5 C8         -2.0310   -1.0540   -0.5270 ca        1 1WY      0.118600
      6 C11        -4.3610   -0.3000   -0.3410 ca        1 1WY      0.047600
      7 C12        -3.7530   -2.5330    0.3840 ca        1 1WY     -0.167000
      8 C15        -1.8170   -4.5420    0.5960 c3        1 1WY      0.118700
      9 C17        -6.6550    0.7060   -0.3620 c         1 1WY      0.665100
     10 C19        -7.4070    1.9950   -0.6650 c3        1 1WY     -0.157400
     11 C23         4.6440    1.7740   -0.5020 cc        1 1WY     -0.053100
     12 C24         4.4540   -0.4570   -0.0050 ca        1 1WY     -0.052800
     13 C27         4.1080   -1.7690    0.3240 ca        1 1WY     -0.072000
     14 C30         6.4530   -2.4070    0.1350 ca        1 1WY     -0.113000
     15 CL1         2.6680    3.3490    1.2880 cl        1 1WY     -0.072400
     16 C22         3.7160    0.7840   -0.1540 cd        1 1WY     -0.238000
     17 C28         5.1080   -2.7290    0.3900 ca        1 1WY     -0.155000
     18 C29         6.8400   -1.1170   -0.1940 ca        1 1WY     -0.144000
     19 C26         5.8400   -0.1370   -0.2660 ca        1 1WY     -0.057200
     20 N25         5.9210    1.2280   -0.5690 na        1 1WY     -0.185400
     21 N1          1.4780   -0.0220   -0.4820 nb        1 1WY     -0.737000
     22 N4         -0.4970    1.2430    0.2520 nb        1 1WY     -0.732000
     23 N7         -0.7010   -0.8390   -0.9700 nh        1 1WY     -0.680300
     24 C10        -2.4230   -2.3060    0.0330 ca        1 1WY      0.070100
     25 C13        -4.7160   -1.5450    0.2080 ca        1 1WY     -0.127000
     26 C9         -3.0130   -0.0730   -0.7140 ca        1 1WY     -0.130000
     27 N16        -5.2810    0.7430   -0.5430 n         1 1WY     -0.469100
     28 O18        -7.2690   -0.3100    0.0090 o         1 1WY     -0.595100
     29 C20        -7.0010    3.1230    0.2470 c3        1 1WY     -0.095100
     30 H1         -0.1610    3.0480    1.2120 h4        1 1WY      0.035100
     31 H2         -4.0590   -3.4980    0.8150 ha        1 1WY      0.142000
     32 H3         -0.8610   -5.1260    0.5800 h1        1 1WY      0.046033
     33 H4         -2.2450   -4.5170    1.6270 h1        1 1WY      0.046033
     34 H5         -2.5540   -4.9700   -0.1260 h1        1 1WY      0.046033
     35 H6         -7.2410    2.2780   -1.7370 hc        1 1WY      0.073700
     36 H7         -8.5000    1.7730   -0.5360 hc        1 1WY      0.073700
     37 H8          4.4780    2.8330   -0.7170 h4        1 1WY      0.176000
     38 H9          3.0590   -2.0330    0.5210 ha        1 1WY      0.149000
     39 H10         7.2130   -3.2000    0.1980 ha        1 1WY      0.130000
     40 H11         4.8480   -3.7670    0.6460 ha        1 1WY      0.130000
     41 H12         7.8910   -0.8710   -0.3920 ha        1 1WY      0.132000
     42 H13         6.7460    1.7130   -0.7990 hn        1 1WY      0.302700
     43 H14        -0.2130   -1.6960   -1.1620 hn        1 1WY      0.445800
     44 H15        -5.7580   -1.7580    0.5050 ha        1 1WY      0.177000
     45 H16        -2.7230    0.8950   -1.1560 ha        1 1WY      0.153000
     46 H17        -4.8880    1.6090   -0.8400 hn        1 1WY      0.318500
     47 H18        -5.9500    3.4480    0.0530 hc        1 1WY      0.043700
     48 H19        -7.6720    4.0010    0.0810 hc        1 1WY      0.043700
     49 H20        -7.0820    2.8150    1.3180 hc        1 1WY      0.043700
     50 O14        -1.4110   -3.2390    0.1940 os        1 1WY     -0.341900
@<TRIPOS>BOND
     1    1   21 ar  
     2    1   22 ar  
     3    1   23 1   
     4    2    3 ar  
     5    2   16 1   
     6    2   21 ar  
     7    3    4 ar  
     8    3   15 1   
     9    4   22 ar  
    10    4   30 1   
    11    5   23 1   
    12    5   24 ar  
    13    5   26 ar  
    14    6   25 ar  
    15    6   26 ar  
    16    6   27 1   
    17    7   24 ar  
    18    7   25 ar  
    19    7   31 1   
    20    8   32 1   
    21    8   33 1   
    22    8   34 1   
    23    8   50 1   
    24    9   10 1   
    25    9   27 1   
    26    9   28 2   
    27   10   29 1   
    28   10   35 1   
    29   10   36 1   
    30   11   16 2   
    31   11   20 1   
    32   11   37 1   
    33   12   13 ar  
    34   12   16 1   
    35   12   19 ar  
    36   13   17 ar  
    37   13   38 1   
    38   14   17 ar  
    39   14   18 ar  
    40   14   39 1   
    41   17   40 1   
    42   18   19 ar  
    43   18   41 1   
    44   19   20 1   
    45   20   42 1   
    46   23   43 1   
    47   24   50 1   
    48   25   44 1   
    49   26   45 1   
    50   27   46 1   
    51   29   47 1   
    52   29   48 1   
    53   29   49 1   
@<TRIPOS>SUBSTRUCTURE
     1 1WY         1 TEMP              0 ****  ****    0 ROOT
