@<TRIPOS>MOLECULE
1WY
   50    51     1     0     0
SMALL
bcc


@<TRIPOS>ATOM
      1 C2          0.6010   -1.0350    0.0990 c2        1 1WY      0.149000
      2 C3          2.6940   -0.3850    0.9530 c2        1 1WY      0.135000
      3 C5          2.1110   -0.1080    2.1960 c2        1 1WY     -0.238000
      4 C6          0.7000   -0.2690    2.3840 c1        1 1WY     -0.074000
      5 C8         -1.5300   -1.4660   -0.9590 cv        1 1WY     -0.171000
      6 C11        -5.2640    0.1280    0.3610 c1        1 1WY     -0.009000
      7 C12        -3.6620   -1.3820   -1.0550 cy        1 1WY      0.040000
      8 C15        -3.4360    0.7830   -3.1710 c3        1 1WY     -0.079000
      9 C17        -7.1880    1.5990    0.5480 c2        1 1WY      0.200000
     10 C19        -8.7860    3.2620    2.3870 c1        1 1WY     -0.083000
     11 C23         4.8390    0.9740    1.1010 c2        1 1WY     -0.015000
     12 C24         5.0240   -1.0260   -0.0030 c2        1 1WY      0.093000
     13 C27         4.7580   -2.3000   -0.5840 c2        1 1WY     -0.414000
     14 C30         7.8750   -1.8920   -1.2230 c3        1 1WY     -0.222000
     15 Cl1         2.9930    0.4070    3.5430 cl        1 1WY      0.013000
     16 C22         4.1090   -0.1830    0.6930 c2        1 1WY     -0.168000
     17 C28         5.5620   -3.1250   -1.2320 c1        1 1WY      0.201000
     18 C29         7.5610   -0.6810   -0.5040 c1        1 1WY     -0.156000
     19 C26         6.3090   -0.3700   -0.0030 c2        1 1WY     -0.153000
     20 N25         6.1270    0.8590    0.6900 na        1 1WY     -0.109000
     21 N1          1.9330   -0.8500   -0.0990 n2        1 1WY     -0.235000
     22 N4         -0.0130   -0.7180    1.3350 n7        1 1WY     -0.164000
     23 N7         -0.1550   -1.6410   -0.9370 n7        1 1WY     -0.187000
     24 C10        -2.4270   -0.6980   -1.6590 cv        1 1WY      0.035000
     25 C13        -4.5260   -0.5610   -0.2890 c1        1 1WY     -0.225000
     26 C9         -2.6300   -2.2500   -0.2370 cy        1 1WY     -0.099000
     27 N16        -6.0990    0.8980    1.0750 ns        1 1WY     -0.278000
     28 O18        -7.4740    1.5670   -0.6550 o         1 1WY     -0.353000
     29 C20       -10.1610    3.3970    2.0060 c3        1 1WY     -0.307000
     30 H1         -1.0000   -0.8310    1.4360 hn        1 1WY      0.267000
     31 H2         -4.2320   -1.9800   -1.8110 hc        1 1WY      0.132000
     32 H3         -4.1620    1.0920   -2.3810 h1        1 1WY      0.096667
     33 H4         -3.8860    0.0080   -3.8370 h1        1 1WY      0.096667
     34 H5         -3.0760    1.6620   -3.7610 h1        1 1WY      0.096667
     35 H6         -7.7730    2.1950    1.3400 h5        1 1WY      0.236000
     36 H7         -8.3910    3.9180    3.1740 ha        1 1WY      0.065000
     37 H8          4.4640    1.8410    1.6550 h4        1 1WY      0.186000
     38 H9          3.7070   -2.6690   -0.4870 ha        1 1WY      0.215000
     39 H10         7.6980   -2.8070   -0.5860 hc        1 1WY      0.104333
     40 H11         8.9530   -1.9010   -1.5280 hc        1 1WY      0.104333
     41 H12         7.2590   -1.9870   -2.1630 hc        1 1WY      0.104333
     42 H13         6.8660    1.5050    0.8290 hn        1 1WY      0.270000
     43 H14         0.2800   -1.6010   -1.8410 hn        1 1WY      0.240000
     44 H15        -2.6780   -2.0970    0.8600 hc        1 1WY      0.105500
     45 H16        -2.6580   -3.3310   -0.4840 hc        1 1WY      0.105500
     46 H17        -5.8930    0.9850    2.0460 hn        1 1WY      0.243000
     47 H18       -10.6500    2.3850    2.0720 hc        1 1WY      0.129000
     48 H19       -10.1780    3.6780    0.9120 hc        1 1WY      0.129000
     49 H20       -10.7790    4.1350    2.5760 hc        1 1WY      0.129000
     50 O14        -2.2340    0.2680   -2.5790 os        1 1WY     -0.179000
@<TRIPOS>BOND
     1    1   21 1   
     2    1   22 1   
     3    1   23 1   
     4    2    3 1   
     5    2   16 1   
     6    2   21 1   
     7    3    4 1   
     8    3   15 1   
     9    4   22 1   
    10    5   23 1   
    11    5   24 1   
    12    5   26 1   
    13    6   25 1   
    14    6   27 1   
    15    7   24 1   
    16    7   25 1   
    17    7   26 1   
    18    7   31 1   
    19    8   32 1   
    20    8   33 1   
    21    8   34 1   
    22    8   50 1   
    23    9   27 1   
    24    9   28 1   
    25    9   35 1   
    26   10   29 1   
    27   10   36 1   
    28   11   16 1   
    29   11   20 1   
    30   11   37 1   
    31   12   13 1   
    32   12   16 1   
    33   12   19 1   
    34   13   17 1   
    35   13   38 1   
    36   14   18 1   
    37   14   39 1   
    38   14   40 1   
    39   14   41 1   
    40   18   19 1   
    41   19   20 1   
    42   20   42 1   
    43   22   30 1   
    44   23   43 1   
    45   24   50 1   
    46   26   44 1   
    47   26   45 1   
    48   27   46 1   
    49   29   47 1   
    50   29   48 1   
    51   29   49 1   
@<TRIPOS>SUBSTRUCTURE
     1 1WY         1 TEMP              0 ****  ****    0 ROOT
