@<TRIPOS>MOLECULE
1WY
   50    51     1     0     0
SMALL
bcc


@<TRIPOS>ATOM
      1 C2          0.0030    0.5540   -0.4700 c2        1 1WY      0.161000
      2 C3          1.8880    0.6570    0.9340 c2        1 1WY      0.137000
      3 C5          1.2080    1.5360    1.7880 c2        1 1WY     -0.232000
      4 C6         -0.1270    1.9540    1.4790 c1        1 1WY     -0.074000
      5 C8         -1.8870    0.2230   -2.0110 c2        1 1WY      0.152000
      6 C11        -4.1320    0.4850   -0.6760 cx        1 1WY      0.136000
      7 C12        -3.8260   -0.1900   -3.2910 c2        1 1WY     -0.187000
      8 C15        -2.2790   -1.6870   -5.2060 c3        1 1WY     -0.074000
      9 C17        -5.4350    0.8910    1.3660 c2        1 1WY      0.229000
     10 C19        -6.6340    2.0790    3.8230 c1        1 1WY     -0.100000
     11 C23         4.3000    1.0330    1.6540 c2        1 1WY     -0.063000
     12 C24         3.8070   -1.0900    0.9310 c2        1 1WY      0.026000
     13 C27         3.0960   -2.2330    0.4470 c2        1 1WY     -0.396000
     14 C30         6.9430   -2.9280    1.2820 c1        1 1WY     -0.178000
     15 CL1         1.8650    2.1430    3.2210 cl        1 1WY      0.016000
     16 C22         3.2530    0.2210    1.1710 c2        1 1WY     -0.135000
     17 C28         3.4570   -3.1820   -0.3940 c1        1 1WY      0.180000
     18 C29         6.1340   -2.0440    1.2860 c1        1 1WY     -0.118000
     19 C26         5.1730   -1.0300    1.2960 c2        1 1WY     -0.002000
     20 N25         5.4520    0.2790    1.7250 na        1 1WY     -0.156000
     21 N1          1.2740    0.1570   -0.1960 n2        1 1WY     -0.222000
     22 N4         -0.6950    1.4560    0.3680 n3        1 1WY     -0.156000
     23 N7         -0.5820    0.0400   -1.6450 n3        1 1WY     -0.229000
     24 C10        -2.4660   -0.3760   -3.2610 c2        1 1WY      0.013000
     25 C13        -4.1990    0.7540   -2.2110 cx        1 1WY     -0.170000
     26 C9         -2.9240    0.9100   -1.4160 cu        1 1WY     -0.368000
     27 N16        -4.8400    1.3320    0.1980 n         1 1WY     -0.365000
     28 O18        -5.4300   -0.3060    1.7060 o         1 1WY     -0.386000
     29 C20        -7.2670    0.8610    4.2370 c3        1 1WY     -0.313000
     30 H1         -1.6220    1.7560    0.1220 hn        1 1WY      0.290000
     31 H2         -4.5260   -0.5600   -4.0370 ha        1 1WY      0.157000
     32 H3         -3.0290   -2.4330   -4.8490 h1        1 1WY      0.089000
     33 H4         -2.7710   -0.9150   -5.8460 h1        1 1WY      0.089000
     34 H5         -1.4410   -2.1870   -5.7520 h1        1 1WY      0.089000
     35 H6         -5.9280    1.7020    1.9840 h5        1 1WY      0.208000
     36 H7         -6.2570    2.7620    4.5960 ha        1 1WY      0.056000
     37 H8          4.2850    2.0890    1.9340 h4        1 1WY      0.184000
     38 H9          2.0460   -2.3160    0.8190 ha        1 1WY      0.201000
     39 H10         5.4920   -2.4600   -1.1410 ha        1 1WY      0.010000
     40 H11         7.6530   -3.7160    1.2720 ha        1 1WY      0.229000
     41 H12         5.2390   -2.6640   -1.7400 ha        1 1WY      0.010000
     42 H13         6.3340    0.5890    2.0420 hn        1 1WY      0.256000
     43 H14        -0.0120   -0.5360   -2.2340 hn        1 1WY      0.282000
     44 H15        -4.8220    1.6040   -2.5360 hc        1 1WY      0.155000
     45 H16        -4.1380   -0.5720   -0.3040 h1        1 1WY      0.157000
     46 H17        -4.8550    2.3020   -0.0160 hn        1 1WY      0.234000
     47 H18        -6.6460    0.0170    3.8040 hc        1 1WY      0.126667
     48 H19        -7.3970    0.6930    5.3350 hc        1 1WY      0.126667
     49 H20        -8.2730    0.7890    3.7370 hc        1 1WY      0.126667
     50 O14        -1.6310   -1.0660   -4.0950 os        1 1WY     -0.205000
@<TRIPOS>BOND
     1    1   21 1   
     2    1   22 1   
     3    1   23 1   
     4    2    3 1   
     5    2   16 1   
     6    2   21 1   
     7    3    4 1   
     8    3   15 1   
     9    4   22 1   
    10    5   23 1   
    11    5   24 1   
    12    5   26 1   
    13    6   25 1   
    14    6   26 1   
    15    6   27 1   
    16    6   45 1   
    17    7   24 1   
    18    7   25 1   
    19    7   31 1   
    20    8   32 1   
    21    8   33 1   
    22    8   34 1   
    23    8   50 1   
    24    9   27 1   
    25    9   28 1   
    26    9   35 1   
    27   10   29 1   
    28   10   36 1   
    29   11   16 1   
    30   11   20 1   
    31   11   37 1   
    32   12   13 1   
    33   12   16 1   
    34   12   19 1   
    35   13   17 1   
    36   13   38 1   
    37   14   18 1   
    38   14   40 1   
    39   18   19 1   
    40   19   20 1   
    41   20   42 1   
    42   22   30 1   
    43   23   43 1   
    44   24   50 1   
    45   25   26 1   
    46   25   44 1   
    47   27   46 1   
    48   29   47 1   
    49   29   48 1   
    50   29   49 1   
    51   39   41 1   
@<TRIPOS>SUBSTRUCTURE
     1 1WY         1 TEMP              0 ****  ****    0 ROOT
