@<TRIPOS>MOLECULE
1WY
   52    53     1     0     0
SMALL
bcc


@<TRIPOS>ATOM
      1 C2          0.7430    0.3750    0.0530 cz        1 1WY      0.258000
      2 C3          2.8230   -0.1500    1.2390 c2        1 1WY      0.217000
      3 C5          2.1680    0.0740    2.4500 c2        1 1WY     -0.231000
      4 C6          0.7910    0.4660    2.4840 c1        1 1WY      0.043000
      5 C8         -1.3050    1.0540   -1.1260 c2        1 1WY     -0.168000
      6 C11        -5.5410    0.1050   -0.2050 c1        1 1WY     -0.255000
      7 C12        -3.6990    0.8890   -1.9040 c3        1 1WY     -0.120000
      8 C15        -3.0220   -1.6570   -2.9460 c3        1 1WY     -0.090000
      9 C17        -6.5190    0.6610    1.9640 c2        1 1WY      0.285000
     10 C19        -7.4290    1.8470    1.9030 c3        1 1WY     -0.177000
     11 C23         5.2630    0.0420    1.9090 c2        1 1WY     -0.013000
     12 C24         4.7960   -1.5330    0.3020 c2        1 1WY     -0.159000
     13 C27         2.7640   -0.2220   -1.2100 c2        1 1WY     -0.087000
     14 C30         8.4610   -2.1770   -0.1820 c1        1 1WY      0.289000
     15 CL1         2.9200   -0.1280    3.9370 cl        1 1WY      0.111000
     16 C22         4.2090   -0.5160    1.1410 c2        1 1WY     -0.233000
     17 C28         2.4090   -1.1140   -2.1430 c2        1 1WY     -0.193000
     18 C29         7.1760   -2.4130    0.0160 c2        1 1WY     -0.465000
     19 C26         6.1680   -1.5620    0.5850 c2        1 1WY      0.035000
     20 N25         6.4360   -0.5840    1.5620 na        1 1WY     -0.147000
     21 N1          2.0880   -0.0120    0.0330 n3        1 1WY     -0.135000
     22 N4          0.1420    0.6040    1.3170 n3        1 1WY     -0.172000
     23 N7          0.0360    0.5530   -1.1120 n3        1 1WY     -0.268000
     24 C10        -2.3290    0.2940   -1.7300 c2        1 1WY      0.266000
     25 C13        -4.6750    0.4090   -0.9760 c1        1 1WY      0.062000
     26 C9         -1.6960    2.3100   -0.6750 c1        1 1WY     -0.172000
     27 N16        -6.5360   -0.2500    0.6930 n4        1 1WY      0.014000
     28 O18        -5.7740    0.2670    2.8350 o         1 1WY     -0.130000
     29 C20        -8.8740    1.4750    1.6880 c3        1 1WY     -0.243000
     30 H1         -0.8160    0.8980    1.3350 hn        1 1WY      0.286000
     31 H2         -3.6040    2.0230   -1.7480 hc        1 1WY      0.202500
     32 H3         -3.9640   -1.7440   -2.3550 h1        1 1WY      0.122000
     33 H4         -2.5360   -2.6590   -3.0840 h1        1 1WY      0.122000
     34 H5         -3.1960   -1.1570   -3.9300 h1        1 1WY      0.122000
     35 H6         -7.0710    2.5420    1.0930 hc        1 1WY      0.167500
     36 H7         -7.3140    2.3840    2.8910 hc        1 1WY      0.167500
     37 H8          5.2320    0.8440    2.6550 h4        1 1WY      0.199000
     38 H9          4.2720   -2.1800   -0.3950 ha        1 1WY      0.163000
     39 H10         1.5570   -1.8040   -2.0650 ha        1 1WY      0.156000
     40 H11         3.0050   -1.2040   -3.0660 ha        1 1WY      0.156000
     41 H12         6.8050   -3.4140   -0.3110 ha        1 1WY      0.218000
     42 H13         7.3270   -0.4050    1.9580 hn        1 1WY      0.279000
     43 H14         0.4660    0.3520   -1.9940 hn        1 1WY      0.269000
     44 H15        -4.0550    0.7180   -2.9640 hc        1 1WY      0.202500
     45 H16        -1.0270    3.0300   -0.2040 ha        1 1WY      0.125000
     46 H17        -7.4550   -0.1670    0.2290 hn        1 1WY      0.274000
     47 H18        -9.2040    0.6770    2.3970 hc        1 1WY      0.115333
     48 H19        -9.0720    1.1430    0.6400 hc        1 1WY      0.115333
     49 H20        -9.5090    2.3810    1.8780 hc        1 1WY      0.115333
     50 O14        -2.0290   -0.9270   -2.2030 os        1 1WY     -0.175000
     51 H72         3.6680    0.4180   -1.3020 h4        1 1WY      0.199000
     52 H162       -6.3870   -1.2330    0.9800 hn        1 1WY      0.274000
@<TRIPOS>BOND
     1    1   21 1   
     2    1   22 1   
     3    1   23 1   
     4    2    3 1   
     5    2   16 1   
     6    2   21 1   
     7    3    4 1   
     8    3   15 1   
     9    4   22 1   
    10    5   23 1   
    11    5   24 1   
    12    5   26 1   
    13    6   25 1   
    14    6   27 1   
    15    7   24 1   
    16    7   25 1   
    17    7   31 1   
    18    7   44 1   
    19    8   32 1   
    20    8   33 1   
    21    8   34 1   
    22    8   50 1   
    23    9   10 1   
    24    9   27 1   
    25    9   28 1   
    26   10   29 1   
    27   10   35 1   
    28   10   36 1   
    29   11   16 1   
    30   11   20 1   
    31   11   37 1   
    32   12   16 1   
    33   12   19 1   
    34   12   38 1   
    35   13   17 1   
    36   13   21 1   
    37   13   51 1   
    38   14   18 1   
    39   17   39 1   
    40   17   40 1   
    41   18   19 1   
    42   18   41 1   
    43   19   20 1   
    44   20   42 1   
    45   22   30 1   
    46   23   43 1   
    47   24   50 1   
    48   26   45 1   
    49   27   46 1   
    50   27   52 1   
    51   29   47 1   
    52   29   48 1   
    53   29   49 1   
@<TRIPOS>SUBSTRUCTURE
     1 1WY         1 TEMP              0 ****  ****    0 ROOT
