@<TRIPOS>MOLECULE
1WZ
   43    44     1     0     0
SMALL
bcc


@<TRIPOS>ATOM
      1 CAA        -5.7150    2.3070   -0.1740 c3        1 1WZ     -0.043300
      2 CAP        -4.8080    1.1410   -0.0820 ca        1 1WZ     -0.129300
      3 CAJ        -3.4270    1.3010   -0.0040 ca        1 1WZ     -0.099500
      4 CAT        -5.3400   -0.1650   -0.0720 ca        1 1WZ      0.104100
      5 OAG        -6.7160   -0.2550   -0.1520 oh        1 1WZ     -0.507100
      6 CAQ        -4.5030   -1.2890    0.0170 ca        1 1WZ     -0.129300
      7 CAB        -5.0600   -2.6610    0.0340 c3        1 1WZ     -0.043300
      8 CAK        -3.1200   -1.0920    0.0930 ca        1 1WZ     -0.099500
      9 CAR        -2.5660    0.1930    0.0780 ca        1 1WZ     -0.047800
     10 CAH        -1.1340    0.4210    0.1590 ce        1 1WZ     -0.156200
     11 CAI        -0.1950   -0.4960   -0.1340 cf        1 1WZ     -0.057200
     12 CAS         1.2390   -0.2800   -0.0600 ca        1 1WZ     -0.100800
     13 CAM         2.0850   -1.3900   -0.2160 ca        1 1WZ     -0.138000
     14 CAL         1.7970    0.9860    0.1530 ca        1 1WZ     -0.090000
     15 CAU         3.1830    1.1470    0.2180 ca        1 1WZ     -0.122600
     16 CAO         3.7820    2.5280    0.4570 c         1 1WZ      0.909200
     17 OAF         2.9870    3.4990    0.5980 o         1 1WZ     -0.828800
     18 OAE         5.0410    2.6240    0.5030 o         1 1WZ     -0.828800
     19 CAN         4.0190    0.0420    0.0730 ca        1 1WZ     -0.124000
     20 CAV         3.4830   -1.2430   -0.1510 ca        1 1WZ      0.061600
     21 NAW         4.3050   -2.3980   -0.3670 nh        1 1WZ     -0.630000
     22 CAD         5.6610   -2.1110   -0.7760 c3        1 1WZ      0.168600
     23 CAC         4.2350   -3.3650    0.7060 c3        1 1WZ      0.168600
     24 H1         -6.3130    2.2530   -1.1180 hc        1 1WZ      0.039867
     25 H2         -6.4320    2.3030    0.6840 hc        1 1WZ      0.039867
     26 H3         -5.1440    3.2680   -0.1640 hc        1 1WZ      0.039867
     27 H4         -2.9980    2.3160   -0.0100 ha        1 1WZ      0.138000
     28 H5         -6.9560   -1.1920   -0.1400 ho        1 1WZ      0.411000
     29 H6         -5.6350   -2.8640   -0.9050 hc        1 1WZ      0.039867
     30 H7         -4.2470   -3.4230    0.1150 hc        1 1WZ      0.039867
     31 H8         -5.7500   -2.7950    0.9060 hc        1 1WZ      0.039867
     32 H9         -2.4600   -1.9690    0.1720 ha        1 1WZ      0.138000
     33 H10        -0.8430    1.4390    0.4760 ha        1 1WZ      0.143000
     34 H11        -0.4930   -1.5080   -0.4640 ha        1 1WZ      0.105000
     35 H12         1.6430   -2.3820   -0.3940 ha        1 1WZ      0.113000
     36 H13         1.1700    1.8850    0.2720 ha        1 1WZ      0.156000
     37 H15         5.1070    0.2180    0.1360 ha        1 1WZ      0.158000
     38 H16         6.3110   -1.7280    0.0590 h1        1 1WZ      0.027367
     39 H17         6.1130   -3.0620   -1.1660 h1        1 1WZ      0.027367
     40 H18         5.6460   -1.3490   -1.5970 h1        1 1WZ      0.027367
     41 H19         3.1610   -3.5510    0.9680 h1        1 1WZ      0.027367
     42 H20         4.6940   -4.3240    0.3490 h1        1 1WZ      0.027367
     43 H21         4.7770   -3.0390    1.6360 h1        1 1WZ      0.027367
@<TRIPOS>BOND
     1    1    2 1   
     2    1   24 1   
     3    1   25 1   
     4    1   26 1   
     5    2    3 ar  
     6    2    4 ar  
     7    3    9 ar  
     8    3   27 1   
     9    4    5 1   
    10    4    6 ar  
    11    5   28 1   
    12    6    7 1   
    13    6    8 ar  
    14    7   29 1   
    15    7   30 1   
    16    7   31 1   
    17    8    9 ar  
    18    8   32 1   
    19    9   10 1   
    20   10   11 2   
    21   10   33 1   
    22   11   12 1   
    23   11   34 1   
    24   12   13 ar  
    25   12   14 ar  
    26   13   20 ar  
    27   13   35 1   
    28   14   15 ar  
    29   14   36 1   
    30   15   16 1   
    31   15   19 ar  
    32   16   17 1   
    33   16   18 1   
    34   19   20 ar  
    35   19   37 1   
    36   20   21 1   
    37   21   22 1   
    38   21   23 1   
    39   22   38 1   
    40   22   39 1   
    41   22   40 1   
    42   23   41 1   
    43   23   42 1   
    44   23   43 1   
@<TRIPOS>SUBSTRUCTURE
     1 1WZ         1 TEMP              0 ****  ****    0 ROOT
