@<TRIPOS>MOLECULE
1WZ
   44    45     1     0     0
SMALL
bcc


@<TRIPOS>ATOM
      1 CAA         0.0160    0.2740    0.0130 c3        1 1WZ     -0.048800
      2 CAP         1.4870    0.1190   -0.0730 ca        1 1WZ     -0.129300
      3 CAJ         2.2760    0.2550    1.0690 ca        1 1WZ     -0.082000
      4 CAT         2.1170   -0.1650   -1.2990 ca        1 1WZ      0.132100
      5 OAG         1.4290   -0.3160   -2.4810 oh        1 1WZ     -0.497100
      6 CAQ         3.5180   -0.3090   -1.3820 ca        1 1WZ     -0.129300
      7 CAB         4.1520   -0.6010   -2.6870 c3        1 1WZ     -0.048800
      8 CAK         4.2760   -0.1710   -0.2210 ca        1 1WZ     -0.082000
      9 CAR         3.6700    0.1060    1.0130 ca        1 1WZ     -0.096800
     10 CAH         4.4370    0.2570    2.2370 ce        1 1WZ     -0.064200
     11 CAI         5.6920   -0.1900    2.4170 cf        1 1WZ     -0.140200
     12 CAS         6.4430   -0.0350    3.6520 ca        1 1WZ     -0.039800
     13 CAM         7.8360   -0.1840    3.6110 ca        1 1WZ     -0.143000
     14 CAL         5.8160    0.2480    4.8780 ca        1 1WZ     -0.055000
     15 CAU         6.5630    0.3950    6.0450 ca        1 1WZ     -0.116600
     16 CAO         5.8940    0.7140    7.3950 c         1 1WZ      0.918200
     17 OAF         4.6470    0.8490    7.3900 o         1 1WZ     -0.791300
     18 OAE         6.6710    0.8110    8.3820 o         1 1WZ     -0.791300
     19 CAN         7.9510    0.2550    6.0140 ca        1 1WZ     -0.091000
     20 CAV         8.5780   -0.0360    4.7960 ca        1 1WZ     -0.089400
     21 NAW        10.0450   -0.1910    4.7520 n4        1 1WZ     -0.537800
     22 CAD        10.4810   -1.3260    5.6070 c3        1 1WZ      0.089100
     23 CAC        10.7200    1.0710    5.1570 c3        1 1WZ      0.089100
     24 H1         -0.3300    1.1130   -0.6420 hc        1 1WZ      0.046533
     25 H2         -0.3040    0.4960    1.0600 hc        1 1WZ      0.046533
     26 H3         -0.4970   -0.6660   -0.3140 hc        1 1WZ      0.046533
     27 H4          1.7940    0.4790    2.0350 ha        1 1WZ      0.136500
     28 H5          0.4850   -0.1950   -2.3040 ho        1 1WZ      0.423000
     29 H6          5.2620   -0.6740   -2.5950 hc        1 1WZ      0.046533
     30 H7          3.9020    0.2050   -3.4220 hc        1 1WZ      0.046533
     31 H8          3.7590   -1.5660   -3.0950 hc        1 1WZ      0.046533
     32 H9          5.3700   -0.2760   -0.2830 ha        1 1WZ      0.136500
     33 H10         3.9050    0.7750    3.0560 ha        1 1WZ      0.142000
     34 H11         6.2270   -0.7140    1.6060 ha        1 1WZ      0.120000
     35 H12         8.3260   -0.4120    2.6530 ha        1 1WZ      0.125000
     36 H13         4.7190    0.3550    4.9560 ha        1 1WZ      0.183000
     37 H15         8.4920    0.3800    6.9690 ha        1 1WZ      0.177000
     38 H16        11.5940   -1.4370    5.5370 hx        1 1WZ      0.098367
     39 H17        10.1810   -1.1270    6.6720 hx        1 1WZ      0.098367
     40 H18         9.9720   -2.2630    5.2570 hx        1 1WZ      0.098367
     41 H19        10.3870    1.8970    4.4740 hx        1 1WZ      0.098367
     42 H20        10.4260    1.3290    6.2110 hx        1 1WZ      0.098367
     43 H21        11.8300    0.9340    5.0910 hx        1 1WZ      0.098367
     44 HAW1       10.3100   -0.4000    3.7810 hn        1 1WZ      0.433800
@<TRIPOS>BOND
     1    1    2 1   
     2    1   24 1   
     3    1   25 1   
     4    1   26 1   
     5    2    3 ar  
     6    2    4 ar  
     7    3    9 ar  
     8    3   27 1   
     9    4    5 1   
    10    4    6 ar  
    11    5   28 1   
    12    6    7 1   
    13    6    8 ar  
    14    7   29 1   
    15    7   30 1   
    16    7   31 1   
    17    8    9 ar  
    18    8   32 1   
    19    9   10 1   
    20   10   11 2   
    21   10   33 1   
    22   11   12 1   
    23   11   34 1   
    24   12   13 ar  
    25   12   14 ar  
    26   13   20 ar  
    27   13   35 1   
    28   14   15 ar  
    29   14   36 1   
    30   15   16 1   
    31   15   19 ar  
    32   16   17 1   
    33   16   18 1   
    34   19   20 ar  
    35   19   37 1   
    36   20   21 1   
    37   21   22 1   
    38   21   23 1   
    39   21   44 1   
    40   22   38 1   
    41   22   39 1   
    42   22   40 1   
    43   23   41 1   
    44   23   42 1   
    45   23   43 1   
@<TRIPOS>SUBSTRUCTURE
     1 1WZ         1 TEMP              0 ****  ****    0 ROOT
