@<TRIPOS>MOLECULE
1WZ
   43    44     1     0     0
SMALL
bcc


@<TRIPOS>ATOM
      1 CAA         0.1320   -0.8660   -0.0820 c3        1 1WZ     -0.043300
      2 CAP         1.5260   -0.3680   -0.0660 ca        1 1WZ     -0.129300
      3 CAJ         2.2700   -0.3320    1.1110 ca        1 1WZ     -0.100000
      4 CAT         2.1260    0.0820   -1.2610 ca        1 1WZ      0.104100
      5 OAG         1.3370    0.0180   -2.3920 oh        1 1WZ     -0.507100
      6 CAQ         3.4460    0.5620   -1.2730 ca        1 1WZ     -0.129300
      7 CAB         4.0740    1.0440   -2.5250 c3        1 1WZ     -0.043300
      8 CAK         4.1650    0.5830   -0.0740 ca        1 1WZ     -0.100000
      9 CAR         3.5950    0.1350    1.1230 ca        1 1WZ     -0.048800
     10 CAH         4.3240    0.1490    2.3800 ce        1 1WZ     -0.156200
     11 CAI         5.6640    0.1750    2.4830 cf        1 1WZ     -0.058200
     12 CAS         6.4070    0.1880    3.7310 ca        1 1WZ     -0.100800
     13 CAM         7.7980   -0.0050    3.6770 ca        1 1WZ     -0.138000
     14 CAL         5.7880    0.3920    4.9700 ca        1 1WZ     -0.090000
     15 CAU         6.5420    0.3940    6.1460 ca        1 1WZ     -0.122600
     16 CAO         5.8590    0.6060    7.4920 c         1 1WZ      0.909200
     17 OAF         4.6050    0.7520    7.5000 o         1 1WZ     -0.828800
     18 OAE         6.5860    0.6230    8.5250 o         1 1WZ     -0.828800
     19 CAN         7.9190    0.1930    6.0900 ca        1 1WZ     -0.124000
     20 CAV         8.5690   -0.0050    4.8540 ca        1 1WZ      0.061600
     21 NAW         9.9910   -0.1550    4.7410 nh        1 1WZ     -0.631000
     22 CAD        10.7450    0.3340    5.8720 c3        1 1WZ      0.168600
     23 CAC        10.4000   -1.4790    4.3240 c3        1 1WZ      0.168600
     24 H1         -0.2160   -1.1320    0.9450 hc        1 1WZ      0.039533
     25 H2         -0.5490   -0.0850   -0.5040 hc        1 1WZ      0.039533
     26 H3          0.0580   -1.7720   -0.7350 hc        1 1WZ      0.039533
     27 H4          1.8120   -0.6770    2.0510 ha        1 1WZ      0.138000
     28 H5          1.8460    0.3750   -3.1330 ho        1 1WZ      0.412000
     29 H6          5.1230    1.3830   -2.3420 hc        1 1WZ      0.039533
     30 H7          3.5000    1.9060   -2.9480 hc        1 1WZ      0.039533
     31 H8          4.1020    0.2280   -3.2910 hc        1 1WZ      0.039533
     32 H9          5.1960    0.9690   -0.0750 ha        1 1WZ      0.138000
     33 H10         3.6920    0.1210    3.2850 ha        1 1WZ      0.143000
     34 H11         6.2900    0.1750    1.5720 ha        1 1WZ      0.105000
     35 H12         8.2810   -0.1560    2.7000 ha        1 1WZ      0.114000
     36 H13         4.7020    0.5580    5.0560 ha        1 1WZ      0.156000
     37 H15         8.4710    0.2000    7.0450 ha        1 1WZ      0.158000
     38 H16        10.6830   -0.3320    6.7770 h1        1 1WZ      0.027533
     39 H17        10.3720    1.3530    6.1530 h1        1 1WZ      0.027533
     40 H18        11.8220    0.4090    5.5640 h1        1 1WZ      0.027533
     41 H19         9.7860   -1.7960    3.4420 h1        1 1WZ      0.027533
     42 H20        10.2910   -2.2540    5.1310 h1        1 1WZ      0.027533
     43 H21        11.4800   -1.4360    4.0210 h1        1 1WZ      0.027533
@<TRIPOS>BOND
     1    1    2 1   
     2    1   24 1   
     3    1   25 1   
     4    1   26 1   
     5    2    3 ar  
     6    2    4 ar  
     7    3    9 ar  
     8    3   27 1   
     9    4    5 1   
    10    4    6 ar  
    11    5   28 1   
    12    6    7 1   
    13    6    8 ar  
    14    7   29 1   
    15    7   30 1   
    16    7   31 1   
    17    8    9 ar  
    18    8   32 1   
    19    9   10 1   
    20   10   11 2   
    21   10   33 1   
    22   11   12 1   
    23   11   34 1   
    24   12   13 ar  
    25   12   14 ar  
    26   13   20 ar  
    27   13   35 1   
    28   14   15 ar  
    29   14   36 1   
    30   15   16 1   
    31   15   19 ar  
    32   16   17 1   
    33   16   18 1   
    34   19   20 ar  
    35   19   37 1   
    36   20   21 1   
    37   21   22 1   
    38   21   23 1   
    39   22   38 1   
    40   22   39 1   
    41   22   40 1   
    42   23   41 1   
    43   23   42 1   
    44   23   43 1   
@<TRIPOS>SUBSTRUCTURE
     1 1WZ         1 TEMP              0 ****  ****    0 ROOT
