@<TRIPOS>MOLECULE
1WZ
   43    44     1     0     0
SMALL
bcc


@<TRIPOS>ATOM
      1 CAA         0.0760   -0.4070   -0.0710 c3        1 1WZ     -0.043800
      2 CAP         1.5290   -0.1210   -0.1060 ca        1 1WZ     -0.129300
      3 CAJ         2.2660   -0.0860    1.0790 ca        1 1WZ     -0.099500
      4 CAT         2.1940    0.1210   -1.3220 ca        1 1WZ      0.103100
      5 OAG         1.5530    0.1070   -2.5450 oh        1 1WZ     -0.508100
      6 CAQ         3.5750    0.3980   -1.3530 ca        1 1WZ     -0.129300
      7 CAB         4.2480    0.6530   -2.6460 c3        1 1WZ     -0.043800
      8 CAK         4.2810    0.4240   -0.1510 ca        1 1WZ     -0.099500
      9 CAR         3.6440    0.1790    1.0740 ca        1 1WZ     -0.047800
     10 CAH         4.3570    0.2020    2.3390 ce        1 1WZ     -0.157200
     11 CAI         5.6880    0.0670    2.4720 cf        1 1WZ     -0.056200
     12 CAS         6.4110    0.0820    3.7310 ca        1 1WZ     -0.100800
     13 CAM         7.8140    0.0240    3.6900 ca        1 1WZ     -0.138000
     14 CAL         5.7620    0.1480    4.9690 ca        1 1WZ     -0.090000
     15 CAU         6.4980    0.1570    6.1560 ca        1 1WZ     -0.122600
     16 CAO         5.7810    0.2220    7.5000 c         1 1WZ      0.909200
     17 OAF         4.5180    0.2570    7.4930 o         1 1WZ     -0.829300
     18 OAE         6.4890    0.2370    8.5460 o         1 1WZ     -0.829300
     19 CAN         7.8890    0.0980    6.1130 ca        1 1WZ     -0.123000
     20 CAV         8.5680    0.0340    4.8780 ca        1 1WZ      0.061600
     21 NAW        10.0000    0.0310    4.7820 nh        1 1WZ     -0.631000
     22 CAD        10.6890    0.5280    5.9500 c3        1 1WZ      0.168600
     23 CAC        10.5430   -1.2190    4.2990 c3        1 1WZ      0.168600
     24 H1         -0.1590   -1.3250   -0.6680 hc        1 1WZ      0.039700
     25 H2         -0.2740   -0.5760    0.9770 hc        1 1WZ      0.039700
     26 H3         -0.5040    0.4500   -0.4980 hc        1 1WZ      0.039700
     27 H4          1.7580   -0.2720    2.0380 ha        1 1WZ      0.138000
     28 H5          0.6160   -0.0750   -2.3900 ho        1 1WZ      0.412000
     29 H6          3.7430    1.4970   -3.1800 hc        1 1WZ      0.039700
     30 H7          5.3250    0.9110   -2.5000 hc        1 1WZ      0.039700
     31 H8          4.1790   -0.2530   -3.2980 hc        1 1WZ      0.039700
     32 H9          5.3590    0.6490   -0.1690 ha        1 1WZ      0.138000
     33 H10         3.7160    0.3290    3.2300 ha        1 1WZ      0.142000
     34 H11         6.3220   -0.0720    1.5770 ha        1 1WZ      0.105000
     35 H12         8.3220   -0.0230    2.7150 ha        1 1WZ      0.114000
     36 H13         4.6630    0.1890    5.0490 ha        1 1WZ      0.155000
     37 H15         8.4270    0.1050    7.0760 ha        1 1WZ      0.158000
     38 H16        10.2140    1.4880    6.2790 h1        1 1WZ      0.027367
     39 H17        11.7560    0.7260    5.6640 h1        1 1WZ      0.027367
     40 H18        10.6830   -0.1900    6.8160 h1        1 1WZ      0.027367
     41 H19        10.5010   -2.0460    5.0600 h1        1 1WZ      0.027367
     42 H20        11.6160   -1.0540    4.0170 h1        1 1WZ      0.027367
     43 H21         9.9740   -1.5450    3.3900 h1        1 1WZ      0.027367
@<TRIPOS>BOND
     1    1    2 1   
     2    1   24 1   
     3    1   25 1   
     4    1   26 1   
     5    2    3 ar  
     6    2    4 ar  
     7    3    9 ar  
     8    3   27 1   
     9    4    5 1   
    10    4    6 ar  
    11    5   28 1   
    12    6    7 1   
    13    6    8 ar  
    14    7   29 1   
    15    7   30 1   
    16    7   31 1   
    17    8    9 ar  
    18    8   32 1   
    19    9   10 1   
    20   10   11 2   
    21   10   33 1   
    22   11   12 1   
    23   11   34 1   
    24   12   13 ar  
    25   12   14 ar  
    26   13   20 ar  
    27   13   35 1   
    28   14   15 ar  
    29   14   36 1   
    30   15   16 1   
    31   15   19 ar  
    32   16   17 1   
    33   16   18 1   
    34   19   20 ar  
    35   19   37 1   
    36   20   21 1   
    37   21   22 1   
    38   21   23 1   
    39   22   38 1   
    40   22   39 1   
    41   22   40 1   
    42   23   41 1   
    43   23   42 1   
    44   23   43 1   
@<TRIPOS>SUBSTRUCTURE
     1 1WZ         1 TEMP              0 ****  ****    0 ROOT
