@<TRIPOS>MOLECULE
1WZ
   43    38     1     0     0
SMALL
bcc


@<TRIPOS>ATOM
      1 CAA        -4.2080   -1.8160   -0.7640 c3        1 1WZ     -0.184000
      2 CAP        -2.7000   -1.9490   -0.7580 c2        1 1WZ     -0.141000
      3 CAJ        -2.0140   -1.9920    0.4470 c2        1 1WZ     -0.068000
      4 CAT        -2.0160   -2.1170   -1.9500 c1        1 1WZ      0.066000
      5 OAG        -2.7190   -2.1320   -3.1660 o         1 1WZ     -0.267000
      6 CAQ        -0.6460   -2.3270   -1.9400 c1        1 1WZ     -0.108000
      7 CAB         0.0840   -2.6130   -3.2360 c2        1 1WZ     -0.158000
      8 CAK         0.0400   -2.3700   -0.7360 c1        1 1WZ     -0.105000
      9 CAR        -0.6450   -2.2020    0.4580 c1        1 1WZ     -0.058000
     10 CAH         0.0770   -2.4090    1.7760 c2        1 1WZ     -0.139000
     11 CAI         0.6590   -1.3590    2.4000 c1        1 1WZ     -0.084000
     12 CAS         0.5920    0.0230    1.7830 c1        1 1WZ     -0.085000
     13 CAM         1.7410    0.6080    1.2710 c2        1 1WZ     -0.142000
     14 CAL        -0.5860    0.7540    1.8510 c1        1 1WZ     -0.116000
     15 CAU        -0.6130    2.0680    1.4090 c1        1 1WZ     -0.096000
     16 CAO        -1.8990    2.8630    1.4790 c2        1 1WZ      0.356000
     17 OAF        -2.3560    3.2230    2.5960 o         1 1WZ     -0.564000
     18 OAE        -2.4850    3.2060    0.4190 o         1 1WZ     -0.564000
     19 CAN         0.5360    2.6520    0.8970 c1        1 1WZ     -0.137000
     20 CAV         1.7130    1.9220    0.8280 c1        1 1WZ     -0.012000
     21 NAW         2.9100    2.5440    0.3670 n3        1 1WZ     -0.232000
     22 CAD         3.0270    2.9430   -0.9950 c3        1 1WZ     -0.106500
     23 CAC         3.9900    2.7670    1.2690 c3        1 1WZ     -0.106500
     24 H1         -4.5420   -1.8260    0.1600 hc        1 1WZ      0.087333
     25 H2         -4.6000   -2.5640   -1.2610 hc        1 1WZ      0.087333
     26 H3         -4.4590   -0.9710   -1.1930 hc        1 1WZ      0.087333
     27 H4         -2.4940   -1.8740    1.2850 ha        1 1WZ      0.174000
     28 H5         -2.9320   -1.3020   -3.3940 ho        1 1WZ      0.216000
     29 H6         -0.3980   -3.3030   -3.7360 ha        1 1WZ      0.076000
     30 H7          0.9900   -2.9250   -3.0370 ha        1 1WZ      0.076000
     31 H8          0.1310   -1.7930   -3.7720 ha        1 1WZ      0.076000
     32 H9          1.0060   -2.5180   -0.7290 ha        1 1WZ      0.123000
     33 H10         0.1200   -3.3000    2.1750 ha        1 1WZ      0.106000
     34 H11         1.1240   -1.4930    3.2490 ha        1 1WZ      0.113000
     35 H12         2.5700    0.0940    1.2220 ha        1 1WZ      0.119000
     36 H13        -1.3890    0.3510    2.2360 ha        1 1WZ      0.156000
     37 H15         0.5160    3.5780    0.5850 ha        1 1WZ      0.157000
     38 H16         3.4170    3.8440   -1.0400 h1        1 1WZ      0.066333
     39 H17         3.6070    2.3110   -1.4730 h1        1 1WZ      0.066333
     40 H18         2.1400    2.9500   -1.4100 h1        1 1WZ      0.066333
     41 H19         4.8350    2.5290    0.8330 h1        1 1WZ      0.066333
     42 H20         3.8670    2.2130    2.0690 h1        1 1WZ      0.066333
     43 H21         4.0100    3.7140    1.5270 h1        1 1WZ      0.066333
@<TRIPOS>BOND
     1    1    2 1   
     2    1   24 1   
     3    1   25 1   
     4    1   26 1   
     5    2    3 1   
     6    2    4 1   
     7    3    9 1   
     8    3   27 1   
     9    4    6 1   
    10    5   28 1   
    11    6    8 1   
    12    7   29 1   
    13    7   30 1   
    14    7   31 1   
    15    8   32 1   
    16    9   10 1   
    17   10   11 1   
    18   10   33 1   
    19   11   34 1   
    20   12   13 1   
    21   12   14 1   
    22   13   20 1   
    23   13   35 1   
    24   14   36 1   
    25   15   16 1   
    26   15   19 1   
    27   16   17 1   
    28   16   18 1   
    29   19   37 1   
    30   20   21 1   
    31   21   22 1   
    32   21   23 1   
    33   22   38 1   
    34   22   39 1   
    35   22   40 1   
    36   23   41 1   
    37   23   42 1   
    38   23   43 1   
@<TRIPOS>SUBSTRUCTURE
     1 1WZ         1 TEMP              0 ****  ****    0 ROOT
