@<TRIPOS>MOLECULE
1X0
   25    22     1     0     0
SMALL
bcc


@<TRIPOS>ATOM
      1 C17        -3.1230    2.0210    0.6380 c1        1 1X0      0.307000
      2 C18        -1.9340    1.3400    1.2740 c2        1 1X0     -0.129000
      3 O19        -4.1860    1.3770    0.4400 o         1 1X0     -0.580000
      4 N20        -2.3170    0.7900    2.5290 n3        1 1X0     -0.324000
      5 C24        -1.4430    0.2330    0.3690 c3        1 1X0     -0.142000
      6 C25         0.0590    0.3300    0.2220 c3        1 1X0     -0.154000
      7 C26         0.5510   -0.7800   -0.6800 c3        1 1X0     -0.156000
      8 C27         2.0620   -0.7390   -0.7530 c3        1 1X0     -0.140000
      9 C28         2.5480   -1.7860   -1.7310 c2        1 1X0     -0.140000
     10 H14        -1.2180    1.9920    1.4090 h4        1 1X0      0.080000
     11 H15        -3.1520    1.0930    2.7530 hn        1 1X0      0.125000
     12 H16        -1.8630    0.3220   -0.5110 hc        1 1X0      0.085000
     13 H17        -1.6780   -0.6340    0.7560 hc        1 1X0      0.085000
     14 H18         0.4790    0.2460    1.1020 hc        1 1X0      0.075500
     15 H19         0.2940    1.1960   -0.1690 hc        1 1X0      0.075500
     16 H20         0.2660   -1.6440   -0.3190 hc        1 1X0      0.076000
     17 H21         0.1780   -0.6620   -1.5760 hc        1 1X0      0.076000
     18 H22         2.4360   -0.9200    0.1320 hc        1 1X0      0.084000
     19 H23         2.3490    0.1460   -1.0540 hc        1 1X0      0.084000
     20 H24         1.9070   -2.3700   -2.1790 ha        1 1X0      0.115000
     21 OXT        -3.0510    3.2340    0.3070 o         1 1X0     -0.580000
     22 H1         -1.7170    1.0470    3.1710 hn        1 1X0      0.125000
     23 C1          3.8650   -1.9130   -1.9830 c1        1 1X0     -0.251000
     24 H2          4.5080   -1.3280   -1.5330 DU        1 1X0      0.106000
     25 H3          4.1800   -2.5900   -2.6140 ha        1 1X0      0.099000
@<TRIPOS>BOND
     1    1    3 1   
     2    1   21 1   
     3    2    4 1   
     4    2    5 1   
     5    2   10 1   
     6    4   11 1   
     7    4   22 1   
     8    5    6 1   
     9    5   12 1   
    10    5   13 1   
    11    6    7 1   
    12    6   14 1   
    13    6   15 1   
    14    7    8 1   
    15    7   16 1   
    16    7   17 1   
    17    8    9 1   
    18    8   18 1   
    19    8   19 1   
    20    9   20 1   
    21    9   23 1   
    22   23   25 1   
@<TRIPOS>SUBSTRUCTURE
     1 1X0         1 TEMP              0 ****  ****    0 ROOT
