@<TRIPOS>MOLECULE
1X0
   25    24     1     0     0
SMALL
bcc


@<TRIPOS>ATOM
      1 C17         3.0460    0.4320    0.0290 c         1 1X0      0.887600
      2 C18         1.8170   -0.4070   -0.4540 c3        1 1X0      0.018500
      3 O19         4.0630   -0.1900    0.4520 o         1 1X0     -0.845300
      4 N20         1.9940   -1.8500   -0.3450 n3        1 1X0     -0.891800
      5 C24         0.5740    0.1090    0.2720 c3        1 1X0     -0.063400
      6 C25        -0.7110   -0.4090   -0.3380 c3        1 1X0     -0.075400
      7 C26        -1.9230    0.1860    0.3480 c3        1 1X0     -0.077400
      8 C27        -3.2100   -0.3470   -0.2500 c3        1 1X0     -0.057200
      9 C28        -4.4070    0.2000    0.4330 c2        1 1X0     -0.144200
     10 H14         1.6970   -0.1860   -1.5560 h1        1 1X0      0.040700
     11 H15         2.9390   -2.0540   -0.6270 hn        1 1X0      0.329800
     12 H16         0.6170   -0.1740    1.3560 hc        1 1X0      0.045700
     13 H17         0.6020    1.2300    0.2150 hc        1 1X0      0.045700
     14 H18        -0.7350   -0.1550   -1.4300 hc        1 1X0      0.036200
     15 H19        -0.7470   -1.5270   -0.2590 hc        1 1X0      0.036200
     16 H20        -1.8890   -0.0520    1.4430 hc        1 1X0      0.036700
     17 H21        -1.8980    1.3040    0.2520 hc        1 1X0      0.036700
     18 H22        -3.2370   -0.1110   -1.3480 hc        1 1X0      0.044700
     19 H23        -3.2240   -1.4680   -0.1550 hc        1 1X0      0.044700
     20 H24        -4.3270    0.2600    1.5320 ha        1 1X0      0.115000
     21 OXT         2.9620    1.6890   -0.0490 o         1 1X0     -0.845300
     22 H1          1.9310   -2.1050    0.6250 hn        1 1X0      0.329800
     23 C1         -5.5130    0.5910   -0.1960 c2        1 1X0     -0.251000
     24 H2         -6.3860    0.9810    0.3410 ha        1 1X0      0.102500
     25 H3         -5.6200    0.5530   -1.2870 ha        1 1X0      0.102500
@<TRIPOS>BOND
     1    1    2 1   
     2    1    3 1   
     3    1   21 1   
     4    2    4 1   
     5    2    5 1   
     6    2   10 1   
     7    4   11 1   
     8    4   22 1   
     9    5    6 1   
    10    5   12 1   
    11    5   13 1   
    12    6    7 1   
    13    6   14 1   
    14    6   15 1   
    15    7    8 1   
    16    7   16 1   
    17    7   17 1   
    18    8    9 1   
    19    8   18 1   
    20    8   19 1   
    21    9   20 1   
    22    9   23 2   
    23   23   24 1   
    24   23   25 1   
@<TRIPOS>SUBSTRUCTURE
     1 1X0         1 TEMP              0 ****  ****    0 ROOT
