@<TRIPOS>MOLECULE
1X0
   26    23     1     0     0
SMALL
bcc


@<TRIPOS>ATOM
      1 C17        -0.9530    1.5100    0.4260 c2        1 1X0      0.319000
      2 C18         0.1580    0.5040    0.4630 c2        1 1X0     -0.102000
      3 O19        -1.5250    1.8460   -0.6120 o         1 1X0     -0.288000
      4 N20         0.7580    0.1880    1.5440 n2        1 1X0     -0.215000
      5 C24         2.6860   -2.1750   -1.2560 c3        1 1X0     -0.208000
      6 C25         4.0970   -1.6930   -1.4760 c3        1 1X0     -0.159000
      7 C26         4.9310   -2.7480   -2.1750 c3        1 1X0     -0.162000
      8 C27         6.3210   -2.2970   -2.3960 c2        1 1X0     -0.034000
      9 C28         7.3740   -3.1490   -2.4220 c2        1 1X0     -0.269000
     10 H14        -0.9290    1.8270    2.3300 ho        1 1X0      0.249000
     11 H15         3.3310   -1.7370    2.0130 ha        1 1X0      0.001000
     12 H16         0.3690    0.0980   -0.5520 h4        1 1X0      0.136000
     13 H17         2.0890   -1.3920   -0.7270 hc        1 1X0      0.071333
     14 H18         2.1880   -2.4000   -2.2300 hc        1 1X0      0.071333
     15 H19         2.6790   -3.1030   -0.6350 hc        1 1X0      0.071333
     16 H20         4.5660   -1.4420   -0.4880 hc        1 1X0      0.081500
     17 H21         4.0860   -0.7530   -2.0880 hc        1 1X0      0.081500
     18 H22         4.9430   -3.7030   -1.5720 hc        1 1X0      0.115500
     19 H23         4.4630   -2.9980   -3.1670 hc        1 1X0      0.115500
     20 H24         6.4630   -1.2220   -2.5990 ha        1 1X0      0.121000
     21 OXT        -1.4130    2.1250    1.5450 oh        1 1X0     -0.273000
     22 H1          3.2450   -1.8720    1.3540 ha        1 1X0      0.001000
     23 C1          7.2320   -4.5160   -2.1220 c1        1 1X0     -0.074000
     24 H2          8.3850   -2.7400   -2.6210 ha        1 1X0      0.117000
     25 H3          7.8720   -5.2370   -2.6470 ha        1 1X0      0.061000
     26 H203        1.4880   -0.4920    1.4680 hn        1 1X0      0.172000
@<TRIPOS>BOND
     1    1    2 1   
     2    1    3 1   
     3    1   21 1   
     4    2    4 1   
     5    2   12 1   
     6    4   26 1   
     7    5    6 1   
     8    5   13 1   
     9    5   14 1   
    10    5   15 1   
    11    6    7 1   
    12    6   16 1   
    13    6   17 1   
    14    7    8 1   
    15    7   18 1   
    16    7   19 1   
    17    8    9 1   
    18    8   20 1   
    19    9   23 1   
    20    9   24 1   
    21   10   21 1   
    22   11   22 1   
    23   23   25 1   
@<TRIPOS>SUBSTRUCTURE
     1 1X0         1 TEMP              0 ****  ****    0 ROOT
