@<TRIPOS>MOLECULE
1X0
   26    23     1     0     0
SMALL
bcc


@<TRIPOS>ATOM
      1 C17        -0.3510   -0.0180    0.9510 c2        1 1X0      0.269000
      2 C18         0.7570    0.9590    1.1910 c2        1 1X0     -0.118000
      3 O19        -1.5550    0.2180    1.0550 o         1 1X0     -0.288000
      4 N20         0.6350    2.1870    1.5010 n2        1 1X0     -0.151000
      5 C24         2.6500   -1.3720   -1.5590 c3        1 1X0     -0.213000
      6 C25         4.1560   -1.3550   -1.5800 c3        1 1X0     -0.158000
      7 C26         4.7070   -2.5760   -2.2880 c3        1 1X0     -0.162000
      8 C27         6.1840   -2.5740   -2.3240 c2        1 1X0     -0.038000
      9 C28         6.9190   -3.7120   -2.3120 c2        1 1X0     -0.268000
     10 H14         0.9040   -1.4110    0.5100 ho        1 1X0      0.232000
     11 H15         2.7740   -1.5450    1.7510 ha        1 1X0      0.002000
     12 H16         1.7820    0.5420    1.0860 h4        1 1X0      0.157000
     13 H17         2.2600   -0.4790   -1.0090 hc        1 1X0      0.072333
     14 H18         2.2720   -2.2940   -1.0520 hc        1 1X0      0.072333
     15 H19         2.2390   -1.3520   -2.5970 hc        1 1X0      0.072333
     16 H20         4.5160   -0.4240   -2.0920 hc        1 1X0      0.082000
     17 H21         4.5480   -1.3280   -0.5280 hc        1 1X0      0.082000
     18 H22         4.3490   -3.5190   -1.7820 hc        1 1X0      0.115000
     19 H23         4.3130   -2.6050   -3.3420 hc        1 1X0      0.115000
     20 H24         6.6740   -1.5900   -2.4160 ha        1 1X0      0.121000
     21 OXT        -0.0570   -1.2950    0.5830 oh        1 1X0     -0.278000
     22 H1          2.9910   -1.5150    1.1100 ha        1 1X0      0.002000
     23 C1          6.3290   -4.9780   -2.1460 c1        1 1X0     -0.073000
     24 H2          8.0240   -3.6340   -2.3690 ha        1 1X0      0.118000
     25 H3          6.7700   -5.8370   -2.6690 ha        1 1X0      0.062000
     26 H203       -0.2960    2.5440    1.5950 hn        1 1X0      0.170000
@<TRIPOS>BOND
     1    1    2 1   
     2    1    3 1   
     3    1   21 1   
     4    2    4 1   
     5    2   12 1   
     6    4   26 1   
     7    5    6 1   
     8    5   13 1   
     9    5   14 1   
    10    5   15 1   
    11    6    7 1   
    12    6   16 1   
    13    6   17 1   
    14    7    8 1   
    15    7   18 1   
    16    7   19 1   
    17    8    9 1   
    18    8   20 1   
    19    9   23 1   
    20    9   24 1   
    21   10   21 1   
    22   11   22 1   
    23   23   25 1   
@<TRIPOS>SUBSTRUCTURE
     1 1X0         1 TEMP              0 ****  ****    0 ROOT
