@<TRIPOS>MOLECULE
1X0
   26    24     1     0     0
SMALL
bcc


@<TRIPOS>ATOM
      1 C17         0.8500   -0.3050    0.0950 c2        1 1X0      0.312000
      2 C18         2.3190   -0.3360   -0.1900 c3        1 1X0     -0.207000
      3 O19         0.0510    0.5820   -0.2120 o         1 1X0     -0.319000
      4 N20         0.6780    0.9340    2.7020 n3        1 1X0     -0.416000
      5 C24         2.7200   -1.5640   -0.9810 c3        1 1X0     -0.158000
      6 C25         4.2140   -1.5770   -1.2260 c3        1 1X0     -0.155000
      7 C26         4.6180   -2.8050   -2.0160 c3        1 1X0     -0.161000
      8 C27         6.0720   -2.8350   -2.2810 c2        1 1X0     -0.042000
      9 C28         6.6030   -3.4280   -3.3770 c2        1 1X0     -0.265000
     10 H14         0.9530   -1.9510    1.0860 ho        1 1X0      0.227000
     11 H15         0.0160    0.1950    2.5760 hn        1 1X0      0.138333
     12 H16         2.5900    0.5920   -0.7610 hc        1 1X0      0.125500
     13 H17         2.8650   -0.3040    0.7920 hc        1 1X0      0.125500
     14 H18         2.1760   -1.5740   -1.9630 hc        1 1X0      0.089500
     15 H19         2.4220   -2.4930   -0.4260 hc        1 1X0      0.089500
     16 H20         4.5090   -0.6540   -1.7910 hc        1 1X0      0.086500
     17 H21         4.7590   -1.5570   -0.2460 hc        1 1X0      0.086500
     18 H22         4.3290   -3.7310   -1.4440 hc        1 1X0      0.115500
     19 H23         4.0630   -2.8440   -2.9980 hc        1 1X0      0.115500
     20 H24         6.7240   -2.3920   -1.5100 ha        1 1X0      0.122000
     21 OXT         0.2720   -1.3270    0.7980 oh        1 1X0     -0.298000
     22 H1          0.5270    1.6160    1.9860 hn        1 1X0      0.138333
     23 C1          5.7980   -3.9590   -4.4010 c1        1 1X0     -0.070000
     24 H2          7.7050   -3.4340   -3.4990 ha        1 1X0      0.120000
     25 H3          6.1360   -4.8620   -4.9230 ha        1 1X0      0.063000
     26 H203        0.5250    1.3590    3.5920 hn        1 1X0      0.138333
@<TRIPOS>BOND
     1    1    2 1   
     2    1    3 1   
     3    1   21 1   
     4    2    5 1   
     5    2   12 1   
     6    2   13 1   
     7    4   11 1   
     8    4   22 1   
     9    4   26 1   
    10    5    6 1   
    11    5   14 1   
    12    5   15 1   
    13    6    7 1   
    14    6   16 1   
    15    6   17 1   
    16    7    8 1   
    17    7   18 1   
    18    7   19 1   
    19    8    9 1   
    20    8   20 1   
    21    9   23 1   
    22    9   24 1   
    23   10   21 1   
    24   23   25 1   
@<TRIPOS>SUBSTRUCTURE
     1 1X0         1 TEMP              0 ****  ****    0 ROOT
