@<TRIPOS>MOLECULE
1X1
   23    24     1     0     0
SMALL
bcc


@<TRIPOS>ATOM
      1 C30        -0.0370   -0.2700    0.1450 c2        1 1X1      0.382000
      2 N31         1.3300    0.5500    0.1180 nx        1 1X1     -0.104000
      3 O32         0.0590   -1.4480   -0.2320 o         1 1X1     -0.447000
      4 C33         2.3460   -0.0980    0.9760 c3        1 1X1     -0.102000
      5 C34         3.7180    0.5850    0.9630 c3        1 1X1     -0.080000
      6 C35         4.0040    1.3840   -0.2910 c2        1 1X1      0.046000
      7 C36         3.1390    1.3860   -1.3300 c2        1 1X1     -0.340000
      8 C37         1.8370    0.6760   -1.2760 c3        1 1X1     -0.049000
      9 C38         3.9360    1.4560    2.1600 c2        1 1X1     -0.296000
     10 C39         4.8480    2.4520    2.1170 c2        1 1X1     -0.067000
     11 C40         5.6020    2.7080    0.9050 c2        1 1X1     -0.280000
     12 C41         5.2100    2.1560   -0.2580 c1        1 1X1     -0.351000
     13 H28         1.9330   -0.1260    2.0230 hx        1 1X1      0.107500
     14 H29         2.4460   -1.1590    0.6090 hx        1 1X1      0.107500
     15 H30         1.1440    1.4860    0.4810 hn        1 1X1      0.216000
     16 H31         3.3540    1.9380   -2.2520 ha        1 1X1      0.139000
     17 H32         1.0550    1.2270   -1.8700 hx        1 1X1      0.100000
     18 H33         1.9210   -0.3700   -1.6910 hx        1 1X1      0.100000
     19 H34         4.4850   -0.2460    1.0130 hc        1 1X1      0.102000
     20 H35         3.3690    1.2100    3.0650 ha        1 1X1      0.091000
     21 H36         5.0490    3.0670    3.0070 ha        1 1X1      0.081000
     22 H37         6.4950    3.3370    0.9860 ha        1 1X1      0.093000
     23 OXT        -0.9860    0.4260    0.5480 o         1 1X1     -0.447000
@<TRIPOS>BOND
     1    1    2 1   
     2    1    3 1   
     3    1   23 1   
     4    2    4 1   
     5    2    8 1   
     6    2   15 1   
     7    4    5 1   
     8    4   13 1   
     9    4   14 1   
    10    5    6 1   
    11    5    9 1   
    12    5   19 1   
    13    6    7 1   
    14    6   12 1   
    15    7    8 1   
    16    7   16 1   
    17    8   17 1   
    18    8   18 1   
    19    9   10 1   
    20    9   20 1   
    21   10   11 1   
    22   10   21 1   
    23   11   12 1   
    24   11   22 1   
@<TRIPOS>SUBSTRUCTURE
     1 1X1         1 TEMP              0 ****  ****    0 ROOT
