@<TRIPOS>MOLECULE
1X1
   23    24     1     0     0
SMALL
bcc


@<TRIPOS>ATOM
      1 C30         0.2020    0.4310    0.0600 c         1 1X1      0.667100
      2 N31         1.4260   -0.2860    0.2220 n         1 1X1     -0.209400
      3 O32        -0.6050    0.3290   -0.8910 o         1 1X1     -0.636000
      4 C33         2.2010    0.1110    1.3340 c2        1 1X1     -0.494500
      5 C34         3.4810    0.7370    1.0960 c3        1 1X1      0.060400
      6 C35         3.5630    1.5320   -0.2100 c2        1 1X1     -0.112500
      7 C36         3.0650    0.8170   -1.4000 c3        1 1X1     -0.049200
      8 C37         2.1910   -0.3930   -1.0170 c3        1 1X1      0.068000
      9 C38         4.2150    1.3600    2.2270 c2        1 1X1     -0.115200
     10 C39         4.9180    2.5200    2.1130 ce        1 1X1     -0.191000
     11 C40         4.6210    3.3780    0.9850 ce        1 1X1     -0.177100
     12 C41         4.0770    2.7470   -0.0680 c1        1 1X1     -0.136800
     13 H28         0.3900    1.3200    1.7560 ho        1 1X1      0.447000
     14 H29         1.9260   -0.3230    2.2910 h4        1 1X1     -0.012200
     15 H30         2.8640   -1.2860   -0.8830 h1        1 1X1      0.041200
     16 H31         2.4560    1.5320   -2.0160 hc        1 1X1      0.040200
     17 H32         3.9140    0.4620   -2.0430 hc        1 1X1      0.040200
     18 H33         1.4800   -0.6020   -1.8640 h1        1 1X1      0.041200
     19 H34         4.2630   -0.0590    0.7540 hc        1 1X1      0.023700
     20 H35         4.1960    0.8000    3.1730 ha        1 1X1      0.110000
     21 H36         5.5650    2.8900    2.9180 ha        1 1X1      0.096000
     22 H37         4.6960    4.4640    1.0910 ha        1 1X1      0.116000
     23 OXT        -0.3170    1.1600    1.1040 oh        1 1X1     -0.616100
@<TRIPOS>BOND
     1    1    2 1   
     2    1    3 2   
     3    1   23 1   
     4    2    4 2   
     5    2    8 1   
     6    4    5 1   
     7    4   14 1   
     8    5    6 1   
     9    5    9 1   
    10    5   19 1   
    11    6    7 1   
    12    6   12 2   
    13    7    8 1   
    14    7   16 1   
    15    7   17 1   
    16    8   15 1   
    17    8   18 1   
    18    9   10 2   
    19    9   20 1   
    20   10   11 1   
    21   10   21 1   
    22   11   12 2   
    23   11   22 1   
    24   13   23 1   
@<TRIPOS>SUBSTRUCTURE
     1 1X1         1 TEMP              0 ****  ****    0 ROOT
