@<TRIPOS>MOLECULE
1X1
   23    24     1     0     0
SMALL
bcc


@<TRIPOS>ATOM
      1 C30        -0.0550   -0.2060    0.0680 c2        1 1X1      0.382000
      2 N31         1.3540    0.5390    0.0280 n4        1 1X1     -0.104000
      3 O32        -0.9990    0.5960    0.1740 o         1 1X1     -0.447000
      4 C33         2.2210    0.0790    1.1350 c3        1 1X1     -0.102000
      5 C34         3.6250    0.6940    1.1400 c3        1 1X1     -0.080000
      6 C35         4.1040    1.1650   -0.2170 c2        1 1X1      0.046000
      7 C36         3.3680    0.9500   -1.3310 c2        1 1X1     -0.340000
      8 C37         2.0280    0.3160   -1.2820 c3        1 1X1     -0.049000
      9 C38         3.7550    1.8170    2.1220 c2        1 1X1     -0.296000
     10 C39         4.7250    2.7430    1.9680 c2        1 1X1     -0.067000
     11 C40         5.6300    2.6810    0.8370 c2        1 1X1     -0.280000
     12 C41         5.3430    1.8830   -0.2090 c1        1 1X1     -0.351000
     13 H28         1.6880    0.3130    2.0980 hx        1 1X1      0.107500
     14 H29         2.2980   -1.0420    1.0380 hx        1 1X1      0.107500
     15 H30         1.1850    1.5400    0.1390 hn        1 1X1      0.216000
     16 H31         3.7230    1.2610   -2.3190 ha        1 1X1      0.139000
     17 H32         1.3560    0.7360   -2.0820 hx        1 1X1      0.100000
     18 H33         2.0940   -0.8010   -1.4290 hx        1 1X1      0.100000
     19 H34         4.3280   -0.1260    1.4780 hc        1 1X1      0.102000
     20 H35         3.0720    1.8090    2.9790 ha        1 1X1      0.091000
     21 H36         4.8590    3.5440    2.7100 ha        1 1X1      0.081000
     22 H37         6.5450    3.2820    0.8830 ha        1 1X1      0.093000
     23 OXT         0.0120   -1.4430   -0.0110 o         1 1X1     -0.447000
@<TRIPOS>BOND
     1    1    2 1   
     2    1    3 1   
     3    1   23 1   
     4    2    4 1   
     5    2    8 1   
     6    2   15 1   
     7    4    5 1   
     8    4   13 1   
     9    4   14 1   
    10    5    6 1   
    11    5    9 1   
    12    5   19 1   
    13    6    7 1   
    14    6   12 1   
    15    7    8 1   
    16    7   16 1   
    17    8   17 1   
    18    8   18 1   
    19    9   10 1   
    20    9   20 1   
    21   10   11 1   
    22   10   21 1   
    23   11   12 1   
    24   11   22 1   
@<TRIPOS>SUBSTRUCTURE
     1 1X1         1 TEMP              0 ****  ****    0 ROOT
