@<TRIPOS>MOLECULE
1X1
   23    24     1     0     0
SMALL
bcc


@<TRIPOS>ATOM
      1 C30         2.5600    0.2390    0.3150 c         1 1X1      0.995600
      2 N31         1.4870   -0.0090   -0.6590 n         1 1X1     -0.493800
      3 O32         3.2820   -0.7440    0.6510 o         1 1X1     -0.830800
      4 C33         0.4400    0.9700   -0.7540 c3        1 1X1      0.117300
      5 C34        -0.9310    0.5480   -0.2970 ca        1 1X1     -0.068300
      6 C35        -1.2080   -0.7830    0.0580 ca        1 1X1     -0.059300
      7 C36        -0.1250   -1.8010    0.0420 c3        1 1X1     -0.073100
      8 C37         1.0570   -1.3670   -0.8370 c3        1 1X1      0.091000
      9 C38        -1.9560    1.4990   -0.2530 ca        1 1X1     -0.138000
     10 C39        -3.2440    1.1370    0.1360 ca        1 1X1     -0.148000
     11 C40        -3.5200   -0.1850    0.4840 ca        1 1X1     -0.155000
     12 C41        -2.5050   -1.1390    0.4450 ca        1 1X1     -0.142000
     13 H28         0.7510    1.8920   -0.1770 h1        1 1X1      0.054200
     14 H29         0.3340    1.2660   -1.8430 h1        1 1X1      0.054200
     15 H30         0.2380   -1.9550    1.0940 hc        1 1X1      0.044200
     16 H31        -0.5190   -2.7820   -0.3290 hc        1 1X1      0.044200
     17 H32         0.7510   -1.5040   -1.9150 h1        1 1X1      0.040700
     18 H33         1.9310   -2.0460   -0.6230 h1        1 1X1      0.040700
     19 H34        -1.7340    2.5420   -0.5230 ha        1 1X1      0.123000
     20 H35        -4.0400    1.8930    0.1720 ha        1 1X1      0.110000
     21 H36        -4.5340   -0.4740    0.7910 ha        1 1X1      0.108000
     22 H37        -2.7190   -2.1810    0.7220 ha        1 1X1      0.115000
     23 OXT         2.7200    1.4280    0.7170 o         1 1X1     -0.830800
@<TRIPOS>BOND
     1    1    2 1   
     2    1    3 1   
     3    1   23 1   
     4    2    4 1   
     5    2    8 1   
     6    4    5 1   
     7    4   13 1   
     8    4   14 1   
     9    5    6 ar  
    10    5    9 ar  
    11    6    7 1   
    12    6   12 ar  
    13    7    8 1   
    14    7   15 1   
    15    7   16 1   
    16    8   17 1   
    17    8   18 1   
    18    9   10 ar  
    19    9   19 1   
    20   10   11 ar  
    21   10   20 1   
    22   11   12 ar  
    23   11   21 1   
    24   12   22 1   
@<TRIPOS>SUBSTRUCTURE
     1 1X1         1 TEMP              0 ****  ****    0 ROOT
