@<TRIPOS>MOLECULE
1X1
   23    21     1     0     0
SMALL
bcc


@<TRIPOS>ATOM
      1 C30        -2.7800   -1.7360   -0.5080 c1        1 1X1      0.407000
      2 N31        -1.5080   -1.0990   -0.4700 n2        1 1X1     -0.367000
      3 O32        -3.2690   -2.0880   -1.6120 o         1 1X1     -0.566500
      4 C33        -0.7520   -1.1640    0.6500 c3        1 1X1      0.009000
      5 C34         0.3870   -0.0480    0.8090 c2        1 1X1     -0.045000
      6 C35         0.6280    0.7970   -0.2850 c1        1 1X1     -0.053000
      7 C36        -0.1290    0.4820   -1.6170 c2        1 1X1     -0.133000
      8 C37        -0.8860   -0.7300   -1.6470 c3        1 1X1     -0.021000
      9 C38         1.1210    0.1030    1.9750 c2        1 1X1     -0.141000
     10 C39         2.0960    1.0940    2.0580 c1        1 1X1     -0.147000
     11 C40         2.3430    1.9620    0.9350 c1        1 1X1     -0.156000
     12 C41         1.6370    1.8190   -0.1910 c2        1 1X1     -0.142000
     13 H28        -1.3730   -1.0780    1.4390 h1        1 1X1      0.082500
     14 H29        -0.3080   -2.0380    0.6540 h1        1 1X1      0.082500
     15 H30         0.5630    0.4410   -2.3740 ha        1 1X1      0.077000
     16 H31        -0.7220    1.2020   -1.7980 ha        1 1X1      0.077000
     17 H32        -1.5920   -0.6240   -2.3300 h1        1 1X1      0.070000
     18 H33        -0.3700   -1.3380   -1.8560 h1        1 1X1      0.070000
     19 H34         0.9660   -0.4500    2.6890 ha        1 1X1      0.126000
     20 H35         2.6070    1.2010    2.8720 ha        1 1X1      0.111000
     21 H36         3.0400    2.6680    0.9950 ha        1 1X1      0.109000
     22 H37         1.8020    2.4310   -0.9630 ha        1 1X1      0.115000
     23 OXT        -3.5010   -1.8100    0.5740 o         1 1X1     -0.566500
@<TRIPOS>BOND
     1    1    3 1   
     2    1   23 1   
     3    2    4 1   
     4    2    8 1   
     5    4    5 1   
     6    4   13 1   
     7    4   14 1   
     8    5    6 1   
     9    5    9 1   
    10    6   12 1   
    11    7    8 1   
    12    7   15 1   
    13    7   16 1   
    14    8   17 1   
    15    8   18 1   
    16    9   10 1   
    17    9   19 1   
    18   10   20 1   
    19   11   12 1   
    20   11   21 1   
    21   12   22 1   
@<TRIPOS>SUBSTRUCTURE
     1 1X1         1 TEMP              0 ****  ****    0 ROOT
