@<TRIPOS>MOLECULE
1X2
   32    32     1     0     0
SMALL
bcc


@<TRIPOS>ATOM
      1 C10         0.0870   -0.0010   -0.1050 ca        1 1X2     -0.079300
      2 C11         1.4640    0.1400    0.0990 ca        1 1X2     -0.127500
      3 C12         1.9740    0.2640    1.3910 ca        1 1X2     -0.128000
      4 C13         1.1150    0.2490    2.4880 ca        1 1X2     -0.132000
      5 C14        -0.2590    0.1090    2.2910 ca        1 1X2     -0.128000
      6 C15        -0.7710   -0.0150    1.0010 ca        1 1X2     -0.127500
      7 S01        -4.2210   -3.8120   -8.7850 s         1 1X2     -0.227900
      8 C02        -3.8180   -4.2830   -7.4500 c1        1 1X2      0.478300
      9 N03        -3.5560   -4.8560   -6.4020 n2        1 1X2     -0.613600
     10 C04        -2.9860   -4.5970   -5.1340 c3        1 1X2      0.216800
     11 C05        -2.5390   -3.1590   -4.8620 c3        1 1X2     -0.113400
     12 C06        -1.9550   -3.0590   -3.4700 c3        1 1X2     -0.077400
     13 C07        -1.5050   -1.6450   -3.1710 c3        1 1X2     -0.080400
     14 C08        -0.9180   -1.5420   -1.7790 c3        1 1X2     -0.076400
     15 C09        -0.4650   -0.1250   -1.4820 c3        1 1X2     -0.037100
     16 H1          2.1470    0.1550   -0.7630 ha        1 1X2      0.130500
     17 H2          3.0580    0.3750    1.5430 ha        1 1X2      0.131000
     18 H3          1.5180    0.3470    3.5060 ha        1 1X2      0.131000
     19 H4         -0.9410    0.0970    3.1540 ha        1 1X2      0.131000
     20 H5         -1.8550   -0.1240    0.8460 ha        1 1X2      0.130500
     21 H8         -3.7530   -4.8980   -4.3600 h1        1 1X2      0.064700
     22 H9         -2.0970   -5.2870   -5.0240 h1        1 1X2      0.064700
     23 H10        -1.7720   -2.8450   -5.6170 hc        1 1X2      0.053200
     24 H11        -3.4110   -2.4610   -4.9580 hc        1 1X2      0.053200
     25 H12        -1.0830   -3.7590   -3.3740 hc        1 1X2      0.044700
     26 H13        -2.7210   -3.3770   -2.7140 hc        1 1X2      0.044700
     27 H14        -0.7400   -1.3250   -3.9270 hc        1 1X2      0.042700
     28 H15        -2.3760   -0.9440   -3.2650 hc        1 1X2      0.042700
     29 H16        -1.6830   -1.8570   -1.0210 hc        1 1X2      0.045700
     30 H17        -0.0480   -2.2430   -1.6830 hc        1 1X2      0.045700
     31 H18        -1.3370    0.5750   -1.5960 hc        1 1X2      0.048700
     32 H19         0.3070    0.1840   -2.2360 hc        1 1X2      0.048700
@<TRIPOS>BOND
     1    1    2 ar  
     2    1    6 ar  
     3    1   15 1   
     4    2    3 ar  
     5    2   16 1   
     6    3    4 ar  
     7    3   17 1   
     8    4    5 ar  
     9    4   18 1   
    10    5    6 ar  
    11    5   19 1   
    12    6   20 1   
    13    7    8 2   
    14    8    9 2   
    15    9   10 1   
    16   10   11 1   
    17   10   21 1   
    18   10   22 1   
    19   11   12 1   
    20   11   23 1   
    21   11   24 1   
    22   12   13 1   
    23   12   25 1   
    24   12   26 1   
    25   13   14 1   
    26   13   27 1   
    27   13   28 1   
    28   14   15 1   
    29   14   29 1   
    30   14   30 1   
    31   15   31 1   
    32   15   32 1   
@<TRIPOS>SUBSTRUCTURE
     1 1X2         1 TEMP              0 ****  ****    0 ROOT
