@<TRIPOS>MOLECULE
1X2
   32    32     1     0     0
SMALL
bcc


@<TRIPOS>ATOM
      1 C10         0.0380   -0.0160   -0.0980 ca        1 1X2     -0.079300
      2 C11         1.4140    0.1700    0.0730 ca        1 1X2     -0.127500
      3 C12         1.9540    0.2910    1.3530 ca        1 1X2     -0.128000
      4 C13         1.1240    0.2280    2.4720 ca        1 1X2     -0.132000
      5 C14        -0.2490    0.0440    2.3080 ca        1 1X2     -0.128000
      6 C15        -0.7900   -0.0770    1.0300 ca        1 1X2     -0.127500
      7 S01        -4.3900   -3.8290   -8.7160 s         1 1X2     -0.227900
      8 C02        -3.9230   -4.3100   -7.4050 c1        1 1X2      0.478300
      9 N03        -3.6010   -4.8930   -6.3800 n2        1 1X2     -0.613600
     10 C04        -3.0050   -4.6350   -5.1230 c3        1 1X2      0.216800
     11 C05        -2.6040   -3.1860   -4.8380 c3        1 1X2     -0.113400
     12 C06        -1.9840   -3.0890   -3.4610 c3        1 1X2     -0.077400
     13 C07        -1.5770   -1.6640   -3.1480 c3        1 1X2     -0.080400
     14 C08        -0.9570   -1.5640   -1.7710 c3        1 1X2     -0.076400
     15 C09        -0.5460   -0.1370   -1.4620 c3        1 1X2     -0.037100
     16 H1          2.0740    0.2220   -0.8060 ha        1 1X2      0.130500
     17 H2          3.0370    0.4370    1.4790 ha        1 1X2      0.131000
     18 H3          1.5510    0.3230    3.4810 ha        1 1X2      0.131000
     19 H4         -0.9060   -0.0050    3.1880 ha        1 1X2      0.131000
     20 H5         -1.8730   -0.2210    0.9010 ha        1 1X2      0.130500
     21 H8         -3.7380   -4.9780   -4.3340 h1        1 1X2      0.064700
     22 H9         -2.0880   -5.2930   -5.0510 h1        1 1X2      0.064700
     23 H10        -1.8710   -2.8300   -5.6080 hc        1 1X2      0.052700
     24 H11        -3.5030   -2.5190   -4.8960 hc        1 1X2      0.052700
     25 H12        -2.7170   -3.4470   -2.6900 hc        1 1X2      0.044700
     26 H13        -1.0860   -3.7580   -3.4010 hc        1 1X2      0.044700
     27 H14        -0.8450   -1.3050   -3.9190 hc        1 1X2      0.042700
     28 H15        -2.4750   -0.9940   -3.2080 hc        1 1X2      0.042700
     29 H16        -1.6890   -1.9180   -0.9990 hc        1 1X2      0.045700
     30 H17        -0.0600   -2.2350   -1.7110 hc        1 1X2      0.045700
     31 H18        -1.4440    0.5340   -1.5410 hc        1 1X2      0.048700
     32 H19         0.1950    0.2110   -2.2300 hc        1 1X2      0.048700
@<TRIPOS>BOND
     1    1    2 ar  
     2    1    6 ar  
     3    1   15 1   
     4    2    3 ar  
     5    2   16 1   
     6    3    4 ar  
     7    3   17 1   
     8    4    5 ar  
     9    4   18 1   
    10    5    6 ar  
    11    5   19 1   
    12    6   20 1   
    13    7    8 2   
    14    8    9 2   
    15    9   10 1   
    16   10   11 1   
    17   10   21 1   
    18   10   22 1   
    19   11   12 1   
    20   11   23 1   
    21   11   24 1   
    22   12   13 1   
    23   12   25 1   
    24   12   26 1   
    25   13   14 1   
    26   13   27 1   
    27   13   28 1   
    28   14   15 1   
    29   14   29 1   
    30   14   30 1   
    31   15   31 1   
    32   15   32 1   
@<TRIPOS>SUBSTRUCTURE
     1 1X2         1 TEMP              0 ****  ****    0 ROOT
