@<TRIPOS>MOLECULE
1X2
   32    32     1     0     0
SMALL
bcc


@<TRIPOS>ATOM
      1 C10         0.0180   -0.0160   -0.0860 ca        1 1X2     -0.079300
      2 C11         1.3900    0.2220    0.0560 ca        1 1X2     -0.127500
      3 C12         1.9570    0.3340    1.3250 ca        1 1X2     -0.128000
      4 C13         1.1600    0.2100    2.4620 ca        1 1X2     -0.132000
      5 C14        -0.2090   -0.0270    2.3270 ca        1 1X2     -0.128000
      6 C15        -0.7770   -0.1400    1.0600 ca        1 1X2     -0.127500
      7 S01        -4.4910   -3.7980   -8.6750 s         1 1X2     -0.227900
      8 C02        -3.9600   -4.2930   -7.3940 c1        1 1X2      0.478300
      9 N03        -3.5760   -4.8880   -6.3970 n2        1 1X2     -0.613600
     10 C04        -2.9560   -4.6370   -5.1510 c3        1 1X2      0.216800
     11 C05        -2.6110   -3.1790   -4.8380 c3        1 1X2     -0.113400
     12 C06        -1.9590   -3.0890   -3.4750 c3        1 1X2     -0.077400
     13 C07        -1.6050   -1.6570   -3.1360 c3        1 1X2     -0.080400
     14 C08        -0.9530   -1.5640   -1.7730 c3        1 1X2     -0.076400
     15 C09        -0.5950   -0.1290   -1.4370 c3        1 1X2     -0.037100
     16 H1          2.0230    0.3230   -0.8380 ha        1 1X2      0.130500
     17 H2          3.0360    0.5220    1.4270 ha        1 1X2      0.131000
     18 H3          1.6080    0.2990    3.4620 ha        1 1X2      0.131000
     19 H4         -0.8400   -0.1250    3.2220 ha        1 1X2      0.131000
     20 H5         -1.8560   -0.3250    0.9550 ha        1 1X2      0.130500
     21 H8         -3.6510   -5.0320   -4.3520 h1        1 1X2      0.064700
     22 H9         -2.0100   -5.2550   -5.1220 h1        1 1X2      0.064700
     23 H10        -1.9150   -2.7720   -5.6170 hc        1 1X2      0.052700
     24 H11        -3.5400   -2.5510   -4.8550 hc        1 1X2      0.052700
     25 H12        -2.6550   -3.4980   -2.6950 hc        1 1X2      0.044700
     26 H13        -1.0320   -3.7200   -3.4570 hc        1 1X2      0.044700
     27 H14        -0.9090   -1.2470   -3.9160 hc        1 1X2      0.042700
     28 H15        -2.5320   -1.0250   -3.1550 hc        1 1X2      0.042700
     29 H16        -1.6490   -1.9680   -0.9920 hc        1 1X2      0.045700
     30 H17        -0.0280   -2.1970   -1.7530 hc        1 1X2      0.045700
     31 H18        -1.5230    0.5040   -1.4770 hc        1 1X2      0.048700
     32 H19         0.1110    0.2700   -2.2150 hc        1 1X2      0.048700
@<TRIPOS>BOND
     1    1    2 ar  
     2    1    6 ar  
     3    1   15 1   
     4    2    3 ar  
     5    2   16 1   
     6    3    4 ar  
     7    3   17 1   
     8    4    5 ar  
     9    4   18 1   
    10    5    6 ar  
    11    5   19 1   
    12    6   20 1   
    13    7    8 2   
    14    8    9 2   
    15    9   10 1   
    16   10   11 1   
    17   10   21 1   
    18   10   22 1   
    19   11   12 1   
    20   11   23 1   
    21   11   24 1   
    22   12   13 1   
    23   12   25 1   
    24   12   26 1   
    25   13   14 1   
    26   13   27 1   
    27   13   28 1   
    28   14   15 1   
    29   14   29 1   
    30   14   30 1   
    31   15   31 1   
    32   15   32 1   
@<TRIPOS>SUBSTRUCTURE
     1 1X2         1 TEMP              0 ****  ****    0 ROOT
