@<TRIPOS>MOLECULE
1X4
   21    20     1     0     0
SMALL
bcc


@<TRIPOS>ATOM
      1 O1P        -1.6710   -3.5930    1.5100 o         1 1X4     -1.244000
      2 P          -0.1710   -3.4330    1.5320 p3        1 1X4      2.511000
      3 O2P         0.2930   -3.1880    2.9630 o         1 1X4     -1.244000
      4 O3P         0.4840   -4.7040    0.9950 o         1 1X4     -1.244000
      5 O5'         0.2530   -2.1710    0.5980 o         1 1X4     -0.727000
      6 C5'        -0.2320   -0.8690    0.9420 c3        1 1X4      0.070000
      7 C4'         0.4250    0.1780    0.0350 c3        1 1X4     -0.008000
      8 O1'         0.1200   -0.0500   -1.1880 os        1 1X4     -0.336000
      9 C3'        -0.1500    1.6450    0.3800 c3        1 1X4     -0.245000
     10 C2'         0.0260    2.3520   -0.6680 c3        1 1X4     -0.193000
     11 C1'         0.0230    1.3400   -1.8380 c3        1 1X4      0.145000
     12 O1          1.0390    1.5460   -2.6150 oh        1 1X4     -0.388000
     13 H3         -0.0140   -0.6750    1.8750 h1        1 1X4      0.040500
     14 H4         -1.2000   -0.8400    0.8220 h1        1 1X4      0.040500
     15 H5          1.4150    0.1600    0.1510 h1        1 1X4      0.067000
     16 H6         -1.1270    1.5900    0.5990 hc        1 1X4      0.148000
     17 H7          0.3390    2.0270    1.1260 hc        1 1X4      0.148000
     18 H8         -0.7040    2.9930   -0.7710 hc        1 1X4      0.080500
     19 H9          0.8920    2.8230   -0.6230 hc        1 1X4      0.080500
     20 H10        -0.8280    1.4160   -2.3590 h2        1 1X4      0.101000
     21 H11         0.7870    1.4530   -3.4650 ho        1 1X4      0.198000
@<TRIPOS>BOND
     1    1    2 1   
     2    2    3 1   
     3    2    4 1   
     4    5    6 1   
     5    6    7 1   
     6    6   13 1   
     7    6   14 1   
     8    7    8 1   
     9    7    9 1   
    10    7   15 1   
    11    8   11 1   
    12    9   10 1   
    13    9   16 1   
    14    9   17 1   
    15   10   11 1   
    16   10   18 1   
    17   10   19 1   
    18   11   12 1   
    19   11   20 1   
    20   12   21 1   
@<TRIPOS>SUBSTRUCTURE
     1 1X4         1 TEMP              0 ****  ****    0 ROOT
