@<TRIPOS>MOLECULE
1X4
   21    21     1     0     0
SMALL
bcc


@<TRIPOS>ATOM
      1 O1P         1.8990   -1.2000   -0.9490 o         1 1X4     -0.924500
      2 P           2.9850   -0.1850   -0.7450 p5        1 1X4      1.318900
      3 O2P         3.8050   -0.2920    0.5120 o         1 1X4     -0.924500
      4 O3P         3.7750    0.2050   -1.9740 o         1 1X4     -0.924500
      5 O5'         2.0720    1.2690   -0.4520 os        1 1X4     -0.565200
      6 C5'         2.7610    2.2730    0.1700 c3        1 1X4      0.220400
      7 C4'         2.8850    3.5000   -0.7640 c3        1 1X4      0.103100
      8 O1'         3.4900    4.6010   -0.0280 os        1 1X4     -0.479600
      9 C3'         3.7680    3.2160   -1.9750 c3        1 1X4     -0.166400
     10 C2'         5.0850    3.9160   -1.6900 c3        1 1X4     -0.114400
     11 C1'         4.7870    4.8670   -0.5210 c3        1 1X4      0.327900
     12 O1          4.7360    6.2280   -0.9170 oh        1 1X4     -0.660800
     13 H3          3.7900    1.9390    0.4850 h1        1 1X4      0.001200
     14 H4          2.1990    2.6240    1.0870 h1        1 1X4      0.001200
     15 H5          1.8690    3.8700   -1.0590 h1        1 1X4      0.027700
     16 H6          3.3050    3.6150   -2.9090 hc        1 1X4      0.108700
     17 H7          3.8800    2.0760   -2.0840 hc        1 1X4      0.108700
     18 H8          5.4630    4.4860   -2.5710 hc        1 1X4      0.041200
     19 H9          5.8620    3.1740   -1.3850 hc        1 1X4      0.041200
     20 H10         5.5300    4.8250    0.3170 h2        1 1X4      0.061700
     21 H11         3.9120    6.3490   -1.4020 ho        1 1X4      0.399000
@<TRIPOS>BOND
     1    1    2 1   
     2    2    3 1   
     3    2    4 1   
     4    2    5 1   
     5    5    6 1   
     6    6    7 1   
     7    6   13 1   
     8    6   14 1   
     9    7    8 1   
    10    7    9 1   
    11    7   15 1   
    12    8   11 1   
    13    9   10 1   
    14    9   16 1   
    15    9   17 1   
    16   10   11 1   
    17   10   18 1   
    18   10   19 1   
    19   11   12 1   
    20   11   20 1   
    21   12   21 1   
@<TRIPOS>SUBSTRUCTURE
     1 1X4         1 TEMP              0 ****  ****    0 ROOT
