@<TRIPOS>MOLECULE
1X4
   21    21     1     0     0
SMALL
bcc


@<TRIPOS>ATOM
      1 O1P        -3.2100    1.1630    0.4390 o         1 1X4     -0.924500
      2 P          -1.8750    1.2430   -0.2410 p5        1 1X4      1.318900
      3 O2P        -1.8410    1.0180   -1.7280 o         1 1X4     -0.924500
      4 O3P        -0.9400    2.3270    0.2470 o         1 1X4     -0.924500
      5 O5'        -1.0780   -0.1860    0.3550 os        1 1X4     -0.565200
      6 C5'        -0.0130   -0.6120   -0.3910 c3        1 1X4      0.220400
      7 C4'         1.2930   -0.5170    0.4340 c3        1 1X4      0.103100
      8 O1'         2.3820   -1.1120   -0.3280 os        1 1X4     -0.479600
      9 C3'         1.6800    0.9260    0.7390 c3        1 1X4     -0.166400
     10 C2'         2.8280    1.2460   -0.2010 c3        1 1X4     -0.114400
     11 C1'         3.2950   -0.1150   -0.7380 c3        1 1X4      0.327900
     12 O1          4.5340   -0.5300   -0.1870 oh        1 1X4     -0.660800
     13 H3         -0.1390   -1.7010   -0.6670 h1        1 1X4      0.001200
     14 H4          0.1000   -0.0100   -1.3370 h1        1 1X4      0.001200
     15 H5          1.2130   -1.1390    1.3630 h1        1 1X4      0.027700
     16 H6          0.7580    1.5940    0.5650 hc        1 1X4      0.108700
     17 H7          1.9990    1.0380    1.8030 hc        1 1X4      0.108700
     18 H8          2.4730    1.8850   -1.0460 hc        1 1X4      0.041200
     19 H9          3.6670    1.7710    0.3150 hc        1 1X4      0.041200
     20 H10         3.4310   -0.1570   -1.8500 h2        1 1X4      0.061700
     21 H11         4.3610   -0.7970    0.7230 ho        1 1X4      0.399000
@<TRIPOS>BOND
     1    1    2 1   
     2    2    3 1   
     3    2    4 1   
     4    2    5 1   
     5    5    6 1   
     6    6    7 1   
     7    6   13 1   
     8    6   14 1   
     9    7    8 1   
    10    7    9 1   
    11    7   15 1   
    12    8   11 1   
    13    9   10 1   
    14    9   16 1   
    15    9   17 1   
    16   10   11 1   
    17   10   18 1   
    18   10   19 1   
    19   11   12 1   
    20   11   20 1   
    21   12   21 1   
@<TRIPOS>SUBSTRUCTURE
     1 1X4         1 TEMP              0 ****  ****    0 ROOT
