@<TRIPOS>MOLECULE
1X4
   21    21     1     0     0
SMALL
bcc


@<TRIPOS>ATOM
      1 O1P         1.8860   -1.1910   -0.7350 o         1 1X4     -0.924500
      2 P           2.9540   -0.1590   -0.5260 p5        1 1X4      1.318900
      3 O2P         3.6530   -0.1470    0.8060 o         1 1X4     -0.924500
      4 O3P         3.8580    0.1170   -1.7070 o         1 1X4     -0.924500
      5 O5'         2.0270    1.3140   -0.4560 os        1 1X4     -0.565200
      6 C5'         2.6610    2.3730    0.1320 c3        1 1X4      0.220400
      7 C4'         2.8800    3.5080   -0.8960 c3        1 1X4      0.103100
      8 O1'         3.4200    4.6740   -0.2120 os        1 1X4     -0.479600
      9 C3'         3.8710    3.1150   -1.9870 c3        1 1X4     -0.166400
     10 C2'         5.1600    3.8410   -1.6450 c3        1 1X4     -0.114400
     11 C1'         4.7600    4.8960   -0.6040 c3        1 1X4      0.327900
     12 O1          4.7550    6.2140   -1.1280 oh        1 1X4     -0.660800
     13 H3          2.0180    2.8070    0.9550 h1        1 1X4      0.001200
     14 H4          3.6540    2.0720    0.5710 h1        1 1X4      0.001200
     15 H5          1.8990    3.8460   -1.3190 h1        1 1X4      0.027700
     16 H6          3.9850    1.9700   -1.9790 hc        1 1X4      0.108700
     17 H7          3.5000    3.4240   -2.9940 hc        1 1X4      0.108700
     18 H8          5.9000    3.1320   -1.2010 hc        1 1X4      0.041200
     19 H9          5.6230    4.3280   -2.5360 hc        1 1X4      0.041200
     20 H10         5.4200    4.9340    0.3010 h2        1 1X4      0.061700
     21 H11         3.9800    6.2870   -1.6960 ho        1 1X4      0.399000
@<TRIPOS>BOND
     1    1    2 1   
     2    2    3 1   
     3    2    4 1   
     4    2    5 1   
     5    5    6 1   
     6    6    7 1   
     7    6   13 1   
     8    6   14 1   
     9    7    8 1   
    10    7    9 1   
    11    7   15 1   
    12    8   11 1   
    13    9   10 1   
    14    9   16 1   
    15    9   17 1   
    16   10   11 1   
    17   10   18 1   
    18   10   19 1   
    19   11   12 1   
    20   11   20 1   
    21   12   21 1   
@<TRIPOS>SUBSTRUCTURE
     1 1X4         1 TEMP              0 ****  ****    0 ROOT
