@<TRIPOS>MOLECULE
1X5
   42    44     1     0     0
SMALL
bcc


@<TRIPOS>ATOM
      1 CAA        -0.2240    0.2890    0.2310 ca        1 1X5      0.077600
      2 CAB         1.0270   -0.3750    0.3670 ca        1 1X5     -0.152600
      3 CAC        -0.7410    0.9860    1.3440 ca        1 1X5     -0.178000
      4 NAD        -0.9090    0.2190   -0.9920 n         1 1X5     -0.448100
      5 CAE         1.6910   -0.3320    1.5910 ca        1 1X5     -0.116000
      6 CAF         1.7260   -1.1450   -0.7490 c         1 1X5      0.914200
      7 CAG        -0.0550    1.0270    2.5510 ca        1 1X5     -0.136000
      8 CAH         1.1790    0.3660    2.7010 ca        1 1X5      0.043600
      9 OAI         2.9590   -1.3760   -0.6110 o         1 1X5     -0.829800
     10 OAJ         1.0670   -1.5370   -1.7610 o         1 1X5     -0.829800
     11 CAK         1.2550   -1.5630    5.2730 ca        1 1X5     -0.220600
     12 CAL         2.3930   -2.2190    5.7550 ca        1 1X5     -0.088000
     13 CAM         0.1120   -2.3440    4.9920 ca        1 1X5      0.414200
     14 CAN         1.2280   -0.0730    5.0930 c3        1 1X5      0.233100
     15 CAO         2.3550   -3.6010    5.9420 ca        1 1X5     -0.253300
     16 NAP         0.0550   -3.6750    5.1790 nb        1 1X5     -0.669000
     17 NAQ         1.8940    0.4930    3.9350 nh        1 1X5     -0.622000
     18 CAR         1.1640   -4.2840    5.6430 ca        1 1X5      0.388200
     19 CAS         3.3060    0.2080    3.8600 c3        1 1X5      0.166100
     20 CAT        -2.4960    0.6680   -2.7890 cx        1 1X5     -0.205700
     21 CAU        -2.0110    0.9360   -1.3870 c         1 1X5      0.684100
     22 CAV        -3.0970    1.8230   -3.5490 cx        1 1X5     -0.115900
     23 CAW        -3.9830    0.7300   -3.0360 cx        1 1X5     -0.115900
     24 OAX        -2.6180    1.7640   -0.6670 o         1 1X5     -0.655100
     25 HAC        -1.7020    1.5190    1.2680 ha        1 1X5      0.156000
     26 HNAD       -0.4850   -0.4100   -1.6670 hn        1 1X5      0.380500
     27 HAE         2.6610   -0.8600    1.6430 ha        1 1X5      0.161000
     28 HAG        -0.4900    1.5950    3.3860 ha        1 1X5      0.114000
     29 HAL         3.3060   -1.6470    5.9780 ha        1 1X5      0.134000
     30 HAM        -0.8020   -1.8740    4.5860 h4        1 1X5      0.030100
     31 HAN         1.7160    0.3900    6.0010 h1        1 1X5      0.050700
     32 HANA        0.1530    0.2660    5.0660 h1        1 1X5      0.050700
     33 HAO         3.2340   -4.1470    6.3060 ha        1 1X5      0.133000
     34 HAR         1.0900   -5.3780    5.7760 h4        1 1X5      0.011100
     35 HAS         3.7420    0.7590    2.9850 h1        1 1X5      0.033367
     36 HASA        3.5420   -0.8860    3.7470 h1        1 1X5      0.033367
     37 HASB        3.7890    0.5770    4.8040 h1        1 1X5      0.033367
     38 HAT        -1.9040   -0.0780   -3.3570 hc        1 1X5      0.101700
     39 HAV        -2.8970    1.9010   -4.6320 hc        1 1X5      0.073200
     40 HAVA       -3.1340    2.8100   -3.0520 hc        1 1X5      0.073200
     41 HAW        -4.6440    0.9470   -2.1770 hc        1 1X5      0.073200
     42 HAWA       -4.4290    0.0110   -3.7440 hc        1 1X5      0.073200
@<TRIPOS>BOND
     1    1    2 ar  
     2    1    3 ar  
     3    1    4 1   
     4    2    5 ar  
     5    2    6 1   
     6    3    7 ar  
     7    3   25 1   
     8    4   21 1   
     9    4   26 1   
    10    5    8 ar  
    11    5   27 1   
    12    6    9 1   
    13    6   10 1   
    14    7    8 ar  
    15    7   28 1   
    16    8   17 1   
    17   11   12 ar  
    18   11   13 ar  
    19   11   14 1   
    20   12   15 ar  
    21   12   29 1   
    22   13   16 ar  
    23   13   30 1   
    24   14   17 1   
    25   14   31 1   
    26   14   32 1   
    27   15   18 ar  
    28   15   33 1   
    29   16   18 ar  
    30   17   19 1   
    31   18   34 1   
    32   19   35 1   
    33   19   36 1   
    34   19   37 1   
    35   20   21 1   
    36   20   22 1   
    37   20   23 1   
    38   20   38 1   
    39   21   24 2   
    40   22   23 1   
    41   22   39 1   
    42   22   40 1   
    43   23   41 1   
    44   23   42 1   
@<TRIPOS>SUBSTRUCTURE
     1 1X5         1 TEMP              0 ****  ****    0 ROOT
