@<TRIPOS>MOLECULE
1X5
   44    46     1     0     0
SMALL
bcc


@<TRIPOS>ATOM
      1 CAA        -0.1010    0.1590    0.2440 ca        1 1X5      0.184600
      2 CAB         1.0340   -0.6900    0.4030 ca        1 1X5     -0.244600
      3 CAC        -0.3950    1.0560    1.3110 ca        1 1X5     -0.161000
      4 NAD        -0.8630    0.0730   -0.9060 n         1 1X5     -0.474100
      5 CAE         1.7790   -0.6870    1.5810 ca        1 1X5     -0.013000
      6 CAF         1.4360   -1.6610   -0.6400 c         1 1X5      0.628700
      7 CAG         0.3620    1.0750    2.4650 ca        1 1X5     -0.053000
      8 CAH         1.4540    0.1940    2.6200 ca        1 1X5     -0.114400
      9 OAI         1.6090   -1.2300   -1.9260 oh        1 1X5     -0.570100
     10 OAJ         1.6260   -2.8630   -0.4790 o         1 1X5     -0.443000
     11 CAK         1.2740   -1.7320    5.1150 ca        1 1X5     -0.304600
     12 CAL         2.3120   -2.5440    5.6000 ca        1 1X5     -0.074000
     13 CAM         0.0620   -2.3490    4.7390 ca        1 1X5      0.448200
     14 CAN         1.4240   -0.2570    5.0530 c3        1 1X5      0.189100
     15 CAO         2.1090   -3.9190    5.6820 ca        1 1X5     -0.234300
     16 NAP        -0.1460   -3.6760    4.8160 nb        1 1X5     -0.643000
     17 NAQ         2.2440    0.1840    3.8580 n4        1 1X5     -0.546800
     18 CAR         0.8620   -4.4410    5.2770 ca        1 1X5      0.448200
     19 CAS         2.8610    1.5150    4.1050 c3        1 1X5      0.089100
     20 CAT        -2.6550    0.4970   -2.5390 cx        1 1X5     -0.250700
     21 CAU        -1.9720    0.8730   -1.2680 c         1 1X5      0.711100
     22 CAV        -4.1410    0.7710   -2.6360 cx        1 1X5     -0.085400
     23 CAW        -3.1850    1.6220   -3.4040 cx        1 1X5     -0.085400
     24 OAX        -2.3270    1.8280   -0.5620 o         1 1X5     -0.559100
     25 HAC        -1.2490    1.7560    1.2300 ha        1 1X5      0.210000
     26 HNAD       -0.6370   -0.6730   -1.5370 hn        1 1X5      0.343500
     27 HAE         2.6180   -1.4030    1.6650 ha        1 1X5      0.167000
     28 HAG         0.0920    1.7870    3.2630 ha        1 1X5      0.154000
     29 HAL         3.2660   -2.1030    5.9260 ha        1 1X5      0.139000
     30 HAM        -0.7920   -1.7530    4.3650 h4        1 1X5      0.034100
     31 HAN         1.9580    0.1160    5.9750 hx        1 1X5      0.103700
     32 HANA        0.4190    0.2490    4.9840 hx        1 1X5      0.103700
     33 HAO         2.8950   -4.5890    6.0600 ha        1 1X5      0.170000
     34 HAR         0.6570   -5.5290    5.3270 h4        1 1X5      0.053100
     35 HAS         3.4170    1.8420    3.1850 hx        1 1X5      0.101700
     36 HASA        3.5700    1.4380    4.9710 hx        1 1X5      0.101700
     37 HASB        2.0590    2.2640    4.3390 hx        1 1X5      0.101700
     38 HAT        -2.2610   -0.4060   -3.0470 hc        1 1X5      0.104700
     39 HAV        -4.6540    1.2060   -1.7570 hc        1 1X5      0.095200
     40 HAVA       -4.7690    0.0320   -3.1680 hc        1 1X5      0.095200
     41 HAW        -3.1080    1.5110   -4.5010 hc        1 1X5      0.095200
     42 HAWA       -3.0170    2.6640   -3.0720 hc        1 1X5      0.095200
     43 HAD2        1.6950   -0.2660   -1.9520 ho        1 1X5      0.438000
     44 HAQ1        3.0010   -0.5050    3.7360 hn        1 1X5      0.449800
@<TRIPOS>BOND
     1    1    2 ar  
     2    1    3 ar  
     3    1    4 1   
     4    2    5 ar  
     5    2    6 1   
     6    3    7 ar  
     7    3   25 1   
     8    4   21 1   
     9    4   26 1   
    10    5    8 ar  
    11    5   27 1   
    12    6    9 1   
    13    6   10 2   
    14    7    8 ar  
    15    7   28 1   
    16    8   17 1   
    17    9   43 1   
    18   11   12 ar  
    19   11   13 ar  
    20   11   14 1   
    21   12   15 ar  
    22   12   29 1   
    23   13   16 ar  
    24   13   30 1   
    25   14   17 1   
    26   14   31 1   
    27   14   32 1   
    28   15   18 ar  
    29   15   33 1   
    30   16   18 ar  
    31   17   19 1   
    32   17   44 1   
    33   18   34 1   
    34   19   35 1   
    35   19   36 1   
    36   19   37 1   
    37   20   21 1   
    38   20   22 1   
    39   20   23 1   
    40   20   38 1   
    41   21   24 2   
    42   22   23 1   
    43   22   39 1   
    44   22   40 1   
    45   23   41 1   
    46   23   42 1   
@<TRIPOS>SUBSTRUCTURE
     1 1X5         1 TEMP              0 ****  ****    0 ROOT
