@<TRIPOS>MOLECULE
1X5
   42    44     1     0     0
SMALL
bcc


@<TRIPOS>ATOM
      1 CAA        -0.2770    0.2960    0.1710 ca        1 1X5      0.076600
      2 CAB         0.9590   -0.4050    0.2440 ca        1 1X5     -0.151600
      3 CAC        -0.7230    0.9930    1.3130 ca        1 1X5     -0.175000
      4 NAD        -1.0160    0.2610   -1.0220 ns        1 1X5     -0.448100
      5 CAE         1.6770   -0.3970    1.4380 ca        1 1X5     -0.128000
      6 CAF         1.5860   -1.1800   -0.9120 c         1 1X5      0.913200
      7 CAG         0.0160    1.0000    2.4880 ca        1 1X5     -0.135000
      8 CAH         1.2350    0.3010    2.5780 ca        1 1X5      0.041600
      9 OAI         2.8170   -1.4420   -0.8320 o         1 1X5     -0.827800
     10 OAJ         0.8710   -1.5420   -1.8960 o         1 1X5     -0.827800
     11 CAK         1.4720   -1.6010    5.2600 ca        1 1X5     -0.221600
     12 CAL         1.6170   -2.0370    6.5820 ca        1 1X5     -0.102000
     13 CAM         1.3810   -2.5820    4.2470 ca        1 1X5      0.410200
     14 CAN         1.3710   -0.1330    4.9680 c3        1 1X5      0.233100
     15 CAO         1.6600   -3.4060    6.8500 ca        1 1X5     -0.259300
     16 NAP         1.4220   -3.9050    4.4900 nb        1 1X5     -0.658000
     17 NAQ         2.0070    0.3950    3.7790 nh        1 1X5     -0.628000
     18 CAR         1.5580   -4.3000    5.7710 ca        1 1X5      0.381200
     19 CAS         3.4020    0.0510    3.6520 c3        1 1X5      0.168100
     20 CAT        -2.6690    0.7760   -2.7400 cx        1 1X5     -0.205700
     21 CAU        -2.1160    1.0120   -1.3580 c         1 1X5      0.684100
     22 CAV        -3.2850    1.9550   -3.4530 cx        1 1X5     -0.115900
     23 CAW        -4.1640    0.8670   -2.9170 cx        1 1X5     -0.115900
     24 OAX        -2.6680    1.8450   -0.6010 o         1 1X5     -0.654100
     25 HAC        -1.6710    1.5550    1.2870 ha        1 1X5      0.157000
     26 HNAD       -0.6400   -0.3700   -1.7220 hn        1 1X5      0.380500
     27 HAE         2.6350   -0.9500    1.4390 ha        1 1X5      0.162000
     28 HAG        -0.3650    1.5710    3.3490 ha        1 1X5      0.116000
     29 HAL         1.6970   -1.3080    7.4010 ha        1 1X5      0.128000
     30 HAM         1.2720   -2.2860    3.1820 h4        1 1X5      0.058100
     31 HAN         1.8220    0.4290    5.8390 h1        1 1X5      0.053200
     32 HANA        0.2720    0.1260    4.9260 h1        1 1X5      0.053200
     33 HAO         1.7720   -3.7790    7.8750 ha        1 1X5      0.129000
     34 HAR         1.5860   -5.3910    5.9350 h4        1 1X5      0.010100
     35 HAS         3.9370    0.4090    4.5710 h1        1 1X5      0.034700
     36 HASA        3.8280    0.5710    2.7540 h1        1 1X5      0.034700
     37 HASB        3.5810   -1.0550    3.5460 h1        1 1X5      0.034700
     38 HAT        -2.1160    0.0320   -3.3470 hc        1 1X5      0.101700
     39 HAV        -3.1340    2.0480   -4.5420 hc        1 1X5      0.073200
     40 HAVA       -3.2830    2.9330   -2.9380 hc        1 1X5      0.073200
     41 HAW        -4.7820    1.0790   -2.0250 hc        1 1X5      0.073200
     42 HAWA       -4.6540    0.1680   -3.6160 hc        1 1X5      0.073200
@<TRIPOS>BOND
     1    1    2 ar  
     2    1    3 ar  
     3    1    4 1   
     4    2    5 ar  
     5    2    6 1   
     6    3    7 ar  
     7    3   25 1   
     8    4   21 1   
     9    4   26 1   
    10    5    8 ar  
    11    5   27 1   
    12    6    9 1   
    13    6   10 1   
    14    7    8 ar  
    15    7   28 1   
    16    8   17 1   
    17   11   12 ar  
    18   11   13 ar  
    19   11   14 1   
    20   12   15 ar  
    21   12   29 1   
    22   13   16 ar  
    23   13   30 1   
    24   14   17 1   
    25   14   31 1   
    26   14   32 1   
    27   15   18 ar  
    28   15   33 1   
    29   16   18 ar  
    30   17   19 1   
    31   18   34 1   
    32   19   35 1   
    33   19   36 1   
    34   19   37 1   
    35   20   21 1   
    36   20   22 1   
    37   20   23 1   
    38   20   38 1   
    39   21   24 2   
    40   22   23 1   
    41   22   39 1   
    42   22   40 1   
    43   23   41 1   
    44   23   42 1   
@<TRIPOS>SUBSTRUCTURE
     1 1X5         1 TEMP              0 ****  ****    0 ROOT
