@<TRIPOS>MOLECULE
1X5
   42    44     1     0     0
SMALL
bcc


@<TRIPOS>ATOM
      1 CAA        -1.6280   -0.0600    0.2570 ca        1 1X5      0.076600
      2 CAB        -0.9050    0.9640   -0.4170 ca        1 1X5     -0.151600
      3 CAC        -1.0040   -0.7270    1.3320 ca        1 1X5     -0.175000
      4 NAD        -2.9240   -0.3830   -0.1750 n         1 1X5     -0.448100
      5 CAE         0.3930    1.2630   -0.0090 ca        1 1X5     -0.128000
      6 CAF        -1.4520    1.7920   -1.5760 c         1 1X5      0.913200
      7 CAG         0.2850   -0.4030    1.7310 ca        1 1X5     -0.135000
      8 CAH         1.0160    0.6000    1.0660 ca        1 1X5      0.041600
      9 OAI        -0.8680    2.8790   -1.8370 o         1 1X5     -0.827800
     10 OAJ        -2.4500    1.3750   -2.2400 o         1 1X5     -0.827800
     11 CAK         4.0720   -0.3190    0.2410 ca        1 1X5     -0.221600
     12 CAL         5.4270   -0.6660    0.3010 ca        1 1X5     -0.102000
     13 CAM         3.4660   -0.2400   -1.0340 ca        1 1X5      0.410200
     14 CAN         3.3060   -0.0920    1.5110 c3        1 1X5      0.233100
     15 CAO         6.1200   -0.9250   -0.8820 ca        1 1X5     -0.259300
     16 NAP         4.1220   -0.4860   -2.1830 nb        1 1X5     -0.658000
     17 NAQ         2.3110    0.9610    1.5550 nh        1 1X5     -0.628000
     18 CAR         5.4240   -0.8230   -2.0980 ca        1 1X5      0.381200
     19 CAS         2.7980    2.2530    1.1370 c3        1 1X5      0.168100
     20 CAT        -5.1790   -1.3100   -0.2480 cx        1 1X5     -0.205700
     21 CAU        -3.8460   -1.1900    0.4460 c         1 1X5      0.684100
     22 CAV        -6.4020   -1.4730    0.6190 cx        1 1X5     -0.115900
     23 CAW        -5.8880   -2.6390   -0.1690 cx        1 1X5     -0.115900
     24 OAX        -3.6420   -1.8130    1.5140 o         1 1X5     -0.654100
     25 HAC        -1.5400   -1.5180    1.8810 ha        1 1X5      0.157000
     26 HNAD       -3.2040    0.0900   -1.0280 hn        1 1X5      0.380500
     27 HAE         0.9070    2.0720   -0.5590 ha        1 1X5      0.162000
     28 HAG         0.7240   -0.9410    2.5850 ha        1 1X5      0.116000
     29 HAL         5.9390   -0.7350    1.2720 ha        1 1X5      0.128000
     30 HAM         2.3960    0.0400   -1.1340 h4        1 1X5      0.058100
     31 HAN         2.8010   -1.0670    1.7770 h1        1 1X5      0.053200
     32 HANA        4.0480    0.1450    2.3300 h1        1 1X5      0.053200
     33 HAO         7.1810   -1.2010   -0.8670 ha        1 1X5      0.129000
     34 HAR         5.9310   -1.0190   -3.0590 h4        1 1X5      0.010100
     35 HAS         1.9890    3.0150    1.2860 h1        1 1X5      0.034700
     36 HASA        3.6780    2.5210    1.7810 h1        1 1X5      0.034700
     37 HASB        3.1250    2.2800    0.0610 h1        1 1X5      0.034700
     38 HAT        -5.2770   -0.7220   -1.1830 hc        1 1X5      0.101700
     39 HAV        -6.2640   -1.4760    1.7160 hc        1 1X5      0.073200
     40 HAVA       -7.3360   -0.9740    0.3090 hc        1 1X5      0.073200
     41 HAW        -6.4480   -2.9900   -1.0520 hc        1 1X5      0.073200
     42 HAWA       -5.3890   -3.4630    0.3740 hc        1 1X5      0.073200
@<TRIPOS>BOND
     1    1    2 ar  
     2    1    3 ar  
     3    1    4 1   
     4    2    5 ar  
     5    2    6 1   
     6    3    7 ar  
     7    3   25 1   
     8    4   21 1   
     9    4   26 1   
    10    5    8 ar  
    11    5   27 1   
    12    6    9 1   
    13    6   10 1   
    14    7    8 ar  
    15    7   28 1   
    16    8   17 1   
    17   11   12 ar  
    18   11   13 ar  
    19   11   14 1   
    20   12   15 ar  
    21   12   29 1   
    22   13   16 ar  
    23   13   30 1   
    24   14   17 1   
    25   14   31 1   
    26   14   32 1   
    27   15   18 ar  
    28   15   33 1   
    29   16   18 ar  
    30   17   19 1   
    31   18   34 1   
    32   19   35 1   
    33   19   36 1   
    34   19   37 1   
    35   20   21 1   
    36   20   22 1   
    37   20   23 1   
    38   20   38 1   
    39   21   24 2   
    40   22   23 1   
    41   22   39 1   
    42   22   40 1   
    43   23   41 1   
    44   23   42 1   
@<TRIPOS>SUBSTRUCTURE
     1 1X5         1 TEMP              0 ****  ****    0 ROOT
