@<TRIPOS>MOLECULE
1X5
   42    38     1     0     0
SMALL
bcc


@<TRIPOS>ATOM
      1 CAA        -0.3580   -0.8800   -1.8640 c1        1 1X5      0.074000
      2 CAB         0.9070   -0.3190   -2.0060 c1        1 1X5     -0.135000
      3 CAC        -0.9270   -1.0020   -0.5990 c1        1 1X5     -0.161000
      4 NAD        -1.0420   -1.4070   -3.0130 n         1 1X5     -0.305000
      5 CAE         1.6050    0.1200   -0.8820 c1        1 1X5     -0.098000
      6 CAF         1.5550   -0.2420   -3.3820 c2        1 1X5      0.363000
      7 CAG        -0.2300   -0.5640    0.5240 c1        1 1X5     -0.170000
      8 CAH         1.0370   -0.0020    0.3820 c1        1 1X5     -0.035000
      9 OAI         1.6420    0.8680   -3.9780 o         1 1X5     -0.565500
     10 OAJ         2.0440   -1.2810   -3.9080 o         1 1X5     -0.565500
     11 CAK         1.4100    1.3500    3.8230 c1        1 1X5     -0.147000
     12 CAL         0.1950    1.8520    4.2120 c2        1 1X5     -0.076000
     13 CAM         2.3320    0.9420    4.7820 c1        1 1X5     -0.078000
     14 CAN         1.8030    1.3550    2.3340 c2        1 1X5     -0.018000
     15 CAO        -0.1090    1.9520    5.5430 c1        1 1X5     -0.180000
     16 NAP         2.0270    1.0420    6.1110 n1        1 1X5     -0.156000
     17 NAQ         1.4830    0.0700    1.7440 n3        1 1X5     -0.223000
     18 CAR         0.8150    1.5430    6.4990 c1        1 1X5     -0.088000
     19 CAS         1.6600   -1.1330    2.5080 c3        1 1X5     -0.104000
     20 CAT        -3.0260   -1.4120   -4.5400 cx        1 1X5     -0.203000
     21 CAU        -2.2620   -0.7970   -3.4640 c2        1 1X5      0.328000
     22 CAV        -2.3140   -0.8430   -5.7500 cx        1 1X5     -0.201000
     23 CAW        -3.5130   -0.1810   -5.2760 cx        1 1X5     -0.201000
     24 OAX        -2.7140    0.1690   -2.8720 o         1 1X5     -0.404000
     25 HAC        -1.8330   -1.3660   -0.5020 ha        1 1X5      0.150000
     26 HNAD       -0.7270   -2.1630   -3.4260 hn        1 1X5      0.284000
     27 HAE         2.5170    0.4710   -0.9780 ha        1 1X5      0.166000
     28 HAG        -0.6500   -0.6060    1.4080 ha        1 1X5      0.114000
     29 HAL        -0.4550    2.1400    3.5370 ha        1 1X5      0.171000
     30 HAM         3.2160    0.6180    4.5060 ha        1 1X5      0.149000
     31 HAN         2.7680    1.5240    2.2500 h4        1 1X5      0.104000
     32 HANA        1.3050    2.0630    1.8660 h4        1 1X5      0.104000
     33 HAO        -0.9640    2.3470    5.8230 ha        1 1X5      0.142000
     34 HAR         0.5970    1.6140    7.4550 ha        1 1X5      0.145000
     35 HAS         2.1050   -1.8120    1.9520 h1        1 1X5      0.066667
     36 HASA        0.7830   -1.4700    2.7960 h1        1 1X5      0.066667
     37 HASB        2.2130   -0.9420    3.2960 h1        1 1X5      0.066667
     38 HAT        -3.3220   -2.2500   -4.1200 hc        1 1X5      0.132000
     39 HAV        -2.4130   -1.3560   -6.5820 hc        1 1X5      0.121250
     40 HAVA       -1.4720   -0.3770   -5.5650 hc        1 1X5      0.121250
     41 HAW        -4.3150   -0.3070   -5.8300 hc        1 1X5      0.121250
     42 HAWA       -3.3720    0.6730   -4.8140 hc        1 1X5      0.121250
@<TRIPOS>BOND
     1    1    3 1   
     2    1    4 1   
     3    2    5 1   
     4    2    6 1   
     5    3   25 1   
     6    4   21 1   
     7    4   26 1   
     8    5   27 1   
     9    6    9 1   
    10    6   10 1   
    11    7    8 1   
    12    7   28 1   
    13    8   17 1   
    14   11   12 1   
    15   11   13 1   
    16   12   15 1   
    17   12   29 1   
    18   13   30 1   
    19   14   17 1   
    20   14   31 1   
    21   14   32 1   
    22   15   33 1   
    23   16   18 1   
    24   17   19 1   
    25   18   34 1   
    26   19   35 1   
    27   19   36 1   
    28   19   37 1   
    29   20   21 1   
    30   20   22 1   
    31   20   23 1   
    32   20   38 1   
    33   21   24 1   
    34   22   23 1   
    35   22   39 1   
    36   22   40 1   
    37   23   41 1   
    38   23   42 1   
@<TRIPOS>SUBSTRUCTURE
     1 1X5         1 TEMP              0 ****  ****    0 ROOT
