@<TRIPOS>MOLECULE
1X6
   21    20     1     0     0
SMALL
bcc


@<TRIPOS>ATOM
      1 N           1.0400    1.5100   -0.5520 n3        1 1X6     -0.904800
      2 CA          1.6120    0.5270    0.3540 c3        1 1X6     -0.003500
      3 C           3.1470    0.2640    0.1740 c         1 1X6      0.894600
      4 O           3.7930    1.0270   -0.5970 o         1 1X6     -0.839300
      5 CB          0.9140   -0.8320    0.3030 c3        1 1X6      0.147400
      6 OG         -0.4490   -0.7310    0.7620 os        1 1X6     -0.439900
      7 C7         -1.4100   -0.4190   -0.1480 c         1 1X6      0.658300
      8 O8         -1.1550   -0.4630   -1.3600 o         1 1X6     -0.584000
      9 C6         -2.6960   -0.0940    0.4740 ce        1 1X6     -0.299200
     10 C5         -3.7400    0.2900   -0.2960 c2        1 1X6      0.084000
     11 N4         -5.0210    0.5560    0.1600 nh        1 1X6     -0.832600
     12 OXT         3.6490   -0.6890    0.8320 o         1 1X6     -0.839300
     13 HN1         1.7750    2.1500   -0.8090 hn        1 1X6      0.342300
     14 HN2         0.7400    1.0510   -1.3940 hn        1 1X6      0.342300
     15 HA          1.4840    0.9480    1.3940 h1        1 1X6      0.051700
     16 HB1C        0.9450   -1.2820   -0.7210 h1        1 1X6      0.072700
     17 HB2C        1.3890   -1.5210    1.0530 h1        1 1X6      0.072700
     18 H6         -2.7340   -0.1670    1.5690 ha        1 1X6      0.146000
     19 H5         -3.6190    0.3470   -1.3990 h4        1 1X6      0.158000
     20 H41N       -5.1080    0.6980    1.1420 hn        1 1X6      0.385800
     21 H42N       -5.5190    1.2280   -0.3790 hn        1 1X6      0.385800
@<TRIPOS>BOND
     1    1    2 1   
     2    1   13 1   
     3    1   14 1   
     4    2    3 1   
     5    2    5 1   
     6    2   15 1   
     7    3    4 1   
     8    3   12 1   
     9    5    6 1   
    10    5   16 1   
    11    5   17 1   
    12    6    7 1   
    13    7    8 2   
    14    7    9 1   
    15    9   10 2   
    16    9   18 1   
    17   10   11 1   
    18   10   19 1   
    19   11   20 1   
    20   11   21 1   
@<TRIPOS>SUBSTRUCTURE
     1 1X6         1 TEMP              0 ****  ****    0 ROOT
