@<TRIPOS>MOLECULE
1X7
   21    21     1     0     0
SMALL
bcc


@<TRIPOS>ATOM
      1 C1         -1.1390   -0.3380    0.4980 c1        1 1X7      0.321000
      2 C2          1.6580   -0.0590   -0.1910 c2        1 1X7     -0.299000
      3 C3          1.9220   -0.0670    1.1880 c2        1 1X7     -0.237000
      4 N6          4.0130    0.1750   -0.7180 na        1 1X7     -0.218000
      5 C7          2.6880    0.0620   -1.1600 c2        1 1X7      0.279000
      6 C13        -0.6860   -0.3250    1.7380 c2        1 1X7     -0.863000
      7 C4          3.3130    0.0530    1.5840 c2        1 1X7     -0.194000
      8 C5          4.2930    0.1690    0.6260 c2        1 1X7      0.082000
      9 N8          2.4080    0.0680   -2.4960 nh        1 1X7     -0.351000
     10 O10         2.5980   -0.0680    3.8260 o         1 1X7     -0.359000
     11 N11         4.8430    0.1490    3.5500 n         1 1X7     -0.383000
     12 S12         0.8490   -0.1970    2.4010 ss        1 1X7      0.963000
     13 BR1        -1.9650   -0.4790    3.1030 br        1 1X7      0.216000
     14 H1          0.6240   -0.1460   -0.5720 ha        1 1X7      0.184000
     15 H2          4.7660    0.2620   -1.3720 hn        1 1X7      0.279000
     16 H3          3.1110    0.1510   -3.1910 hn        1 1X7      0.269500
     17 H4          1.4590   -0.0140   -2.7840 hn        1 1X7      0.269500
     18 H5          5.3720    0.2640    0.8660 h4        1 1X7      0.188000
     19 H6          5.6410    0.2360    2.9760 hn        1 1X7      0.250500
     20 C9          3.5860    0.0430    3.0470 c2        1 1X7      0.353000
     21 H113        4.9650    0.1360    4.5380 hn        1 1X7      0.250500
@<TRIPOS>BOND
     1    1    6 1   
     2    2    3 1   
     3    2    5 1   
     4    2   14 1   
     5    3    7 1   
     6    3   12 1   
     7    4    5 1   
     8    4    8 1   
     9    4   15 1   
    10    5    9 1   
    11    6   12 1   
    12    6   13 1   
    13    7    8 1   
    14    7   20 1   
    15    8   18 1   
    16    9   16 1   
    17    9   17 1   
    18   10   20 1   
    19   11   19 1   
    20   11   20 1   
    21   11   21 1   
@<TRIPOS>SUBSTRUCTURE
     1 1X7         1 TEMP              0 ****  ****    0 ROOT
