@<TRIPOS>MOLECULE
1X7
   21    21     1     0     0
SMALL
bcc


@<TRIPOS>ATOM
      1 C1         -1.1450   -0.2950    0.5090 c1        1 1X7      0.321000
      2 C2          1.6540   -0.0570   -0.1880 c2        1 1X7     -0.299000
      3 C3          1.9210   -0.0510    1.1900 c2        1 1X7     -0.237000
      4 N6          4.0110    0.1420   -0.7220 na        1 1X7     -0.218000
      5 C7          2.6840    0.0380   -1.1600 c2        1 1X7      0.279000
      6 C13        -0.6890   -0.2710    1.7470 c2        1 1X7     -0.863000
      7 C4          3.3140    0.0590    1.5820 c2        1 1X7     -0.194000
      8 C5          4.2930    0.1510    0.6220 c2        1 1X7      0.082000
      9 N8          2.4020    0.0290   -2.4960 nv        1 1X7     -0.351000
     10 O10         2.6010   -0.0240    3.8270 o         1 1X7     -0.359000
     11 N11         4.8480    0.1630    3.5450 nt        1 1X7     -0.383000
     12 S12         0.8490   -0.1520    2.4060 ss        1 1X7      0.963000
     13 Br1        -1.9680   -0.3910    3.1170 br        1 1X7      0.216000
     14 H1          0.6190   -0.1380   -0.5670 ha        1 1X7      0.185000
     15 H2          4.7630    0.2110   -1.3790 hn        1 1X7      0.279000
     16 H3          3.1040    0.0950   -3.1940 hn        1 1X7      0.269500
     17 H4          1.4510   -0.0460   -2.7810 hn        1 1X7      0.269500
     18 H5          5.3740    0.2370    0.8580 h4        1 1X7      0.188000
     19 H6          4.9720    0.1630    4.5320 hn        1 1X7      0.250500
     20 C9          3.5890    0.0660    3.0450 c2        1 1X7      0.353000
     21 H113        5.6460    0.2350    2.9680 hn        1 1X7      0.250500
@<TRIPOS>BOND
     1    1    6 1   
     2    2    3 1   
     3    2    5 1   
     4    2   14 1   
     5    3    7 1   
     6    3   12 1   
     7    4    5 1   
     8    4    8 1   
     9    4   15 1   
    10    5    9 1   
    11    6   12 1   
    12    6   13 1   
    13    7    8 1   
    14    7   20 1   
    15    8   18 1   
    16    9   16 1   
    17    9   17 1   
    18   10   20 1   
    19   11   19 1   
    20   11   20 1   
    21   11   21 1   
@<TRIPOS>SUBSTRUCTURE
     1 1X7         1 TEMP              0 ****  ****    0 ROOT
