@<TRIPOS>MOLECULE
1X7
   22    21     1     0     0
SMALL
bcc


@<TRIPOS>ATOM
      1 C1          0.7360   -0.1240   -0.4930 c1        1 1X7      0.020100
      2 C2          0.9440   -0.0840   -1.7350 c1        1 1X7      0.023100
      3 C3          2.9480    0.0300    1.6910 c2        1 1X7     -0.058400
      4 N6          6.3940    0.3340    1.4370 n1        1 1X7     -0.239800
      5 C7          1.2320   -0.0370   -3.0160 c2        1 1X7     -0.103100
      6 C13         0.4360   -0.1720    0.7830 c2        1 1X7     -0.033800
      7 C4          4.0520    0.1120    2.5010 ce        1 1X7     -0.105900
      8 C5          5.3440    0.2340    1.9300 cg        1 1X7      0.116500
      9 N8          0.2160   -0.1070   -4.0590 n4        1 1X7     -0.715400
     10 O10         2.9400   -0.0220    4.6410 o         1 1X7     -0.421100
     11 N11         5.2430    0.1770    4.7280 n4        1 1X7     -0.742400
     12 S12         1.3920   -0.1130    2.1640 ss        1 1X7      0.292800
     13 BR1        -1.3630   -0.3370    1.2960 br        1 1X7      0.116300
     14 H1          3.1760    0.0690    0.6010 h4        1 1X7      0.194000
     15 H2          2.2660    0.0600   -3.4130 hx        1 1X7      0.228000
     16 H3          0.4040   -0.9220   -4.6610 hn        1 1X7      0.476467
     17 H4          0.2590    0.7480   -4.6320 hn        1 1X7      0.476467
     18 H5          5.8630   -0.6030    4.4790 hn        1 1X7      0.481800
     19 H6          5.7180    1.0600    4.5080 hn        1 1X7      0.481800
     20 C9          3.9510    0.0780    3.9530 c         1 1X7      0.556300
     21 H83        -0.7300   -0.1960   -3.6650 hn        1 1X7      0.476467
     22 H113        5.0450    0.1420    5.7390 hn        1 1X7      0.481800
@<TRIPOS>BOND
     1    1    2 2   
     2    1    6 2   
     3    2    5 2   
     4    3    7 2   
     5    3   12 1   
     6    3   14 1   
     7    4    8 3   
     8    5    9 1   
     9    5   15 1   
    10    6   12 1   
    11    6   13 1   
    12    7    8 1   
    13    7   20 1   
    14    9   16 1   
    15    9   17 1   
    16    9   21 1   
    17   10   20 2   
    18   11   18 1   
    19   11   19 1   
    20   11   20 1   
    21   11   22 1   
@<TRIPOS>SUBSTRUCTURE
     1 1X7         1 TEMP              0 ****  ****    0 ROOT
