@<TRIPOS>MOLECULE
1X7
   20    21     1     0     0
SMALL
bcc


@<TRIPOS>ATOM
      1 C1          0.9030    1.2450   -0.0860 cc        1 1X7     -0.072200
      2 C2         -0.5260    1.2410   -0.0050 ca        1 1X7     -0.277100
      3 C3         -1.0440   -0.0850    0.0630 ca        1 1X7     -0.002100
      4 N6         -2.7860    2.1480    0.1260 nb        1 1X7     -0.762000
      5 C7         -1.4360    2.3540    0.0160 ca        1 1X7      0.735200
      6 C13         1.4090   -0.0340   -0.0680 cd        1 1X7     -0.148700
      7 C4         -2.4410   -0.2730    0.1290 ca        1 1X7     -0.296900
      8 C5         -3.2360    0.8800    0.1720 ca        1 1X7      0.491200
      9 N8         -0.9540    3.6400   -0.1180 nh        1 1X7     -0.949500
     10 O10        -2.3260   -2.6220    0.5620 o         1 1X7     -0.625100
     11 N11        -4.3060   -1.8410   -0.2120 n         1 1X7     -0.670000
     12 S12         0.1990   -1.2010    0.0510 ss        1 1X7      0.225500
     13 BR1         3.1810   -0.4960   -0.1520 br        1 1X7     -0.004700
     14 H1          1.5020    2.1560   -0.1570 ha        1 1X7      0.157000
     15 H2         -4.3370    0.8160    0.2730 h4        1 1X7      0.021100
     16 H3         -1.5680    4.4060    0.0270 hn        1 1X7      0.434300
     17 H4          0.0120    3.7850    0.0400 hn        1 1X7      0.434300
     18 H5         -4.8330   -1.1210   -0.6320 hn        1 1X7      0.312500
     19 H6         -4.6690   -2.7620   -0.2120 hn        1 1X7      0.312500
     20 C9         -3.0030   -1.6410    0.1780 c         1 1X7      0.684700
@<TRIPOS>BOND
     1    1    2 1   
     2    1    6 2   
     3    1   14 1   
     4    2    3 ar  
     5    2    5 ar  
     6    3    7 ar  
     7    3   12 1   
     8    4    5 ar  
     9    4    8 ar  
    10    5    9 1   
    11    6   12 1   
    12    6   13 1   
    13    7    8 ar  
    14    7   20 1   
    15    8   15 1   
    16    9   16 1   
    17    9   17 1   
    18   10   20 2   
    19   11   18 1   
    20   11   19 1   
    21   11   20 1   
@<TRIPOS>SUBSTRUCTURE
     1 1X7         1 TEMP              0 ****  ****    0 ROOT
