@<TRIPOS>MOLECULE
1X7
   20    14     1     0     0
SMALL
bcc


@<TRIPOS>ATOM
      1 C1         -2.4220    0.0840   -0.9050 c1        1 1X7     -0.070000
      2 C2         -0.8120    0.1270   -0.9050 c1        1 1X7     -0.208000
      3 C3         -0.3640    0.0910    0.4380 c1        1 1X7     -0.209000
      4 N6          1.4560    0.2210   -1.6590 n1        1 1X7     -0.229000
      5 C7          0.1070    0.1920   -1.9380 c1        1 1X7      0.217000
      6 C9          1.3810    0.2210    2.1620 c1        1 1X7      0.356000
      7 C13        -2.8720    0.0230    0.4600 c1        1 1X7     -0.486000
      8 C4          0.9730    0.1200    0.7090 c1        1 1X7     -0.224000
      9 C5          1.8980    0.1860   -0.3400 c1        1 1X7      0.057000
     10 N8          0.0780    0.2550   -3.3550 n3        1 1X7     -0.349000
     11 O10         1.4490    1.3080    2.7000 o         1 1X7     -0.374000
     12 N11         1.6690   -0.9550    2.9010 n2        1 1X7     -0.429000
     13 S12        -1.6280    0.0230    1.3670 s         1 1X7      0.563000
     14 BR1        -4.4390   -0.0840    1.5500 br        1 1X7      0.126000
     15 H1         -2.9940    0.0970   -1.6950 DU        1 1X7      0.159000
     16 H2          2.8540    0.2070   -0.1460 ha        1 1X7      0.189000
     17 H3          0.7550   -0.1180   -3.8430 hn        1 1X7      0.232500
     18 H4         -0.6170    0.6700   -3.7800 hn        1 1X7      0.232500
     19 H5          1.6250   -0.9440    3.8140 hn        1 1X7      0.222500
     20 H6          1.9040   -1.7240    2.4640 hn        1 1X7      0.222500
@<TRIPOS>BOND
     1    1    2 1   
     2    1    7 1   
     3    2    5 1   
     4    3    8 1   
     5    4    9 1   
     6    5   10 1   
     7    6    8 1   
     8    6   11 1   
     9    7   13 1   
    10    9   16 1   
    11   10   17 1   
    12   10   18 1   
    13   12   19 1   
    14   12   20 1   
@<TRIPOS>SUBSTRUCTURE
     1 1X7         1 TEMP              0 ****  ****    0 ROOT
