@<TRIPOS>MOLECULE
1X8
   27    28     1     0     0
SMALL
bcc


@<TRIPOS>ATOM
      1 C1         -0.0300    0.0030   -0.0720 cc        1 1X8     -0.005200
      2 C2          1.3970    0.0020   -0.0820 ca        1 1X8     -0.225100
      3 C3          1.9300    0.0010    1.2560 ca        1 1X8     -0.033100
      4 C4          3.3440    0.0010    1.4270 ca        1 1X8     -0.231900
      5 C5          4.1410    0.0000    0.2750 ca        1 1X8      0.520200
      6 N6          3.6510    0.0010   -0.9900 nb        1 1X8     -0.614000
      7 C7          2.3190    0.0020   -1.1690 ca        1 1X8      0.614200
      8 N8          1.8270    0.0020   -2.5640 n4        1 1X8     -0.839300
      9 C9          3.8890    0.0000    2.7940 c         1 1X8      0.561700
     10 O10         3.2240    0.0000    3.8230 o         1 1X8     -0.385100
     11 N11         5.3750   -0.0010    2.9980 n4        1 1X8     -0.744400
     12 S12         0.6990    0.0020    2.3750 ss        1 1X8      0.370500
     13 C13        -0.5310    0.0030    1.2270 cd        1 1X8     -0.248600
     14 C14        -1.9810    0.0030    1.4070 c         1 1X8      0.581300
     15 O15        -2.8100    0.0040    0.5090 o         1 1X8     -0.344100
     16 N16        -2.5500    0.0030    2.8010 n4        1 1X8     -0.750400
     17 H1         -0.6660    0.0030   -0.9700 ha        1 1X8      0.210000
     18 H2          5.2530   -0.0000    0.2900 h4        1 1X8      0.079100
     19 H3          1.2580   -0.8420   -2.7270 hn        1 1X8      0.503467
     20 H4          1.2570    0.8460   -2.7270 hn        1 1X8      0.503467
     21 H5          5.5790   -0.0010    4.0170 hn        1 1X8      0.497133
     22 H6          5.8030   -0.8400    2.5840 hn        1 1X8      0.497133
     23 H7         -3.5870    0.0040    2.7380 hn        1 1X8      0.492800
     24 H8         -2.2620    0.8420    3.3190 hn        1 1X8      0.492800
     25 H83         2.6170    0.0030   -3.2400 hn        1 1X8      0.503467
     26 H113        5.8040    0.8380    2.5840 hn        1 1X8      0.497133
     27 H163       -2.2620   -0.8360    3.3190 hn        1 1X8      0.492800
@<TRIPOS>BOND
     1    1    2 1   
     2    1   13 2   
     3    1   17 1   
     4    2    3 ar  
     5    2    7 ar  
     6    3    4 ar  
     7    3   12 1   
     8    4    5 ar  
     9    4    9 1   
    10    5    6 ar  
    11    5   18 1   
    12    6    7 ar  
    13    7    8 1   
    14    8   19 1   
    15    8   20 1   
    16    8   25 1   
    17    9   10 2   
    18    9   11 1   
    19   11   21 1   
    20   11   22 1   
    21   11   26 1   
    22   12   13 1   
    23   13   14 1   
    24   14   15 2   
    25   14   16 1   
    26   16   23 1   
    27   16   24 1   
    28   16   27 1   
@<TRIPOS>SUBSTRUCTURE
     1 1X8         1 TEMP              0 ****  ****    0 ROOT
