@<TRIPOS>MOLECULE
1X8
   24    18     1     0     0
SMALL
bcc


@<TRIPOS>ATOM
      1 C1         -1.6220    0.0490   -1.1850 c1        1 1X8     -0.045000
      2 C2         -0.0120    0.0590   -1.1700 c1        1 1X8     -0.219000
      3 C3          0.4210    0.1910    0.1710 c1        1 1X8     -0.211000
      4 C4          1.7550    0.2180    0.4540 c1        1 1X8     -0.226000
      5 C5          2.6930    0.1150   -0.5810 c1        1 1X8      0.040000
      6 N6          2.2640   -0.0150   -1.8990 n1        1 1X8     -0.245000
      7 C7          0.9180   -0.0420   -2.1890 c1        1 1X8      0.236000
      8 N8          0.8540    0.0820   -3.6010 n3        1 1X8     -0.359000
      9 C9          2.1410    0.2410    1.9170 c1        1 1X8      0.362000
     10 O10         1.9520    1.2420    2.5790 o         1 1X8     -0.399000
     11 N11         2.7100   -0.9110    2.5190 n2        1 1X8     -0.429000
     12 S12        -0.8530    0.2730    1.0850 s         1 1X8      0.667000
     13 C13        -2.0870    0.1790    0.1710 c1        1 1X8     -0.462000
     14 C14        -3.5490    0.0490    0.5400 c1        1 1X8      0.381000
     15 O15        -4.3770   -0.1580   -0.3240 o         1 1X8     -0.375000
     16 N16        -3.9530    0.1860    1.8930 n3        1 1X8     -0.436000
     17 H1         -2.1860   -0.0300   -1.9780 DU        1 1X8      0.169000
     18 H2          3.6470    0.1350   -0.3780 ha        1 1X8      0.154000
     19 H3          1.6230    0.0910   -4.0940 hn        1 1X8      0.242500
     20 H4          0.0440    0.1700   -4.0160 hn        1 1X8      0.242500
     21 H5          2.9940   -0.8800    3.3870 hn        1 1X8      0.227000
     22 H6          2.7900   -1.6850    2.0390 hn        1 1X8      0.227000
     23 H7         -3.3270    0.3200    2.5450 hn        1 1X8      0.228500
     24 H8         -4.8380    0.1220    2.1140 hn        1 1X8      0.228500
@<TRIPOS>BOND
     1    1    2 1   
     2    1   13 1   
     3    2    7 1   
     4    3    4 1   
     5    4    9 1   
     6    5    6 1   
     7    5   18 1   
     8    7    8 1   
     9    8   19 1   
    10    8   20 1   
    11    9   10 1   
    12   11   21 1   
    13   11   22 1   
    14   12   13 1   
    15   14   15 1   
    16   14   16 1   
    17   16   23 1   
    18   16   24 1   
@<TRIPOS>SUBSTRUCTURE
     1 1X8         1 TEMP              0 ****  ****    0 ROOT
