@<TRIPOS>MOLECULE
1X8
   26    27     1     0     0
SMALL
bcc


@<TRIPOS>ATOM
      1 C1         -0.0260   -0.0070   -0.0960 cc        1 1X8      0.069800
      2 C2          1.3890    0.0080   -0.0770 ca        1 1X8     -0.326100
      3 C3          1.9060    0.0040    1.2560 ca        1 1X8      0.075900
      4 C4          3.3070    0.0170    1.4640 ca        1 1X8     -0.408900
      5 C5          4.1190    0.0340    0.2880 ca        1 1X8      0.569200
      6 N6          3.6850    0.0380   -0.9560 nb        1 1X8     -0.716000
      7 C7          2.3070    0.0250   -1.2010 ca        1 1X8      0.817200
      8 N8          1.8700    0.0300   -2.4720 nh        1 1X8     -0.857500
      9 C9          3.8220    0.0130    2.8030 c         1 1X8      0.582700
     10 O10         3.1970   -0.0010    3.8640 o         1 1X8     -0.468100
     11 N11         5.3250    0.0270    2.9960 n4        1 1X8     -0.749400
     12 S12         0.6630   -0.0170    2.3660 ss        1 1X8      0.234500
     13 C13        -0.5590   -0.0220    1.1970 cd        1 1X8     -0.329600
     14 C14        -1.9840   -0.0380    1.3800 c         1 1X8      0.606300
     15 O15        -2.8650   -0.0420    0.5310 o         1 1X8     -0.396100
     16 N16        -2.5020   -0.0530    2.8080 n4        1 1X8     -0.759400
     17 H1         -0.6450   -0.0070   -1.0040 ha        1 1X8      0.197000
     18 H2          5.2280    0.0450    0.3540 h4        1 1X8      0.035100
     19 H3          2.5110    0.0420   -3.2420 hn        1 1X8      0.484800
     20 H4          0.8950    0.0210   -2.6720 hn        1 1X8      0.484800
     21 H5          5.7470   -0.8000    2.5640 hn        1 1X8      0.475467
     22 H6          5.5350    0.0220    4.0060 hn        1 1X8      0.475467
     23 H7         -2.1730   -0.8890    3.3000 hn        1 1X8      0.476467
     24 H8         -3.5340   -0.0640    2.7910 hn        1 1X8      0.476467
     25 H113        5.7300    0.8700    2.5770 hn        1 1X8      0.475467
     26 H163       -2.1900    0.7820    3.3120 hn        1 1X8      0.476467
@<TRIPOS>BOND
     1    1    2 1   
     2    1   13 2   
     3    1   17 1   
     4    2    3 ar  
     5    2    7 ar  
     6    3    4 ar  
     7    3   12 1   
     8    4    5 ar  
     9    4    9 1   
    10    5    6 ar  
    11    5   18 1   
    12    6    7 ar  
    13    7    8 1   
    14    8   19 1   
    15    8   20 1   
    16    9   10 2   
    17    9   11 1   
    18   11   21 1   
    19   11   22 1   
    20   11   25 1   
    21   12   13 1   
    22   13   14 1   
    23   14   15 2   
    24   14   16 1   
    25   16   23 1   
    26   16   24 1   
    27   16   26 1   
@<TRIPOS>SUBSTRUCTURE
     1 1X8         1 TEMP              0 ****  ****    0 ROOT
