@<TRIPOS>MOLECULE
1X8
   24    25     1     0     0
SMALL
bcc


@<TRIPOS>ATOM
      1 C1          1.4710    1.1870   -0.0000 cc        1 1X8     -0.033200
      2 C2          0.0430    1.2440    0.0000 ca        1 1X8     -0.297100
      3 C3         -0.5310   -0.0590   -0.0000 ca        1 1X8      0.015900
      4 C4         -1.9360   -0.1980   -0.0000 ca        1 1X8     -0.311900
      5 C5         -2.6860    0.9860    0.0000 ca        1 1X8      0.506200
      6 N6         -2.1890    2.2350    0.0000 nb        1 1X8     -0.772000
      7 C7         -0.8240    2.3930    0.0000 ca        1 1X8      0.759200
      8 N8         -0.2900    3.6540   -0.0000 nh        1 1X8     -0.963500
      9 C9         -2.5170   -1.5570   -0.0000 c         1 1X8      0.689700
     10 O10        -1.7820   -2.5740    0.0010 o         1 1X8     -0.640100
     11 N11        -3.8780   -1.7290   -0.0020 n         1 1X8     -0.669000
     12 S12         0.6570   -1.2340   -0.0000 ss        1 1X8      0.202500
     13 C13         1.9220   -0.1160   -0.0000 cd        1 1X8     -0.241600
     14 C14         3.3570   -0.4460   -0.0000 c         1 1X8      0.706300
     15 O15         4.2390    0.4390   -0.0000 o         1 1X8     -0.614100
     16 N16         3.7180   -1.7720   -0.0000 n         1 1X8     -0.676000
     17 H1          2.1330    2.0590   -0.0000 ha        1 1X8      0.169000
     18 H2         -3.7940    0.9730    0.0010 h4        1 1X8      0.016100
     19 H3         -0.8730    4.4540    0.0010 hn        1 1X8      0.447800
     20 H4          0.6920    3.7630    0.0010 hn        1 1X8      0.447800
     21 H5         -4.5030   -0.9670   -0.0040 hn        1 1X8      0.313500
     22 H6         -4.2440   -2.6480   -0.0020 hn        1 1X8      0.313500
     23 H7          3.0450   -2.4940   -0.0000 hn        1 1X8      0.315000
     24 H8          4.6780   -2.0110   -0.0000 hn        1 1X8      0.315000
@<TRIPOS>BOND
     1    1    2 1   
     2    1   13 2   
     3    1   17 1   
     4    2    3 ar  
     5    2    7 ar  
     6    3    4 ar  
     7    3   12 1   
     8    4    5 ar  
     9    4    9 1   
    10    5    6 ar  
    11    5   18 1   
    12    6    7 ar  
    13    7    8 1   
    14    8   19 1   
    15    8   20 1   
    16    9   10 2   
    17    9   11 1   
    18   11   21 1   
    19   11   22 1   
    20   12   13 1   
    21   13   14 1   
    22   14   15 2   
    23   14   16 1   
    24   16   23 1   
    25   16   24 1   
@<TRIPOS>SUBSTRUCTURE
     1 1X8         1 TEMP              0 ****  ****    0 ROOT
