@<TRIPOS>MOLECULE
1X9
   34    34     1     0     0
SMALL
bcc


@<TRIPOS>ATOM
      1 O1         -1.3540   -0.8960    0.2310 o         1 1X9     -0.380100
      2 C1         -0.5650    0.0150    0.4210 c         1 1X9      0.551100
      3 N          -0.9180    1.0120    1.4840 nz        1 1X9     -0.766400
      4 C2          0.7320    0.2110   -0.2950 cx        1 1X9     -0.006900
      5 O2          1.5890    1.2400    0.1990 os        1 1X9     -0.349600
      6 C3          1.0360    1.4270   -1.1180 cx        1 1X9     -0.003900
      7 C1'         0.0680    2.5680   -1.2700 c         1 1X9      0.597100
      8 O1'        -0.4310    3.0930   -0.2670 o         1 1X9     -0.553100
      9 C2'        -0.2110    2.9910   -2.6750 c3        1 1X9     -0.167400
     10 C3'        -1.6570    3.4210   -2.8640 c3        1 1X9     -0.051200
     11 C4'        -2.5870    2.2660   -2.8190 c2        1 1X9     -0.188200
     12 C5'        -3.4900    2.0060   -1.8700 c2        1 1X9     -0.164200
     13 C6'        -3.7460    2.8200   -0.6560 c3        1 1X9     -0.049000
     14 C7'        -4.0400    1.9830    0.5350 c2        1 1X9     -0.160200
     15 C8'        -3.7530    2.3680    1.7860 c2        1 1X9     -0.234200
     16 C9'        -4.1170    1.5890    2.9860 c3        1 1X9     -0.080900
     17 H1         -0.2720    1.8190    1.4390 hn        1 1X9      0.486800
     18 H2         -1.8910    1.3600    1.3370 hn        1 1X9      0.486800
     19 H3          1.2240   -0.7640   -0.5240 h1        1 1X9      0.176700
     20 H4          1.7790    1.3370   -1.9430 h1        1 1X9      0.155700
     21 H5          0.4670    3.8600   -2.9080 hc        1 1X9      0.094700
     22 H6          0.0400    2.1610   -3.3880 hc        1 1X9      0.094700
     23 H7         -1.7480    3.9140   -3.8720 hc        1 1X9      0.078200
     24 H8         -1.9170    4.1950   -2.0940 hc        1 1X9      0.078200
     25 H9         -2.5140    1.5940   -3.6940 ha        1 1X9      0.135000
     26 H10        -4.1550    1.1290   -1.9840 ha        1 1X9      0.136000
     27 H11        -4.6470    3.4720   -0.8560 hc        1 1X9      0.080700
     28 H12        -2.8860    3.5130   -0.4390 hc        1 1X9      0.080700
     29 H13        -4.5620    1.0300    0.3370 ha        1 1X9      0.141000
     30 H14        -3.2880    3.3510    1.9840 ha        1 1X9      0.136000
     31 H15        -4.8970    2.1430    3.5710 hc        1 1X9      0.052700
     32 H16        -4.5300    0.5830    2.7290 hc        1 1X9      0.052700
     33 H17        -3.2280    1.4530    3.6520 hc        1 1X9      0.052700
     34 HN3        -0.8630    0.5770    2.4100 hn        1 1X9      0.486800
@<TRIPOS>BOND
     1    1    2 2   
     2    2    3 1   
     3    2    4 1   
     4    3   17 1   
     5    3   18 1   
     6    3   34 1   
     7    4    5 1   
     8    4    6 1   
     9    4   19 1   
    10    5    6 1   
    11    6    7 1   
    12    6   20 1   
    13    7    8 2   
    14    7    9 1   
    15    9   10 1   
    16    9   21 1   
    17    9   22 1   
    18   10   11 1   
    19   10   23 1   
    20   10   24 1   
    21   11   12 2   
    22   11   25 1   
    23   12   13 1   
    24   12   26 1   
    25   13   14 1   
    26   13   27 1   
    27   13   28 1   
    28   14   15 2   
    29   14   29 1   
    30   15   16 1   
    31   15   30 1   
    32   16   31 1   
    33   16   32 1   
    34   16   33 1   
@<TRIPOS>SUBSTRUCTURE
     1 1X9         1 TEMP              0 ****  ****    0 ROOT
