@<TRIPOS>MOLECULE
1X9
   34    34     1     0     0
SMALL
bcc


@<TRIPOS>ATOM
      1 O1         -1.3860   -0.9360   -0.0070 o         1 1X9     -0.380100
      2 C1         -0.5800   -0.0540    0.2390 c         1 1X9      0.551100
      3 N          -0.8980    0.8570    1.3870 n4        1 1X9     -0.766400
      4 C2          0.7060    0.1820   -0.4840 cx        1 1X9     -0.006900
      5 O2          1.5880    1.1560    0.0740 os        1 1X9     -0.349600
      6 C3          1.0120    1.4570   -1.2120 cx        1 1X9     -0.003900
      7 C1'         0.0590    2.6190   -1.2510 c         1 1X9      0.597100
      8 O1'        -0.4120    3.0680   -0.1990 o         1 1X9     -0.553100
      9 C2'        -0.2410    3.1590   -2.6110 c3        1 1X9     -0.167400
     10 C3'        -1.6840    3.6220   -2.7360 c3        1 1X9     -0.051200
     11 C4'        -2.6290    2.4800   -2.7650 c2        1 1X9     -0.188200
     12 C5'        -3.5180    2.1550   -1.8220 c2        1 1X9     -0.164200
     13 C6'        -3.7380    2.8700   -0.5410 c3        1 1X9     -0.049000
     14 C7'        -4.0220    1.9440    0.5840 c2        1 1X9     -0.160200
     15 C8'        -3.7050    2.2220    1.8560 c2        1 1X9     -0.234200
     16 C9'        -4.0580    1.3530    2.9960 c3        1 1X9     -0.080900
     17 H1         -1.8670    1.2300    1.2880 hn        1 1X9      0.486800
     18 H2         -0.2400    1.6570    1.3940 hn        1 1X9      0.486800
     19 H3          1.1790   -0.7770   -0.8010 h1        1 1X9      0.176700
     20 H4          1.7380    1.4250   -2.0560 h1        1 1X9      0.155700
     21 H5         -0.0160    2.3870   -3.3940 hc        1 1X9      0.094700
     22 H6          0.4460    4.0350   -2.7860 hc        1 1X9      0.094700
     23 H7         -1.7870    4.1970   -3.6980 hc        1 1X9      0.078200
     24 H8         -1.9170    4.3340   -1.9000 hc        1 1X9      0.078200
     25 H9         -2.5830    1.8800   -3.6930 ha        1 1X9      0.135000
     26 H10        -4.1970    1.2990   -1.9930 ha        1 1X9      0.136000
     27 H11        -2.8640    3.5320   -0.2860 hc        1 1X9      0.080700
     28 H12        -4.6330    3.5490   -0.6690 hc        1 1X9      0.080700
     29 H13        -4.5620    1.0170    0.3200 ha        1 1X9      0.141000
     30 H14        -3.2230    3.1790    2.1230 ha        1 1X9      0.136000
     31 H15        -4.8190    1.8670    3.6390 hc        1 1X9      0.053033
     32 H16        -4.4910    0.3770    2.6660 hc        1 1X9      0.053033
     33 H17        -3.1590    1.1510    3.6310 hc        1 1X9      0.053033
     34 HN3        -0.8310    0.3480    2.2730 hn        1 1X9      0.486800
@<TRIPOS>BOND
     1    1    2 2   
     2    2    3 1   
     3    2    4 1   
     4    3   17 1   
     5    3   18 1   
     6    3   34 1   
     7    4    5 1   
     8    4    6 1   
     9    4   19 1   
    10    5    6 1   
    11    6    7 1   
    12    6   20 1   
    13    7    8 2   
    14    7    9 1   
    15    9   10 1   
    16    9   21 1   
    17    9   22 1   
    18   10   11 1   
    19   10   23 1   
    20   10   24 1   
    21   11   12 2   
    22   11   25 1   
    23   12   13 1   
    24   12   26 1   
    25   13   14 1   
    26   13   27 1   
    27   13   28 1   
    28   14   15 2   
    29   14   29 1   
    30   15   16 1   
    31   15   30 1   
    32   16   31 1   
    33   16   32 1   
    34   16   33 1   
@<TRIPOS>SUBSTRUCTURE
     1 1X9         1 TEMP              0 ****  ****    0 ROOT
