@<TRIPOS>MOLECULE
1X9
   34    34     1     0     0
SMALL
bcc


@<TRIPOS>ATOM
      1 O1         -1.3810   -0.9130    0.1670 o         1 1X9     -0.380100
      2 C1         -0.5940   -0.0100    0.4000 c         1 1X9      0.551100
      3 N          -0.9670    0.9550    1.4860 n4        1 1X9     -0.766400
      4 C2          0.7170    0.2040   -0.2830 cx        1 1X9     -0.006900
      5 O2          1.5670    1.2150    0.2590 os        1 1X9     -0.349600
      6 C3          1.0400    1.4440   -1.0620 cx        1 1X9     -0.003900
      7 C1'         0.0770    2.5910   -1.2000 c         1 1X9      0.597100
      8 O1'        -0.4400    3.0870   -0.1910 o         1 1X9     -0.553100
      9 C2'        -0.1730    3.0580   -2.5960 c3        1 1X9     -0.167400
     10 C3'        -1.6130    3.4970   -2.8010 c3        1 1X9     -0.051200
     11 C4'        -2.5460    2.3440   -2.8100 c2        1 1X9     -0.188200
     12 C5'        -3.4690    2.0570   -1.8870 c2        1 1X9     -0.164200
     13 C6'        -3.7470    2.8350   -0.6550 c3        1 1X9     -0.049000
     14 C7'        -4.0670    1.9630    0.5040 c2        1 1X9     -0.160200
     15 C8'        -3.8040    2.3090    1.7720 c2        1 1X9     -0.234200
     16 C9'        -4.1930    1.4950    2.9410 c3        1 1X9     -0.080900
     17 H1         -0.3180    1.7610    1.4780 hn        1 1X9      0.486800
     18 H2         -1.9350    1.3100    1.3290 hn        1 1X9      0.486800
     19 H3          1.2130   -0.7650   -0.5320 h1        1 1X9      0.176700
     20 H4          1.7990    1.3770   -1.8750 h1        1 1X9      0.155700
     21 H5          0.5130    3.9310   -2.7890 hc        1 1X9      0.094700
     22 H6          0.0910    2.2490   -3.3290 hc        1 1X9      0.094700
     23 H7         -1.6830    4.0210   -3.7950 hc        1 1X9      0.078200
     24 H8         -1.8870    4.2480   -2.0130 hc        1 1X9      0.078200
     25 H9         -2.4570    1.6980   -3.7030 ha        1 1X9      0.135000
     26 H10        -4.1330    1.1870   -2.0410 ha        1 1X9      0.136000
     27 H11        -2.8900    3.5180   -0.4000 hc        1 1X9      0.080700
     28 H12        -4.6430    3.4950   -0.8520 hc        1 1X9      0.080700
     29 H13        -4.5880    1.0180    0.2680 ha        1 1X9      0.141000
     30 H14        -3.3410    3.2840    2.0090 ha        1 1X9      0.136000
     31 H15        -4.6040    0.4990    2.6440 hc        1 1X9      0.052700
     32 H16        -3.3180    1.3360    3.6200 hc        1 1X9      0.052700
     33 H17        -4.9840    2.0340    3.5260 hc        1 1X9      0.052700
     34 HN3        -0.9320    0.4920    2.3990 hn        1 1X9      0.486800
@<TRIPOS>BOND
     1    1    2 2   
     2    2    3 1   
     3    2    4 1   
     4    3   17 1   
     5    3   18 1   
     6    3   34 1   
     7    4    5 1   
     8    4    6 1   
     9    4   19 1   
    10    5    6 1   
    11    6    7 1   
    12    6   20 1   
    13    7    8 2   
    14    7    9 1   
    15    9   10 1   
    16    9   21 1   
    17    9   22 1   
    18   10   11 1   
    19   10   23 1   
    20   10   24 1   
    21   11   12 2   
    22   11   25 1   
    23   12   13 1   
    24   12   26 1   
    25   13   14 1   
    26   13   27 1   
    27   13   28 1   
    28   14   15 2   
    29   14   29 1   
    30   15   16 1   
    31   15   30 1   
    32   16   31 1   
    33   16   32 1   
    34   16   33 1   
@<TRIPOS>SUBSTRUCTURE
     1 1X9         1 TEMP              0 ****  ****    0 ROOT
