@<TRIPOS>MOLECULE
1XA
   23    19     1     0     0
SMALL
bcc


@<TRIPOS>ATOM
      1 CAI         1.0300    0.3130    1.1790 c1        1 1XA     -0.127000
      2 CAJ         2.4160    0.2930    1.2130 c1        1 1XA     -0.131000
      3 CAK         3.1300   -0.1410    0.1080 c1        1 1XA     -0.131000
      4 CAL         2.4590   -0.5550   -1.0320 c1        1 1XA     -0.131000
      5 CAM         1.0740   -0.5350   -1.0670 c1        1 1XA     -0.131000
      6 CAH         0.3590   -0.1010    0.0390 c1        1 1XA      0.012000
      7 CAD        -1.1540   -0.1120    0.0140 c2        1 1XA     -0.223000
      8 CAE        -1.9660    0.9440   -0.3410 c1        1 1XA     -0.050000
      9 CAG        -1.5020    2.3100   -0.7940 c2        1 1XA     -0.161000
     10 NAA        -3.2490    0.5450   -0.2100 n2        1 1XA     -0.052000
     11 OAB        -3.2470   -0.7730    0.2310 os        1 1XA     -0.083000
     12 CAC        -1.9590   -1.1680    0.3650 c1        1 1XA      0.110000
     13 NAF        -1.5190   -2.4560    0.7640 n2        1 1XA     -0.307000
     14 H1          0.5270    0.6190    1.9570 ha        1 1XA      0.135000
     15 H2          2.8880    0.5850    2.0160 ha        1 1XA      0.133250
     16 H3          4.1060   -0.1550    0.1320 ha        1 1XA      0.133250
     17 H4          2.9630   -0.8610   -1.8110 ha        1 1XA      0.133250
     18 H5          0.6020   -0.8270   -1.8690 ha        1 1XA      0.133250
     19 H6         -1.1460    2.2490   -1.7050 ha        1 1XA      0.099333
     20 H7         -0.8000    2.6330   -0.1900 ha        1 1XA      0.099333
     21 H8         -2.2580    2.9340   -0.7790 ha        1 1XA      0.099333
     22 H9         -2.1270   -3.0850    1.0300 hn        1 1XA      0.220500
     23 H10        -0.6270   -2.6590    0.7490 hn        1 1XA      0.220500
@<TRIPOS>BOND
     1    1    6 1   
     2    1   14 1   
     3    2    3 1   
     4    2   15 1   
     5    3   16 1   
     6    4    5 1   
     7    4   17 1   
     8    5   18 1   
     9    6    7 1   
    10    7    8 1   
    11    7   12 1   
    12    8   10 1   
    13    9   19 1   
    14    9   20 1   
    15    9   21 1   
    16   10   11 1   
    17   11   12 1   
    18   13   22 1   
    19   13   23 1   
@<TRIPOS>SUBSTRUCTURE
     1 1XA         1 TEMP              0 ****  ****    0 ROOT
