@<TRIPOS>MOLECULE
1XA
   24    25     1     0     0
SMALL
bcc


@<TRIPOS>ATOM
      1 CAI         0.0350   -0.3910    0.0870 ca        1 1XA     -0.107000
      2 CAJ         1.4290   -0.4040    0.1200 ca        1 1XA     -0.114500
      3 CAK         2.1070   -0.0650    1.2910 ca        1 1XA     -0.079000
      4 CAL         1.3880    0.2890    2.4360 ca        1 1XA     -0.114500
      5 CAM        -0.0020    0.3140    2.4080 ca        1 1XA     -0.107000
      6 CAH        -0.6920   -0.0220    1.2290 ca        1 1XA     -0.101000
      7 CAD        -2.1290    0.0110    1.1960 cc        1 1XA     -0.085600
      8 CAE        -3.0670   -0.9470    0.5750 cc        1 1XA      0.355600
      9 CAG        -2.6780   -2.1700   -0.1520 c3        1 1XA     -0.153400
     10 NAA        -4.3290   -0.5170    0.7890 nd        1 1XA     -0.271300
     11 OAB        -4.3270    0.6040    1.4690 os        1 1XA     -0.088100
     12 CAC        -2.9750    0.9690    1.7420 cd        1 1XA      0.182600
     13 NAF        -2.7650    2.1860    2.4590 n4        1 1XA     -0.769300
     14 H1         -0.4970   -0.6640   -0.8380 ha        1 1XA      0.134000
     15 H2          1.9940   -0.6910   -0.7820 ha        1 1XA      0.161000
     16 H3          3.2090   -0.0820    1.3160 ha        1 1XA      0.164000
     17 H4          1.9250    0.5370    3.3660 ha        1 1XA      0.161000
     18 H5         -0.5580    0.5420    3.3300 ha        1 1XA      0.134000
     19 H6         -1.6770   -2.5200    0.2050 hc        1 1XA      0.085367
     20 H7         -3.4260   -2.9900    0.0020 hc        1 1XA      0.085367
     21 H8         -2.6160   -1.9540   -1.2500 hc        1 1XA      0.085367
     22 H9         -1.7490    2.3350    2.5540 hn        1 1XA      0.480800
     23 H10        -3.1910    2.9690    1.9420 hn        1 1XA      0.480800
     24 HAF3       -3.2010    2.1210    3.3900 hn        1 1XA      0.480800
@<TRIPOS>BOND
     1    1    2 ar  
     2    1    6 ar  
     3    1   14 1   
     4    2    3 ar  
     5    2   15 1   
     6    3    4 ar  
     7    3   16 1   
     8    4    5 ar  
     9    4   17 1   
    10    5    6 ar  
    11    5   18 1   
    12    6    7 1   
    13    7    8 1   
    14    7   12 2   
    15    8    9 1   
    16    8   10 2   
    17    9   19 1   
    18    9   20 1   
    19    9   21 1   
    20   10   11 1   
    21   11   12 1   
    22   12   13 1   
    23   13   22 1   
    24   13   23 1   
    25   13   24 1   
@<TRIPOS>SUBSTRUCTURE
     1 1XA         1 TEMP              0 ****  ****    0 ROOT
