@<TRIPOS>MOLECULE
1XA
   23    24     1     0     0
SMALL
bcc


@<TRIPOS>ATOM
      1 CAI         0.0070   -0.3510    0.0690 ca        1 1XA     -0.132500
      2 CAJ         1.3990   -0.3710    0.0570 ca        1 1XA     -0.126000
      3 CAK         2.1160   -0.0730    1.2160 ca        1 1XA     -0.134000
      4 CAL         1.4330    0.2420    2.3900 ca        1 1XA     -0.126000
      5 CAM         0.0400    0.2610    2.4090 ca        1 1XA     -0.132500
      6 CAH        -0.6900   -0.0320    1.2460 ca        1 1XA      0.012000
      7 CAD        -2.1270    0.0040    1.2570 cc        1 1XA     -0.353600
      8 CAE        -3.0650   -0.9120    0.6030 cc        1 1XA      0.372600
      9 CAG        -2.6850   -2.0850   -0.2070 c3        1 1XA     -0.137400
     10 NAA        -4.3270   -0.5190    0.8670 nd        1 1XA     -0.387300
     11 OAB        -4.3080    0.5690    1.6200 os        1 1XA     -0.140100
     12 CAC        -2.9590    0.9300    1.9020 cd        1 1XA      0.497600
     13 NAF        -2.7410    1.9870    2.7410 nv        1 1XA     -0.909500
     14 H1         -0.5560   -0.5810   -0.8490 ha        1 1XA      0.136000
     15 H2          1.9340   -0.6210   -0.8710 ha        1 1XA      0.132000
     16 H3          3.2160   -0.0880    1.2040 ha        1 1XA      0.132000
     17 H4          1.9940    0.4700    3.3080 ha        1 1XA      0.132000
     18 H5         -0.4900    0.4850    3.3470 ha        1 1XA      0.136000
     19 H6         -1.6880   -2.4660    0.1300 hc        1 1XA      0.060033
     20 H7         -2.6120   -1.7920   -1.2850 hc        1 1XA      0.060033
     21 H8         -3.4370   -2.9080   -0.1150 hc        1 1XA      0.060033
     22 H9         -1.8490    2.4200    2.6340 hn        1 1XA      0.425300
     23 H10        -3.5110    2.6040    2.8720 hn        1 1XA      0.425300
@<TRIPOS>BOND
     1    1    2 ar  
     2    1    6 ar  
     3    1   14 1   
     4    2    3 ar  
     5    2   15 1   
     6    3    4 ar  
     7    3   16 1   
     8    4    5 ar  
     9    4   17 1   
    10    5    6 ar  
    11    5   18 1   
    12    6    7 1   
    13    7    8 1   
    14    7   12 2   
    15    8    9 1   
    16    8   10 2   
    17    9   19 1   
    18    9   20 1   
    19    9   21 1   
    20   10   11 1   
    21   11   12 1   
    22   12   13 1   
    23   13   22 1   
    24   13   23 1   
@<TRIPOS>SUBSTRUCTURE
     1 1XA         1 TEMP              0 ****  ****    0 ROOT
