@<TRIPOS>MOLECULE
1XA
   23    24     1     0     0
SMALL
bcc


@<TRIPOS>ATOM
      1 CAI        -1.4500   -0.9660    0.7360 ca        1 1XA     -0.132500
      2 CAJ        -2.8410   -0.9720    0.7840 ca        1 1XA     -0.126000
      3 CAK        -3.5730   -0.0190    0.0760 ca        1 1XA     -0.134000
      4 CAL        -2.9060    0.9390   -0.6870 ca        1 1XA     -0.126000
      5 CAM        -1.5140    0.9480   -0.7420 ca        1 1XA     -0.132500
      6 CAH        -0.7680   -0.0040   -0.0270 ca        1 1XA      0.012000
      7 CAD         0.6690    0.0130   -0.0670 cc        1 1XA     -0.353600
      8 CAE         1.5900   -1.1230   -0.1430 cc        1 1XA      0.372600
      9 CAG         1.1890   -2.5420   -0.2040 c3        1 1XA     -0.137400
     10 NAA         2.8590   -0.6670   -0.1590 nd        1 1XA     -0.387300
     11 OAB         2.8580    0.6550   -0.0900 os        1 1XA     -0.140100
     12 CAC         1.5160    1.1300   -0.0430 cd        1 1XA      0.497600
     13 NAF         1.3140    2.4820   -0.0530 nh        1 1XA     -0.909500
     14 H1         -0.8750   -1.7160    1.3010 ha        1 1XA      0.136000
     15 H2         -3.3640   -1.7300    1.3860 ha        1 1XA      0.132000
     16 H3         -4.6720   -0.0250    0.1160 ha        1 1XA      0.132000
     17 H4         -3.4790    1.6880   -1.2530 ha        1 1XA      0.132000
     18 H5         -0.9970    1.6920   -1.3660 ha        1 1XA      0.136000
     19 H6          1.9120   -3.1460   -0.8070 hc        1 1XA      0.060033
     20 H7          1.1500   -2.9670    0.8310 hc        1 1XA      0.060033
     21 H8          0.1740   -2.6250   -0.6660 hc        1 1XA      0.060033
     22 H9          0.4400    2.7700    0.3280 hn        1 1XA      0.425300
     23 H10         2.1020    3.0400    0.1910 hn        1 1XA      0.425300
@<TRIPOS>BOND
     1    1    2 ar  
     2    1    6 ar  
     3    1   14 1   
     4    2    3 ar  
     5    2   15 1   
     6    3    4 ar  
     7    3   16 1   
     8    4    5 ar  
     9    4   17 1   
    10    5    6 ar  
    11    5   18 1   
    12    6    7 1   
    13    7    8 1   
    14    7   12 2   
    15    8    9 1   
    16    8   10 2   
    17    9   19 1   
    18    9   20 1   
    19    9   21 1   
    20   10   11 1   
    21   11   12 1   
    22   12   13 1   
    23   13   22 1   
    24   13   23 1   
@<TRIPOS>SUBSTRUCTURE
     1 1XA         1 TEMP              0 ****  ****    0 ROOT
