@<TRIPOS>MOLECULE
1XB
   45    37     1     0     0
SMALL
bcc


@<TRIPOS>ATOM
      1 C23         2.6960   -0.9340   -1.9190 c1        1 1XB     -0.087000
      2 C28         3.1150    0.2340    0.1390 c1        1 1XB     -0.114500
      3 C24         4.0210   -0.9150   -2.2020 c1        1 1XB     -0.131000
      4 C27         4.4350    0.2500   -0.1470 c1        1 1XB     -0.114500
      5 C8         -1.6110    0.8230    1.2240 c1        1 1XB     -0.111000
      6 C22         2.2280   -0.3550   -0.7370 c1        1 1XB     -0.052000
      7 C5         -0.0770   -0.7920    0.5000 c1        1 1XB     -0.089500
      8 C3          0.1780   -2.3290    0.9060 c1        1 1XB     -0.089500
      9 C25         4.9030   -0.3280   -1.3270 c1        1 1XB     -0.052000
     10 C6         -0.6590   -0.1040    1.6410 c1        1 1XB     -0.341500
     11 C9         -1.7280    0.8210   -0.1490 c1        1 1XB     -0.040000
     12 C12        -2.9060    0.9710    1.7710 c1        1 1XB     -0.077000
     13 C2         -0.2620   -2.5180    2.2900 c1        1 1XB     -0.341500
     14 C21         0.8900    0.1510   -0.2840 c1        1 1XB      0.120000
     15 C17        -1.6890    3.3540   -2.6460 c1        1 1XB      0.300000
     16 C14        -0.7580    1.8930   -0.8050 c2        1 1XB      0.035000
     17 C4          0.5660   -3.6640    0.2290 c2        1 1XB     -0.159000
     18 C13        -3.5340    1.4320    3.0630 c2        1 1XB     -0.159000
     19 C1         -0.6360   -3.5890    3.3400 c2        1 1XB     -0.159000
     20 C16        -0.9450    2.0320   -2.3470 c3        1 1XB     -0.192000
     21 N11        -3.7860    1.0570    0.7420 n2        1 1XB     -0.022000
     22 N20         0.5630    1.5230   -0.4360 n2        1 1XB     -0.178000
     23 N18        -2.0520    3.6760   -3.9440 n2        1 1XB     -0.433000
     24 O19        -1.9670    4.0640   -1.7790 o         1 1XB     -0.374000
     25 O10        -3.0610    0.9650   -0.4600 os        1 1XB     -0.058000
     26 S7         -0.8020   -1.1480    2.8120 ss        1 1XB      0.611000
     27 CL2         6.6110   -0.1870   -1.5940 cl        1 1XB     -0.012000
     28 H1          2.1030   -1.3310   -2.5070 ha        1 1XB      0.152000
     29 H2          2.7640    0.6690    1.0270 ha        1 1XB      0.148000
     30 H3          4.3590   -1.3340   -3.0570 ha        1 1XB      0.152000
     31 H4          5.0310    0.6450    0.4430 ha        1 1XB      0.148000
     32 H5         -0.9760    2.7990   -0.5030 h4        1 1XB      0.146000
     33 H6          0.7870   -3.5000   -0.7350 ha        1 1XB      0.095111
     34 H7         -0.1960   -4.2990    0.2870 ha        1 1XB      0.095111
     35 H8          1.4130   -4.0820    0.7220 ha        1 1XB      0.095111
     36 H9         -3.8520    2.3320    2.9600 ha        1 1XB      0.095111
     37 H10        -2.8770    1.4000    3.7680 ha        1 1XB      0.095111
     38 H11        -4.2880    0.8400    3.2920 ha        1 1XB      0.095111
     39 H12        -1.4980   -4.0250    3.0790 ha        1 1XB      0.095111
     40 H13         0.0790   -4.2690    3.3840 ha        1 1XB      0.095111
     41 H14        -0.7350   -3.1850    4.1780 ha        1 1XB      0.095111
     42 H15        -0.0540    2.0430   -2.7900 hc        1 1XB      0.129000
     43 H16        -1.4740    1.2640   -2.6910 hc        1 1XB      0.129000
     44 H17        -2.5680    4.4570   -4.1130 hn        1 1XB      0.231000
     45 H18        -1.7500    3.1880   -4.6250 hn        1 1XB      0.231000
@<TRIPOS>BOND
     1    1    6 1   
     2    1   28 1   
     3    2    4 1   
     4    2   29 1   
     5    3    9 1   
     6    3   30 1   
     7    4   31 1   
     8    5   11 1   
     9    5   12 1   
    10    6   14 1   
    11    7    8 1   
    12    7   10 1   
    13    8   13 1   
    14   10   26 1   
    15   11   25 1   
    16   12   21 1   
    17   13   26 1   
    18   14   22 1   
    19   15   20 1   
    20   15   24 1   
    21   16   20 1   
    22   16   22 1   
    23   16   32 1   
    24   17   33 1   
    25   17   34 1   
    26   17   35 1   
    27   18   36 1   
    28   18   37 1   
    29   18   38 1   
    30   19   39 1   
    31   19   40 1   
    32   19   41 1   
    33   20   42 1   
    34   20   43 1   
    35   21   25 1   
    36   23   44 1   
    37   23   45 1   
@<TRIPOS>SUBSTRUCTURE
     1 1XB         1 TEMP              0 ****  ****    0 ROOT
