@<TRIPOS>MOLECULE
1XB
   45    48     1     0     0
SMALL
bcc


@<TRIPOS>ATOM
      1 C23         2.6260    1.1000   -0.5730 ca        1 1XB     -0.093500
      2 C28         2.2520   -0.7480    0.9500 ca        1 1XB     -0.093500
      3 C24         4.0030    0.9600   -0.4100 ca        1 1XB     -0.130500
      4 C27         3.6280   -0.8890    1.1210 ca        1 1XB     -0.130500
      5 C8         -2.5090   -0.4600    0.8510 cc        1 1XB     -0.242600
      6 C22         1.7480    0.2420    0.0990 ca        1 1XB     -0.134900
      7 C5         -0.4370   -0.7940   -0.4970 cd        1 1XB     -0.207900
      8 C3          0.0800   -1.7150   -1.4730 cd        1 1XB     -0.062300
      9 C25         4.5000   -0.0350    0.4380 ca        1 1XB      0.024400
     10 C6         -1.6800   -1.2190   -0.0180 cc        1 1XB     -0.022100
     11 C9         -2.4690    0.9240    0.9640 cd        1 1XB      0.253000
     12 C12        -3.5780   -0.8620    1.7750 cc        1 1XB      0.340600
     13 C2         -0.7650   -2.8010   -1.6450 cc        1 1XB     -0.124400
     14 C21         0.2710    0.4100   -0.0370 cf        1 1XB      0.590500
     15 C14        -1.5890    1.9490    0.3430 c3        1 1XB      0.106200
     16 C13        -4.0290   -2.2430    2.0300 c3        1 1XB     -0.136400
     17 C1         -0.5410   -3.9290   -2.5550 c3        1 1XB     -0.023800
     18 C16        -2.1850    2.3500   -1.0160 c3        1 1XB     -0.160400
     19 N11        -4.0760    0.2500    2.3560 nd        1 1XB     -0.354300
     20 N20        -0.1990    1.5660    0.3030 n2        1 1XB     -0.615900
     21 N18        -0.6180    4.2910   -1.1830 n         1 1XB     -0.658000
     22 O19        -1.3580    3.2680   -3.0710 o         1 1XB     -0.617100
     23 O10        -3.4400    1.3150    1.9010 os        1 1XB     -0.100100
     24 S7         -2.1270   -2.6860   -0.6830 ss        1 1XB      0.073200
     25 CL2         6.1780   -0.2070    0.6440 cl        1 1XB     -0.090400
     26 H1          2.2310    1.8870   -1.2330 ha        1 1XB      0.148000
     27 H2          1.5620   -1.4160    1.4870 ha        1 1XB      0.148000
     28 H3          4.6920    1.6330   -0.9420 ha        1 1XB      0.150500
     29 H4          4.0220   -1.6670    1.7930 ha        1 1XB      0.150500
     30 H5         -1.6070    2.8610    1.0250 h1        1 1XB      0.092700
     31 H6          2.1990   -1.9130   -1.6300 hc        1 1XB      0.052700
     32 H7          1.2930   -2.0850   -3.1950 hc        1 1XB      0.052700
     33 H8          1.5070   -0.4450   -2.4410 hc        1 1XB      0.052700
     34 H9         -3.9380   -2.4920    3.1170 hc        1 1XB      0.062367
     35 H10        -5.0990   -2.3680    1.7280 hc        1 1XB      0.062367
     36 H11        -3.4020   -2.9620    1.4440 hc        1 1XB      0.062367
     37 H12         0.4410   -4.4210   -2.3340 hc        1 1XB      0.051033
     38 H13        -1.3500   -4.6950   -2.4580 hc        1 1XB      0.051033
     39 H14        -0.5180   -3.5740   -3.6180 hc        1 1XB      0.051033
     40 H15        -3.1850    2.8280   -0.8360 hc        1 1XB      0.090700
     41 H16        -2.3460    1.4360   -1.6480 hc        1 1XB      0.090700
     42 H17        -0.0330    4.8760   -1.7280 hn        1 1XB      0.311500
     43 H18        -0.4420    4.2380   -0.2120 hn        1 1XB      0.311500
     44 C4          1.3310   -1.5280   -2.2250 c3        1 1XB     -0.041800
     45 C17        -1.3420    3.3150   -1.8230 c         1 1XB      0.659100
@<TRIPOS>BOND
     1    1    3 ar  
     2    1    6 ar  
     3    1   26 1   
     4    2    4 ar  
     5    2    6 ar  
     6    2   27 1   
     7    3    9 ar  
     8    3   28 1   
     9    4    9 ar  
    10    4   29 1   
    11    5   10 1   
    12    5   11 2   
    13    5   12 1   
    14    6   14 1   
    15    7    8 1   
    16    7   10 2   
    17    7   14 1   
    18    8   13 2   
    19    8   44 1   
    20    9   25 1   
    21   10   24 1   
    22   11   15 1   
    23   11   23 1   
    24   12   16 1   
    25   12   19 2   
    26   13   17 1   
    27   13   24 1   
    28   14   20 2   
    29   15   18 1   
    30   15   20 1   
    31   15   30 1   
    32   16   34 1   
    33   16   35 1   
    34   16   36 1   
    35   17   37 1   
    36   17   38 1   
    37   17   39 1   
    38   18   40 1   
    39   18   41 1   
    40   18   45 1   
    41   19   23 1   
    42   21   42 1   
    43   21   43 1   
    44   21   45 1   
    45   22   45 2   
    46   31   44 1   
    47   32   44 1   
    48   33   44 1   
@<TRIPOS>SUBSTRUCTURE
     1 1XB         1 TEMP              0 ****  ****    0 ROOT
