@<TRIPOS>MOLECULE
1XB
   46    64     1     0     0
SMALL
bcc


@<TRIPOS>ATOM
      1 C23         0.0000    0.0000    0.0000 c3        1 1XB     -0.039000
      2 C28         0.0090    0.0060    2.4130 c3        1 1XB     -0.168000
      3 C24         1.3790    0.0000    0.0000 c2        1 1XB     -0.017000
      4 C27         1.3880   -0.0000    2.4010 c2        1 1XB     -0.022000
      5 C8         -4.7600    0.8980    2.5290 c2        1 1XB     -0.240000
      6 C22        -0.6950    0.0060    1.2090 DU        1 1XB     -0.562000
      7 C5         -2.8390   -0.7240    2.3080 c2        1 1XB     -0.317000
      8 C3         -2.3450   -1.9180    2.8600 c3        1 1XB     -0.040000
      9 C25         2.0740    0.0000    1.1990 c3        1 1XB     -0.155000
     10 C6         -4.0000   -0.2930    2.9400 c2        1 1XB     -0.137000
     11 C9         -4.8710    1.3300    1.2370 c2        1 1XB     -0.138000
     12 C12        -5.5190    1.8220    3.2790 DU        1 1XB     -0.192000
     13 C2         -3.0200   -2.4060    3.8870 DU        1 1XB     -0.236000
     14 C21        -2.1770    0.0120    1.2140 c2        1 1XB      0.002000
     15 C14        -4.2080    0.6730    0.0580 c3        1 1XB      0.034000
     16 C1         -2.6580   -3.6640    4.6340 c3        1 1XB      0.509000
     17 C16        -4.7160   -0.7630   -0.0790 c3        1 1XB     -0.464000
     18 N11        -5.9950    2.6730    2.4110 n2        1 1XB      0.119000
     19 N20        -2.7580    0.6630    0.2590 n7        1 1XB      0.132000
     20 N18        -4.4570   -2.6500   -1.6570 nz        1 1XB      0.232000
     21 O19        -3.4060   -0.7350   -2.0420 o         1 1XB     -0.143000
     22 O10        -5.6490    2.4120    1.2770 os        1 1XB      0.158000
     23 S7         -4.3980   -1.3820    4.2590 ss        1 1XB      0.337000
     24 Cl2         3.8100   -0.0080    1.1930 cl        1 1XB      0.277000
     25 H1         -0.8860   -0.3470    0.5170 DU        1 1XB      0.345000
     26 H2         -0.7240   -0.4300    1.7450 DU        1 1XB      0.224000
     27 H3          0.5810    0.2810    0.6760 DU        1 1XB      0.063000
     28 H4          0.8460    0.0010    1.4640 DU        1 1XB      0.084000
     29 H5         -3.4080    0.5290    0.7740 DU        1 1XB      0.169000
     30 H6         -0.4790   -2.0480    1.6370 hc        1 1XB      0.162500
     31 H7         -0.3210   -1.9100    2.5620 hc        1 1XB      0.162500
     32 H8         -1.7200   -1.9060    1.7420 DU        1 1XB      0.095000
     33 H9         -5.2180    1.2540    4.0080 DU        1 1XB     -0.404000
     34 H10        -5.3630    1.0110    4.1590 DU        1 1XB      0.196000
     35 H11        -5.3110    1.0130    4.1920 DU        1 1XB      0.196000
     36 H12        -2.9450   -2.6370    4.8260 DU        1 1XB     -0.033000
     37 H13        -3.0270   -2.6560    4.7820 DU        1 1XB     -0.033000
     38 H14        -3.1690   -2.7350    4.8590 DU        1 1XB     -0.033000
     39 H15        -4.4430   -1.4520    0.7110 hc        1 1XB      0.206000
     40 H16        -4.4210   -1.2180    0.8590 hc        1 1XB      0.206000
     41 H17        -4.0580   -2.8230   -0.7550 hn        1 1XB      0.078333
     42 H18        -4.1600   -1.8210   -1.1820 hn        1 1XB      0.078333
     43 C4         -1.1180   -2.6010    2.3150 c3        1 1XB     -0.405000
     44 C17        -4.1450   -1.3810   -1.3300 c2        1 1XB      0.331000
     45 H183       -5.1210   -2.9290   -0.9620 hn        1 1XB      0.078333
     46 C13        -5.7330    1.8250    4.7710 c3        1 1XB      0.302000
@<TRIPOS>BOND
     1    1    3 1   
     2    1    6 1   
     3    1   25 1   
     4    1   27 1   
     5    2    4 1   
     6    2    6 1   
     7    2   26 1   
     8    2   28 1   
     9    3    9 1   
    10    3   27 1   
    11    4    9 1   
    12    4   28 1   
    13    5   10 1   
    14    5   11 1   
    15    5   12 1   
    16    6   14 1   
    17    6   25 1   
    18    6   26 1   
    19    7    8 1   
    20    7   10 1   
    21    7   14 1   
    22    8   13 1   
    23    8   32 1   
    24    8   43 1   
    25    9   24 1   
    26    9   28 1   
    27   10   23 1   
    28   11   15 1   
    29   11   22 1   
    30   12   18 1   
    31   12   33 1   
    32   12   34 1   
    33   12   35 1   
    34   12   46 1   
    35   13   16 1   
    36   13   23 1   
    37   13   36 1   
    38   13   37 1   
    39   13   38 1   
    40   14   19 1   
    41   15   17 1   
    42   15   19 1   
    43   15   29 1   
    44   16   36 1   
    45   16   37 1   
    46   16   38 1   
    47   17   39 1   
    48   17   40 1   
    49   17   44 1   
    50   18   22 1   
    51   19   29 1   
    52   20   41 1   
    53   20   42 1   
    54   20   44 1   
    55   20   45 1   
    56   21   44 1   
    57   30   43 1   
    58   31   43 1   
    59   32   43 1   
    60   33   34 1   
    61   33   35 1   
    62   33   46 1   
    63   34   46 1   
    64   35   46 1   
@<TRIPOS>SUBSTRUCTURE
     1 1XB         1 TEMP              0 ****  ****    0 ROOT
