@<TRIPOS>MOLECULE
1XD
   46    49     1     0     0
SMALL
bcc


@<TRIPOS>ATOM
      1 C4         -0.2370   -0.0150   -0.0080 ca        1 1XD     -0.016000
      2 C5          1.1550    0.0630   -0.0190 ca        1 1XD     -0.128000
      3 C6          1.8550    0.1030    1.1910 ca        1 1XD     -0.133300
      4 C7          3.3460    0.1700    1.1870 c3        1 1XD      0.165100
      5 C13         5.5750    5.5170    1.2000 cc        1 1XD     -0.039300
      6 C15         7.7650    6.7830    1.1940 cc        1 1XD     -0.155100
      7 C24        -3.0660   -2.4220    2.4080 ca        1 1XD     -0.079000
      8 C26        -3.4590   -4.5060    1.1960 ca        1 1XD     -0.138000
      9 C28        -3.0720   -2.4170   -0.0080 ca        1 1XD     -0.079000
     10 C1          1.1620    0.0580    2.4050 ca        1 1XD     -0.128000
     11 C2         -0.2300   -0.0200    2.4010 ca        1 1XD     -0.016000
     12 C3         -0.9430   -0.0530    1.1990 ca        1 1XD     -0.302500
     13 N8          3.8120    1.5950    1.1920 n4        1 1XD     -0.674800
     14 C9          5.3240    1.7360    1.1880 c         1 1XD      0.572700
     15 O10         5.9520    0.6830    1.1830 o         1 1XD     -0.439100
     16 C11         5.8490    3.0920    1.1900 cd        1 1XD     -0.238600
     17 C12         5.0200    4.2600    1.1980 cd        1 1XD     -0.167000
     18 N14         6.9440    5.6760    1.1940 na        1 1XD      0.028700
     19 C16         9.1050    6.2820    1.1850 cd        1 1XD      0.031600
     20 N17         9.1260    4.9120    1.1810 nd        1 1XD     -0.198600
     21 C18         7.8100    4.5140    1.1860 cc        1 1XD     -0.106300
     22 C19         7.2350    3.2200    1.1840 cc        1 1XD      0.078000
     23 S20        -2.6580   -0.0760    1.2040 sy        1 1XD      1.432600
     24 O21        -3.0770    0.4860    2.4120 o         1 1XD     -0.633800
     25 O22        -3.0840    0.4910    0.0000 o         1 1XD     -0.633800
     26 C23        -2.9300   -1.7310    1.2010 ca        1 1XD     -0.338500
     27 C25        -3.3250   -3.8040    2.4070 ca        1 1XD      0.141900
     28 C27        -3.3320   -3.7990   -0.0110 ca        1 1XD      0.141900
     29 F29        -3.4610   -4.4540   -1.1880 f         1 1XD     -0.116900
     30 F30        -3.4490   -4.4640    3.5810 f         1 1XD     -0.116900
     31 H1         -0.7940   -0.0290   -0.9640 ha        1 1XD      0.176000
     32 H2          1.6930    0.0770   -0.9790 ha        1 1XD      0.147000
     33 H3          3.7810   -0.3380    2.0970 hx        1 1XD      0.121700
     34 H4          3.7760   -0.3300    0.2700 hx        1 1XD      0.121700
     35 H7         -2.9930   -1.8850    3.3700 ha        1 1XD      0.174000
     36 H8         -3.6680   -5.5870    1.1950 ha        1 1XD      0.182000
     37 H9         -3.0040   -1.8760   -0.9680 ha        1 1XD      0.174000
     38 H10         1.7060    0.0680    3.3620 ha        1 1XD      0.147000
     39 H11        -0.7810   -0.0390    3.3610 ha        1 1XD      0.176000
     40 H12         3.4380    2.0750    0.3650 hn        1 1XD      0.457800
     41 H13         3.9240    4.1950    1.2040 ha        1 1XD      0.138000
     42 H14        10.0250    6.8750    1.1830 h4        1 1XD      0.213000
     43 H15         7.9060    2.3410    1.1780 ha        1 1XD      0.200000
     44 H5          4.9690    6.4420    1.2060 h4        1 1XD      0.190000
     45 H82         3.4430    2.0670    2.0250 hn        1 1XD      0.457800
     46 H6          7.3950    7.8090    1.1990 h4        1 1XD      0.210000
@<TRIPOS>BOND
     1    1    2 ar  
     2    1   12 ar  
     3    1   31 1   
     4    2    3 ar  
     5    2   32 1   
     6    3    4 1   
     7    3   10 ar  
     8    4   13 1   
     9    4   33 1   
    10    4   34 1   
    11    5   17 2   
    12    5   18 1   
    13    5   44 1   
    14    6   18 1   
    15    6   19 2   
    16    6   46 1   
    17    7   26 ar  
    18    7   27 ar  
    19    7   35 1   
    20    8   27 ar  
    21    8   28 ar  
    22    8   36 1   
    23    9   26 ar  
    24    9   28 ar  
    25    9   37 1   
    26   10   11 ar  
    27   10   38 1   
    28   11   12 ar  
    29   11   39 1   
    30   12   23 1   
    31   13   14 1   
    32   13   40 1   
    33   13   45 1   
    34   14   15 2   
    35   14   16 1   
    36   16   17 1   
    37   16   22 2   
    38   17   41 1   
    39   18   21 1   
    40   19   20 1   
    41   19   42 1   
    42   20   21 2   
    43   21   22 1   
    44   22   43 1   
    45   23   24 2   
    46   23   25 2   
    47   23   26 1   
    48   27   30 1   
    49   28   29 1   
@<TRIPOS>SUBSTRUCTURE
     1 1XD         1 TEMP              0 ****  ****    0 ROOT
