@<TRIPOS>MOLECULE
1XD
   46    49     1     0     0
SMALL
bcc


@<TRIPOS>ATOM
      1 C4         -0.2360   -0.0140   -0.0060 ca        1 1XD     -0.016000
      2 C5          1.1560    0.0640   -0.0150 ca        1 1XD     -0.128000
      3 C6          1.8540    0.1030    1.1950 ca        1 1XD     -0.133300
      4 C7          3.3450    0.1690    1.1930 c3        1 1XD      0.165100
      5 C13         5.5790    5.5140    1.1940 cc        1 1XD     -0.039300
      6 C15         7.7700    6.7790    1.1900 cc        1 1XD     -0.155100
      7 C24        -3.0690   -2.4180    2.4050 ca        1 1XD     -0.079000
      8 C26        -3.4630   -4.5020    1.1940 ca        1 1XD     -0.138000
      9 C28        -3.0730   -2.4130   -0.0100 ca        1 1XD     -0.079000
     10 C1          1.1590    0.0590    2.4080 ca        1 1XD     -0.128000
     11 C2         -0.2330   -0.0180    2.4030 ca        1 1XD     -0.016000
     12 C3         -0.9430   -0.0510    1.1990 ca        1 1XD     -0.302500
     13 N8          3.8130    1.5940    1.1940 n4        1 1XD     -0.674800
     14 C9          5.3250    1.7340    1.1910 c         1 1XD      0.572700
     15 O10         5.9520    0.6800    1.1900 o         1 1XD     -0.439100
     16 C11         5.8510    3.0900    1.1910 cd        1 1XD     -0.238600
     17 C12         5.0230    4.2580    1.1940 cd        1 1XD     -0.167000
     18 N14         6.9480    5.6720    1.1910 na        1 1XD      0.028700
     19 C16         9.1090    6.2760    1.1860 cd        1 1XD      0.031600
     20 N17         9.1300    4.9070    1.1850 nd        1 1XD     -0.198600
     21 C18         7.8130    4.5100    1.1880 cc        1 1XD     -0.106300
     22 C19         7.2370    3.2160    1.1880 cc        1 1XD      0.078000
     23 S20        -2.6590   -0.0720    1.2020 sy        1 1XD      1.432600
     24 O21        -3.0790    0.4890    2.4100 o         1 1XD     -0.633800
     25 O22        -3.0830    0.4940   -0.0030 o         1 1XD     -0.633800
     26 C23        -2.9330   -1.7270    1.1990 ca        1 1XD     -0.338500
     27 C25        -3.3310   -3.8000    2.4040 ca        1 1XD      0.141900
     28 C27        -3.3340   -3.7950   -0.0140 ca        1 1XD      0.141900
     29 F29        -3.4630   -4.4500   -1.1900 f         1 1XD     -0.116900
     30 F30        -3.4550   -4.4600    3.5780 f         1 1XD     -0.116900
     31 H1         -0.7910   -0.0280   -0.9640 ha        1 1XD      0.176000
     32 H2          1.6960    0.0770   -0.9750 ha        1 1XD      0.147000
     33 H3          3.7760   -0.3340    0.2790 hx        1 1XD      0.121700
     34 H4          3.7790   -0.3360    2.1050 hx        1 1XD      0.121700
     35 H7         -2.9980   -1.8810    3.3680 ha        1 1XD      0.174000
     36 H8         -3.6730   -5.5830    1.1920 ha        1 1XD      0.182000
     37 H9         -3.0040   -1.8720   -0.9710 ha        1 1XD      0.174000
     38 H10         1.7020    0.0690    3.3660 ha        1 1XD      0.147000
     39 H11        -0.7850   -0.0360    3.3620 ha        1 1XD      0.176000
     40 H12         3.4430    2.0690    2.0250 hn        1 1XD      0.457800
     41 H13         3.9270    4.1940    1.1960 ha        1 1XD      0.138000
     42 H14        10.0300    6.8690    1.1850 h4        1 1XD      0.213000
     43 H15         7.9070    2.3370    1.1860 ha        1 1XD      0.200000
     44 H5          4.9740    6.4400    1.1960 h4        1 1XD      0.190000
     45 H82         3.4400    2.0710    0.3650 hn        1 1XD      0.457800
     46 H6          7.4000    7.8050    1.1910 h4        1 1XD      0.210000
@<TRIPOS>BOND
     1    1    2 ar  
     2    1   12 ar  
     3    1   31 1   
     4    2    3 ar  
     5    2   32 1   
     6    3    4 1   
     7    3   10 ar  
     8    4   13 1   
     9    4   33 1   
    10    4   34 1   
    11    5   17 2   
    12    5   18 1   
    13    5   44 1   
    14    6   18 1   
    15    6   19 2   
    16    6   46 1   
    17    7   26 ar  
    18    7   27 ar  
    19    7   35 1   
    20    8   27 ar  
    21    8   28 ar  
    22    8   36 1   
    23    9   26 ar  
    24    9   28 ar  
    25    9   37 1   
    26   10   11 ar  
    27   10   38 1   
    28   11   12 ar  
    29   11   39 1   
    30   12   23 1   
    31   13   14 1   
    32   13   40 1   
    33   13   45 1   
    34   14   15 2   
    35   14   16 1   
    36   16   17 1   
    37   16   22 2   
    38   17   41 1   
    39   18   21 1   
    40   19   20 1   
    41   19   42 1   
    42   20   21 2   
    43   21   22 1   
    44   22   43 1   
    45   23   24 2   
    46   23   25 2   
    47   23   26 1   
    48   27   30 1   
    49   28   29 1   
@<TRIPOS>SUBSTRUCTURE
     1 1XD         1 TEMP              0 ****  ****    0 ROOT
