@<TRIPOS>MOLECULE
1XD
   46    49     1     0     0
SMALL
bcc


@<TRIPOS>ATOM
      1 C4         -0.2430   -0.0100   -0.0100 ca        1 1XD     -0.016000
      2 C5          1.1490    0.0680   -0.0270 ca        1 1XD     -0.128500
      3 C6          1.8550    0.1030    1.1790 ca        1 1XD     -0.133300
      4 C7          3.3460    0.1700    1.1680 c3        1 1XD      0.165100
      5 C13         5.5780    5.5150    1.2180 cc        1 1XD     -0.039300
      6 C15         7.7680    6.7800    1.2090 cc        1 1XD     -0.155100
      7 C24        -3.0610   -2.4230    2.4130 ca        1 1XD     -0.079000
      8 C26        -3.4620   -4.5030    1.1990 ca        1 1XD     -0.138000
      9 C28        -3.0790   -2.4120   -0.0020 ca        1 1XD     -0.079000
     10 C1          1.1670    0.0550    2.3960 ca        1 1XD     -0.128500
     11 C2         -0.2250   -0.0230    2.3990 ca        1 1XD     -0.016000
     12 C3         -0.9430   -0.0520    1.2000 ca        1 1XD     -0.302500
     13 N8          3.8130    1.5940    1.1850 ny        1 1XD     -0.674800
     14 C9          5.3250    1.7350    1.1750 c         1 1XD      0.572700
     15 O10         5.9520    0.6820    1.1600 o         1 1XD     -0.439100
     16 C11         5.8500    3.0910    1.1860 cd        1 1XD     -0.238600
     17 C12         5.0220    4.2590    1.2090 cd        1 1XD     -0.167000
     18 N14         6.9470    5.6730    1.2050 na        1 1XD      0.028700
     19 C16         9.1080    6.2790    1.1890 cd        1 1XD      0.031600
     20 N17         9.1280    4.9090    1.1730 nd        1 1XD     -0.198600
     21 C18         7.8120    4.5120    1.1820 cc        1 1XD     -0.106300
     22 C19         7.2360    3.2180    1.1730 cc        1 1XD      0.078000
     23 S20        -2.6580   -0.0740    1.2130 sy        1 1XD      1.432600
     24 O21        -3.0710    0.4850    2.4250 o         1 1XD     -0.633800
     25 O22        -3.0900    0.4960    0.0130 o         1 1XD     -0.633800
     26 C23        -2.9320   -1.7290    1.2080 ca        1 1XD     -0.338500
     27 C25        -3.3220   -3.8050    2.4100 ca        1 1XD      0.141900
     28 C27        -3.3400   -3.7940   -0.0080 ca        1 1XD      0.141900
     29 F29        -3.4760   -4.4460   -1.1850 f         1 1XD     -0.116900
     30 F30        -3.4390   -4.4680    3.5830 f         1 1XD     -0.116900
     31 H1         -0.8040   -0.0220   -0.9640 ha        1 1XD      0.176000
     32 H2          1.6830    0.0850   -0.9900 ha        1 1XD      0.147500
     33 H3          3.7710   -0.3210    0.2440 hx        1 1XD      0.121200
     34 H4          3.7850   -0.3470    2.0710 hx        1 1XD      0.121200
     35 H7         -2.9830   -1.8880    3.3770 ha        1 1XD      0.174000
     36 H8         -3.6710   -5.5850    1.1960 ha        1 1XD      0.182000
     37 H9         -3.0170   -1.8680   -0.9620 ha        1 1XD      0.174000
     38 H10         1.7160    0.0610    3.3500 ha        1 1XD      0.147500
     39 H11        -0.7710   -0.0440    3.3610 ha        1 1XD      0.176000
     40 H12         3.4470    2.0590    2.0240 hn        1 1XD      0.457300
     41 H13         3.9260    4.1940    1.2200 ha        1 1XD      0.138000
     42 H14        10.0280    6.8710    1.1870 h4        1 1XD      0.213000
     43 H15         7.9070    2.3390    1.1560 ha        1 1XD      0.200000
     44 H5          4.9720    6.4410    1.2350 h4        1 1XD      0.190000
     45 H82         3.4350    2.0820    0.3640 hn        1 1XD      0.457300
     46 H6          7.3980    7.8070    1.2250 h4        1 1XD      0.210000
@<TRIPOS>BOND
     1    1    2 ar  
     2    1   12 ar  
     3    1   31 1   
     4    2    3 ar  
     5    2   32 1   
     6    3    4 1   
     7    3   10 ar  
     8    4   13 1   
     9    4   33 1   
    10    4   34 1   
    11    5   17 2   
    12    5   18 1   
    13    5   44 1   
    14    6   18 1   
    15    6   19 2   
    16    6   46 1   
    17    7   26 ar  
    18    7   27 ar  
    19    7   35 1   
    20    8   27 ar  
    21    8   28 ar  
    22    8   36 1   
    23    9   26 ar  
    24    9   28 ar  
    25    9   37 1   
    26   10   11 ar  
    27   10   38 1   
    28   11   12 ar  
    29   11   39 1   
    30   12   23 1   
    31   13   14 1   
    32   13   40 1   
    33   13   45 1   
    34   14   15 2   
    35   14   16 1   
    36   16   17 1   
    37   16   22 2   
    38   17   41 1   
    39   18   21 1   
    40   19   20 1   
    41   19   42 1   
    42   20   21 2   
    43   21   22 1   
    44   22   43 1   
    45   23   24 2   
    46   23   25 2   
    47   23   26 1   
    48   27   30 1   
    49   28   29 1   
@<TRIPOS>SUBSTRUCTURE
     1 1XD         1 TEMP              0 ****  ****    0 ROOT
