@<TRIPOS>MOLECULE
1XF
   27    28     1     0     0
SMALL
bcc


@<TRIPOS>ATOM
      1 C01         0.1890    0.0030   -0.0850 ca        1 1XF     -0.134000
      2 C02         1.5240   -0.3800    0.0340 ca        1 1XF     -0.133000
      3 C03         2.1060   -0.5200    1.2900 ca        1 1XF     -0.152000
      4 C04         1.3430   -0.2740    2.4490 ca        1 1XF     -0.035200
      5 C05        -0.0180    0.1170    2.3380 ca        1 1XF     -0.128600
      6 C06        -0.5670    0.2470    1.0590 ca        1 1XF     -0.091000
      7 C07        -0.9280    0.4060    3.5250 c         1 1XF      0.911200
      8 O08        -2.1110    0.7440    3.2920 o         1 1XF     -0.794800
      9 O09        -0.4640    0.2960    4.7120 o         1 1XF     -0.794800
     10 N10         1.8880   -0.4030    3.7520 nh        1 1XF     -0.228200
     11 C11         3.1150   -0.7470    4.0910 cv        1 1XF      0.509600
     12 O12         4.1410   -1.0570    3.3290 os        1 1XF     -0.321400
     13 C13         3.6050   -0.8570    5.5270 cy        1 1XF      0.123600
     14 S14         5.2560   -1.3410    4.9280 s4        1 1XF     -0.640400
     15 C15         6.0610   -1.5390    6.4470 c         1 1XF      0.640000
     16 O16         5.7760   -1.4320    7.6340 o         1 1XF     -0.494100
     17 N17         7.5380   -1.9640    6.2680 n4        1 1XF     -0.769400
     18 H1         -0.2670    0.1130   -1.0790 ha        1 1XF      0.131000
     19 H2          2.1260   -0.5740   -0.8650 ha        1 1XF      0.127000
     20 H3          3.1620   -0.8240    1.3660 ha        1 1XF      0.150000
     21 H4         -1.6270    0.5520    0.9880 ha        1 1XF      0.175000
     22 H6          1.1850   -0.1850    4.5080 hn        1 1XF      0.387700
     23 H7          3.0900   -1.6420    6.1210 h1        1 1XF      0.122700
     24 H8          3.5890    0.1050    6.0840 h1        1 1XF      0.122700
     25 H9          7.5760   -2.8480    5.7620 hn        1 1XF      0.438133
     26 H10         7.9950   -2.0750    7.1760 hn        1 1XF      0.438133
     27 H173        8.0310   -1.2530    5.7290 hn        1 1XF      0.438133
@<TRIPOS>BOND
     1    1    2 ar  
     2    1    6 ar  
     3    1   18 1   
     4    2    3 ar  
     5    2   19 1   
     6    3    4 ar  
     7    3   20 1   
     8    4    5 ar  
     9    4   10 1   
    10    5    6 ar  
    11    5    7 1   
    12    6   21 1   
    13    7    8 1   
    14    7    9 1   
    15   10   11 2   
    16   10   22 1   
    17   11   12 1   
    18   11   13 1   
    19   12   14 1   
    20   13   14 1   
    21   13   23 1   
    22   13   24 1   
    23   14   15 1   
    24   15   16 2   
    25   15   17 1   
    26   17   25 1   
    27   17   26 1   
    28   17   27 1   
@<TRIPOS>SUBSTRUCTURE
     1 1XF         1 TEMP              0 ****  ****    0 ROOT
