@<TRIPOS>MOLECULE
1XF
   27    28     1     0     0
SMALL
bcc


@<TRIPOS>ATOM
      1 C01         0.1210   -0.1580   -0.0620 ca        1 1XF     -0.134000
      2 C02         1.4430   -0.5850    0.0530 ca        1 1XF     -0.133000
      3 C03         2.0520   -0.6570    1.3020 ca        1 1XF     -0.152000
      4 C04         1.3310   -0.2960    2.4580 ca        1 1XF     -0.035200
      5 C05        -0.0160    0.1410    2.3500 ca        1 1XF     -0.128600
      6 C06        -0.5940    0.1990    1.0780 ca        1 1XF     -0.091000
      7 C07        -0.8820    0.5530    3.5340 c         1 1XF      0.911200
      8 O08        -2.0580    0.9190    3.3040 o         1 1XF     -0.794800
      9 O09        -0.3900    0.5140    4.7140 o         1 1XF     -0.794800
     10 N10         1.9050   -0.3500    3.7530 nu        1 1XF     -0.228200
     11 C11         3.1250   -0.7230    4.0870 cv        1 1XF      0.509600
     12 O12         4.1160   -1.1340    3.3270 os        1 1XF     -0.321400
     13 C13         3.6490   -0.7470    5.5160 cy        1 1XF      0.123600
     14 S14         5.2610   -1.3500    4.9160 s4        1 1XF     -0.640400
     15 C15         6.0960   -1.4700    6.4260 c         1 1XF      0.640000
     16 O16         5.8480   -1.2620    7.6090 o         1 1XF     -0.494100
     17 N17         7.5470   -1.9750    6.2450 nz        1 1XF     -0.769400
     18 H1         -0.3560   -0.1030   -1.0510 ha        1 1XF      0.131000
     19 H2          2.0130   -0.8690   -0.8430 ha        1 1XF      0.127000
     20 H3          3.0980   -0.9970    1.3750 ha        1 1XF      0.150000
     21 H4         -1.6430    0.5410    1.0100 ha        1 1XF      0.175000
     22 H6          1.2330   -0.0470    4.5070 hn        1 1XF      0.387700
     23 H7          3.6900    0.2530    5.9980 h1        1 1XF      0.122700
     24 H8          3.1160   -1.4620    6.1800 h1        1 1XF      0.122700
     25 H9          8.0240   -2.0390    7.1470 hn        1 1XF      0.438133
     26 H10         7.5330   -2.8960    5.8080 hn        1 1XF      0.438133
     27 H173        8.0570   -1.3310    5.6420 hn        1 1XF      0.438133
@<TRIPOS>BOND
     1    1    2 ar  
     2    1    6 ar  
     3    1   18 1   
     4    2    3 ar  
     5    2   19 1   
     6    3    4 ar  
     7    3   20 1   
     8    4    5 ar  
     9    4   10 1   
    10    5    6 ar  
    11    5    7 1   
    12    6   21 1   
    13    7    8 1   
    14    7    9 1   
    15   10   11 2   
    16   10   22 1   
    17   11   12 1   
    18   11   13 1   
    19   12   14 1   
    20   13   14 1   
    21   13   23 1   
    22   13   24 1   
    23   14   15 1   
    24   15   16 2   
    25   15   17 1   
    26   17   25 1   
    27   17   26 1   
    28   17   27 1   
@<TRIPOS>SUBSTRUCTURE
     1 1XF         1 TEMP              0 ****  ****    0 ROOT
