@<TRIPOS>MOLECULE
1XF
   28    28     1     0     0
SMALL
bcc


@<TRIPOS>ATOM
      1 C01         0.1610    0.3690   -0.0670 ca        1 1XF     -0.130000
      2 C02         1.3630   -0.3350   -0.0910 ca        1 1XF     -0.080000
      3 C03         1.9910   -0.7200    1.0930 ca        1 1XF     -0.138000
      4 C04         1.4080   -0.4030    2.3330 ca        1 1XF      0.061600
      5 C05         0.1770    0.3040    2.3510 ca        1 1XF     -0.206600
      6 C06        -0.4280    0.6910    1.1560 ca        1 1XF     -0.056000
      7 C07        -0.4530    0.6630    3.6380 c         1 1XF      0.627700
      8 O08        -0.8750   -0.3600    4.4520 oh        1 1XF     -0.602100
      9 O09        -0.5940    1.7780    4.1300 o         1 1XF     -0.444000
     10 N10         1.9970   -0.7720    3.5660 n         1 1XF     -0.432100
     11 C11         3.3290   -1.0080    3.7680 c         1 1XF      0.678100
     12 O12         4.2120   -1.0870    2.8820 o         1 1XF     -0.583100
     13 C13         3.8000   -1.2240    5.2010 c3        1 1XF     -0.152300
     14 S14         5.5580   -1.3770    4.9440 ss        1 1XF      0.116300
     15 C15         6.1240   -1.5060    6.5300 c         1 1XF      0.430700
     16 O16         5.5700   -1.5170    7.6270 o         1 1XF     -0.435100
     17 N17         7.6390   -1.6310    6.6360 n4        1 1XF     -0.754400
     18 H1         -0.3230    0.6750   -1.0070 ha        1 1XF      0.160000
     19 H2          1.8320   -0.5900   -1.0550 ha        1 1XF      0.156000
     20 H3          2.9500   -1.2630    1.0440 ha        1 1XF      0.172000
     21 H4         -1.3730    1.2590    1.1850 ha        1 1XF      0.164000
     22 H6         -1.0100   -1.1630    3.9290 ho        1 1XF      0.437000
     23 H7          3.5430   -0.3620    5.8640 h1        1 1XF      0.130200
     24 H8          3.3580   -2.1510    5.6420 h1        1 1XF      0.130200
     25 H9          8.0930   -0.8070    6.2320 hn        1 1XF      0.468133
     26 H10         7.9080   -1.7070    7.6270 hn        1 1XF      0.468133
     27 H102        1.4130   -0.6950    4.3760 hn        1 1XF      0.344500
     28 H173        7.9630   -2.4670    6.1410 hn        1 1XF      0.468133
@<TRIPOS>BOND
     1    1    2 ar  
     2    1    6 ar  
     3    1   18 1   
     4    2    3 ar  
     5    2   19 1   
     6    3    4 ar  
     7    3   20 1   
     8    4    5 ar  
     9    4   10 1   
    10    5    6 ar  
    11    5    7 1   
    12    6   21 1   
    13    7    8 1   
    14    7    9 2   
    15    8   22 1   
    16   10   11 1   
    17   10   27 1   
    18   11   12 2   
    19   11   13 1   
    20   13   14 1   
    21   13   23 1   
    22   13   24 1   
    23   14   15 1   
    24   15   16 2   
    25   15   17 1   
    26   17   25 1   
    27   17   26 1   
    28   17   28 1   
@<TRIPOS>SUBSTRUCTURE
     1 1XF         1 TEMP              0 ****  ****    0 ROOT
