@<TRIPOS>MOLECULE
1XG
   36    35     1     0     0
SMALL
bcc


@<TRIPOS>ATOM
      1 C1          0.8440   -0.4000    1.3540 c         1 1XG      0.556100
      2 N1          0.8760   -1.1570    0.0450 n4        1 1XG     -0.760400
      3 O1         -3.7240    0.6550    1.2710 o         1 1XG     -0.484100
      4 C2         -0.5110   -0.1640    1.9490 c3        1 1XG     -0.170400
      5 O2          1.9330   -0.0630    1.7840 o         1 1XG     -0.388100
      6 C3         -1.3610    0.7760    1.0910 c3        1 1XG      0.028100
      7 O3         -1.5430    0.1750   -0.1790 oh        1 1XG     -0.661800
      8 C4         -2.6900    1.0670    1.7960 c         1 1XG      0.547100
      9 C5         -2.6030    1.8460    3.0660 c3        1 1XG     -0.169400
     10 C6         -3.8930    2.5880    3.3670 c3        1 1XG     -0.037200
     11 C7         -3.8220    3.2880    4.6710 c2        1 1XG     -0.219200
     12 C8         -4.8930    3.7780    5.3050 c2        1 1XG     -0.119200
     13 C9         -6.2810    3.6670    4.7930 c3        1 1XG     -0.024000
     14 C10        -7.2460    4.4620    5.5930 c2        1 1XG     -0.190200
     15 C11        -8.1540    5.2790    5.0500 c2        1 1XG     -0.148200
     16 C12        -9.1360    6.0520    5.8350 c3        1 1XG     -0.069900
     17 H1          1.8390   -1.2440   -0.3000 hn        1 1XG      0.477467
     18 H2          0.3030   -0.6520   -0.6520 hn        1 1XG      0.477467
     19 H3         -0.3570    0.3020    2.9640 hc        1 1XG      0.125200
     20 H4         -1.0420   -1.1460    2.0870 hc        1 1XG      0.125200
     21 H5         -0.8180    1.7500    0.9150 h1        1 1XG      0.101700
     22 H6         -2.4950    0.0800   -0.3630 ho        1 1XG      0.475000
     23 H7         -1.7490    2.5710    3.0090 hc        1 1XG      0.077700
     24 H8         -2.3850    1.1250    3.9020 hc        1 1XG      0.077700
     25 H9         -4.7510    1.8610    3.3590 hc        1 1XG      0.067200
     26 H10        -4.0930    3.3350    2.5500 hc        1 1XG      0.067200
     27 H11        -2.8170    3.4070    5.1050 ha        1 1XG      0.121000
     28 H12        -4.7730    4.3010    6.2690 ha        1 1XG      0.138000
     29 H13        -6.3080    3.9790    3.7120 hc        1 1XG      0.056700
     30 H14        -6.5950    2.5840    4.8250 hc        1 1XG      0.056700
     31 H15        -7.1800    4.3240    6.6840 ha        1 1XG      0.126000
     32 H16        -8.2160    5.4170    3.9570 ha        1 1XG      0.119000
     33 H17        -9.0250    5.8780    6.9330 hc        1 1XG      0.047367
     34 H18       -10.1750    5.7660    5.5360 hc        1 1XG      0.047367
     35 H19        -9.0070    7.1470    5.6370 hc        1 1XG      0.047367
     36 H131        0.4730   -2.0890    0.1720 hn        1 1XG      0.477467
@<TRIPOS>BOND
     1    1    2 1   
     2    1    4 1   
     3    1    5 2   
     4    2   17 1   
     5    2   18 1   
     6    2   36 1   
     7    3    8 2   
     8    4    6 1   
     9    4   19 1   
    10    4   20 1   
    11    6    7 1   
    12    6    8 1   
    13    6   21 1   
    14    7   22 1   
    15    8    9 1   
    16    9   10 1   
    17    9   23 1   
    18    9   24 1   
    19   10   11 1   
    20   10   25 1   
    21   10   26 1   
    22   11   12 2   
    23   11   27 1   
    24   12   13 1   
    25   12   28 1   
    26   13   14 1   
    27   13   29 1   
    28   13   30 1   
    29   14   15 2   
    30   14   31 1   
    31   15   16 1   
    32   15   32 1   
    33   16   33 1   
    34   16   34 1   
    35   16   35 1   
@<TRIPOS>SUBSTRUCTURE
     1 1XG         1 TEMP              0 ****  ****    0 ROOT
