@<TRIPOS>MOLECULE
1XG
   36    35     1     0     0
SMALL
bcc


@<TRIPOS>ATOM
      1 C1          0.9030   -0.2050    1.2370 c         1 1XG      0.556100
      2 N1          0.9410   -0.9310   -0.0900 n4        1 1XG     -0.760400
      3 O1         -3.7120    0.6340    1.2750 o         1 1XG     -0.484100
      4 C2         -0.4480   -0.0470    1.8660 c3        1 1XG     -0.170400
      5 O2          1.9850    0.1720    1.6520 o         1 1XG     -0.388100
      6 C3         -1.3610    0.8680    1.0460 c3        1 1XG      0.028100
      7 O3         -1.5450    0.2820   -0.2310 oh        1 1XG     -0.661800
      8 C4         -2.6850    1.0820    1.7870 c         1 1XG      0.548100
      9 C5         -2.6050    1.8350    3.0720 c3        1 1XG     -0.169400
     10 C6         -3.9110    2.5350    3.4030 c3        1 1XG     -0.037200
     11 C7         -3.8460    3.2080    4.7210 c2        1 1XG     -0.219200
     12 C8         -4.9210    3.6720    5.3670 c2        1 1XG     -0.119200
     13 C9         -6.3090    3.5570    4.8540 c3        1 1XG     -0.024000
     14 C10        -7.2800    4.3310    5.6650 c2        1 1XG     -0.190200
     15 C11        -8.1950    5.1480    5.1360 c2        1 1XG     -0.148200
     16 C12        -9.1840    5.9010    5.9310 c3        1 1XG     -0.069900
     17 H1          1.9000   -0.9660   -0.4550 hn        1 1XG      0.477467
     18 H2          0.3310   -0.4380   -0.7630 hn        1 1XG      0.477467
     19 H3         -0.9280   -1.0560    1.9940 hc        1 1XG      0.125700
     20 H4         -0.2940    0.4050    2.8870 hc        1 1XG      0.125700
     21 H5         -0.8690    1.8700    0.8780 h1        1 1XG      0.101700
     22 H6         -2.4950    0.1470   -0.3960 ho        1 1XG      0.475000
     23 H7         -2.3570    1.1030    3.8890 hc        1 1XG      0.077200
     24 H8         -1.7720    2.5860    3.0220 hc        1 1XG      0.077200
     25 H9         -4.1430    3.2920    2.6040 hc        1 1XG      0.067200
     26 H10        -4.7490    1.7840    3.3890 hc        1 1XG      0.067200
     27 H11        -2.8410    3.3290    5.1560 ha        1 1XG      0.121000
     28 H12        -4.8060    4.1770    6.3410 ha        1 1XG      0.138000
     29 H13        -6.3400    3.8830    3.7770 hc        1 1XG      0.056700
     30 H14        -6.6120    2.4700    4.8710 hc        1 1XG      0.056700
     31 H15        -7.2120    4.1780    6.7550 ha        1 1XG      0.126000
     32 H16        -8.2590    5.3010    4.0450 ha        1 1XG      0.118000
     33 H17        -9.0710    5.7120    7.0270 hc        1 1XG      0.047367
     34 H18        -9.0650    6.9990    5.7490 hc        1 1XG      0.047367
     35 H19       -10.2210    5.6090    5.6290 hc        1 1XG      0.047367
     36 H131        0.5850   -1.8830    0.0250 hn        1 1XG      0.477467
@<TRIPOS>BOND
     1    1    2 1   
     2    1    4 1   
     3    1    5 2   
     4    2   17 1   
     5    2   18 1   
     6    2   36 1   
     7    3    8 2   
     8    4    6 1   
     9    4   19 1   
    10    4   20 1   
    11    6    7 1   
    12    6    8 1   
    13    6   21 1   
    14    7   22 1   
    15    8    9 1   
    16    9   10 1   
    17    9   23 1   
    18    9   24 1   
    19   10   11 1   
    20   10   25 1   
    21   10   26 1   
    22   11   12 2   
    23   11   27 1   
    24   12   13 1   
    25   12   28 1   
    26   13   14 1   
    27   13   29 1   
    28   13   30 1   
    29   14   15 2   
    30   14   31 1   
    31   15   16 1   
    32   15   32 1   
    33   16   33 1   
    34   16   34 1   
    35   16   35 1   
@<TRIPOS>SUBSTRUCTURE
     1 1XG         1 TEMP              0 ****  ****    0 ROOT
