@<TRIPOS>MOLECULE
1XG
   36    35     1     0     0
SMALL
bcc


@<TRIPOS>ATOM
      1 C1          0.8990   -0.3100    1.3650 c         1 1XG      0.556100
      2 N1          0.9430   -1.0850    0.0670 nz        1 1XG     -0.760400
      3 O1         -3.7000    0.6090    1.3070 o         1 1XG     -0.484100
      4 C2         -0.4580   -0.1060    1.9690 c3        1 1XG     -0.170400
      5 O2          1.9810    0.0640    1.7820 o         1 1XG     -0.388100
      6 C3         -1.3420    0.7950    1.1040 c3        1 1XG      0.028100
      7 O3         -1.5180    0.1690   -0.1540 oh        1 1XG     -0.661800
      8 C4         -2.6730    1.0580    1.8170 c         1 1XG      0.547100
      9 C5         -2.5990    1.8560    3.0750 c3        1 1XG     -0.169400
     10 C6         -3.9040    2.5730    3.3720 c3        1 1XG     -0.037200
     11 C7         -3.8440    3.2920    4.6650 c2        1 1XG     -0.219200
     12 C8         -4.9220    3.7720    5.2940 c2        1 1XG     -0.119200
     13 C9         -6.3090    3.6290    4.7870 c3        1 1XG     -0.024000
     14 C10        -7.2870    4.4200    5.5740 c2        1 1XG     -0.190200
     15 C11        -8.2090    5.2120    5.0200 c2        1 1XG     -0.148200
     16 C12        -9.2030    5.9810    5.7930 c3        1 1XG     -0.069900
     17 H1          1.9050   -1.1490   -0.2840 hn        1 1XG      0.477467
     18 H2          0.3500   -0.6070   -0.6320 hn        1 1XG      0.477467
     19 H3         -0.9580   -1.1010    2.1250 hc        1 1XG      0.125700
     20 H4         -0.3100    0.3790    2.9760 hc        1 1XG      0.125700
     21 H5         -0.8300    1.7820    0.9100 h1        1 1XG      0.101700
     22 H6         -2.4670    0.0440   -0.3290 ho        1 1XG      0.475000
     23 H7         -2.3600    1.1520    3.9200 hc        1 1XG      0.077200
     24 H8         -1.7620    2.6010    3.0040 hc        1 1XG      0.077200
     25 H9         -4.1260    3.3030    2.5450 hc        1 1XG      0.067200
     26 H10        -4.7450    1.8260    3.3780 hc        1 1XG      0.067200
     27 H11        -2.8400    3.4360    5.0960 ha        1 1XG      0.121000
     28 H12        -4.8100    4.3110    6.2510 ha        1 1XG      0.138000
     29 H13        -6.3430    3.9220    3.7000 hc        1 1XG      0.056700
     30 H14        -6.6040    2.5410    4.8360 hc        1 1XG      0.056700
     31 H15        -7.2170    4.3010    6.6680 ha        1 1XG      0.126000
     32 H16        -8.2740    5.3310    3.9250 ha        1 1XG      0.119000
     33 H17        -9.0880    5.8260    6.8940 hc        1 1XG      0.047367
     34 H18        -9.0940    7.0740    5.5770 hc        1 1XG      0.047367
     35 H19       -10.2380    5.6710    5.5000 hc        1 1XG      0.047367
     36 H131        0.5680   -2.0260    0.2110 hn        1 1XG      0.477467
@<TRIPOS>BOND
     1    1    2 1   
     2    1    4 1   
     3    1    5 2   
     4    2   17 1   
     5    2   18 1   
     6    2   36 1   
     7    3    8 2   
     8    4    6 1   
     9    4   19 1   
    10    4   20 1   
    11    6    7 1   
    12    6    8 1   
    13    6   21 1   
    14    7   22 1   
    15    8    9 1   
    16    9   10 1   
    17    9   23 1   
    18    9   24 1   
    19   10   11 1   
    20   10   25 1   
    21   10   26 1   
    22   11   12 2   
    23   11   27 1   
    24   12   13 1   
    25   12   28 1   
    26   13   14 1   
    27   13   29 1   
    28   13   30 1   
    29   14   15 2   
    30   14   31 1   
    31   15   16 1   
    32   15   32 1   
    33   16   33 1   
    34   16   34 1   
    35   16   35 1   
@<TRIPOS>SUBSTRUCTURE
     1 1XG         1 TEMP              0 ****  ****    0 ROOT
