@<TRIPOS>MOLECULE
1XH
   51    74     1     0     0
SMALL
bcc


@<TRIPOS>ATOM
      1 CAA         0.0000    0.0000    0.0000 c2        1 1XH     -0.020000
      2 CAB         3.9650    4.7320    0.1080 c3        1 1XH      0.077000
      3 CAC         0.1750    2.1760   -1.4940 c3        1 1XH     -0.220000
      4 CAD         4.5530    3.4460   -2.1630 c3        1 1XH      0.385000
      5 CAG         3.8090    0.9240   -6.2210 c2        1 1XH     -0.134000
      6 CAH         4.4580    2.0800   -6.0250 c3        1 1XH     -0.157000
      7 CAI         2.1480    1.5440   -4.3770 c2        1 1XH     -0.174000
      8 CAJ         3.5120    0.0000    0.0000 DU        1 1XH      0.234000
      9 CAK         2.2790    0.0000    0.9090 c3        1 1XH      0.146000
     10 CAL         3.8130    1.4500   -0.4020 DU        1 1XH     -0.109000
     11 CAM         1.4860    4.4220   -0.0680 DU        1 1XH     -0.076000
     12 CAN         1.3330    3.0390    0.5550 DU        1 1XH      0.015000
     13 CAO         2.3130    3.6670   -3.1310 c3        1 1XH      0.008000
     14 CAP         1.1520    0.6200    0.1190 c3        1 1XH     -0.389000
     15 CAQ         2.7960    2.7000   -4.1820 c3        1 1XH     -0.110000
     16 CAR         2.6210    0.5960   -5.4070 c2        1 1XH      0.210000
     17 CAS         3.9850    3.0270   -4.9960 c3        1 1XH      0.207000
     18 CAT         2.7830    4.5420   -0.8470 DU        1 1XH     -0.489000
     19 CAU         2.6940    2.0150   -1.2760 c3        1 1XH     -0.414000
     20 CAV         1.3610    1.9710   -0.5400 DU        1 1XH     -0.534000
     21 CAW         3.0490    3.3930   -1.8060 DU        1 1XH     -0.005000
     22 HAA         0.3220   -0.0470   -1.0330 ha        1 1XH      0.206000
     23 HAAA        0.5940    0.5790   -0.6960 DU        1 1XH      0.250000
     24 HAB         3.3320    3.8540    0.1640 hc        1 1XH      0.029500
     25 HABA        3.1630    4.0120   -0.0060 DU        1 1XH      0.175000
     26 HABB        4.3240    3.7630    0.4340 hc        1 1XH      0.029500
     27 HAC         0.8850    2.8190   -0.9880 DU        1 1XH      0.186000
     28 HACA        1.0570    2.7690   -1.2850 DU        1 1XH      0.186000
     29 HACB       -0.7490    2.1720   -0.9280 hc        1 1XH      0.099000
     30 HAD         3.4730    3.3660   -2.1230 DU        1 1XH     -0.437000
     31 HADA        3.5730    2.9840   -2.1770 DU        1 1XH     -0.195000
     32 HADB        5.1410    3.3970   -1.2550 hc        1 1XH      0.017000
     33 HAH         4.5410    2.6920   -5.1350 DU        1 1XH      0.192000
     34 HAI         3.0300    1.8950   -3.8550 DU        1 1XH      0.136000
     35 HAJ         3.7840    0.3470   -0.9900 DU        1 1XH      0.362000
     36 HAJA        2.9810    0.3110   -0.8920 ha        1 1XH     -0.167000
     37 HAK         2.7970   -0.2980    0.0050 DU        1 1XH     -0.019000
     38 HAKA        3.3260   -0.2080    0.7230 DU        1 1XH     -0.019000
     39 HAL         3.2490    0.6710    0.0970 DU        1 1XH     -0.085000
     40 HALA        3.2800    1.1080    0.4760 DU        1 1XH     -0.085000
     41 HAM         2.2500    3.6750    0.1100 DU        1 1XH     -0.343000
     42 HAMA        2.2750    3.7110   -0.2830 DU        1 1XH      0.431000
     43 HAN         1.4070    4.1170    0.6410 DU        1 1XH      0.070000
     44 HANA        0.9880    3.8290   -0.1010 DU        1 1XH      0.070000
     45 HAO         2.2740    3.4720   -2.0660 DU        1 1XH      0.386000
     46 H26         1.8670    3.5090   -2.1570 DU        1 1XH     -0.086000
     47 HAT         2.6720    4.6020   -1.9230 ha        1 1XH      0.236000
     48 HAU         2.1150    2.6240   -1.9590 hc        1 1XH      0.190000
     49 H12         3.6300    1.6590   -5.4460 DU        1 1XH      0.086000
     50 OAE         2.0340   -0.4520   -5.5850 o         1 1XH     -0.150000
     51 OAF         4.5720    4.0750   -4.8180 o         1 1XH     -0.199000
@<TRIPOS>BOND
     1    1   14 1   
     2    1   22 1   
     3    1   23 1   
     4    2   18 1   
     5    2   24 1   
     6    2   25 1   
     7    2   26 1   
     8    3   20 1   
     9    3   27 1   
    10    3   28 1   
    11    3   29 1   
    12    4   21 1   
    13    4   30 1   
    14    4   31 1   
    15    4   32 1   
    16    5    6 1   
    17    5   16 1   
    18    5   49 1   
    19    6   17 1   
    20    6   33 1   
    21    6   49 1   
    22    7   15 1   
    23    7   16 1   
    24    7   34 1   
    25    8    9 1   
    26    8   10 1   
    27    8   35 1   
    28    8   36 1   
    29    8   37 1   
    30    8   38 1   
    31    9   14 1   
    32    9   37 1   
    33    9   38 1   
    34   10   19 1   
    35   10   35 1   
    36   10   39 1   
    37   10   40 1   
    38   11   12 1   
    39   11   18 1   
    40   11   41 1   
    41   11   42 1   
    42   11   43 1   
    43   11   44 1   
    44   12   20 1   
    45   12   41 1   
    46   12   43 1   
    47   12   44 1   
    48   13   15 1   
    49   13   21 1   
    50   13   45 1   
    51   13   46 1   
    52   14   20 1   
    53   14   23 1   
    54   15   17 1   
    55   15   34 1   
    56   16   50 1   
    57   17   33 1   
    58   17   51 1   
    59   18   21 1   
    60   18   25 1   
    61   18   42 1   
    62   18   47 1   
    63   19   20 1   
    64   19   21 1   
    65   19   48 1   
    66   20   27 1   
    67   20   28 1   
    68   21   31 1   
    69   21   45 1   
    70   27   28 1   
    71   30   31 1   
    72   39   40 1   
    73   41   42 1   
    74   45   46 1   
@<TRIPOS>SUBSTRUCTURE
     1 1XH         1 TEMP              0 ****  ****    0 ROOT
