@<TRIPOS>MOLECULE
1XL
   39    36     1     0     0
SMALL
bcc


@<TRIPOS>ATOM
      1 OAD        -4.9660    3.3830   -1.1130 oh        1 1XL     -0.333000
      2 CAJ        -3.5590    3.4280   -1.0160 c3        1 1XL     -0.061000
      3 CAT        -3.0340    2.0590   -0.6300 c3        1 1XL      0.003000
      4 OAE        -3.2110    1.1680   -1.7060 oh        1 1XL     -0.336000
      5 CAV        -1.5630    2.1600   -0.2960 c3        1 1XL     -0.003000
      6 OAG        -1.3940    2.9810    0.8250 oh        1 1XL     -0.324000
      7 CAU        -1.0150    0.7730    0.0040 c3        1 1XL      0.029000
      8 OAF        -1.7160    0.2170    1.0710 oh        1 1XL     -0.311000
      9 CAK         0.4620    0.8770    0.3650 c3        1 1XL     -0.077000
     10 N8          1.1030   -0.4070    0.1560 n3        1 1XL     -0.141000
     11 C7          1.4670   -0.8080   -1.1480 c2        1 1XL      0.013000
     12 C8A         1.5060   -1.2060    1.2950 c1        1 1XL      0.169000
     13 N1          1.1390   -0.8050    2.6170 n1        1 1XL     -0.279000
     14 C2          1.5490   -1.6170    3.7740 c1        1 1XL      0.370000
     15 O2          1.2730   -1.2540    4.8960 o         1 1XL     -0.310000
     16 N3          2.3380   -2.8460    3.5730 n2        1 1XL     -0.393000
     17 C4          2.7070   -3.2490    2.2580 c2        1 1XL      0.360000
     18 O4          3.3750   -4.2540    2.0950 o         1 1XL     -0.300000
     19 C4A         2.2960   -2.4350    1.0910 c1        1 1XL     -0.131000
     20 N5          2.6660   -2.8430   -0.2400 n1        1 1XL      0.007000
     21 C6          2.2740   -2.0650   -1.3530 c1        1 1XL     -0.192000
     22 CAI         2.6920   -2.4740   -2.7410 c3        1 1XL      0.052000
     23 OAC         3.6670   -3.4940   -2.6590 oh        1 1XL     -0.318000
     24 H1         -5.2680    4.1700   -1.3970 ho        1 1XL      0.213000
     25 H2         -3.2990    4.0820   -0.3320 h1        1 1XL      0.074000
     26 H3         -3.1810    3.6910   -1.8770 h1        1 1XL      0.074000
     27 H4         -3.5230    1.7310    0.1480 h1        1 1XL      0.119000
     28 H5         -4.0550    0.8940   -1.7290 ho        1 1XL      0.230000
     29 H6         -1.0810    2.5440   -1.0580 h1        1 1XL      0.093000
     30 H7         -0.9690    3.7250    0.5860 ho        1 1XL      0.211000
     31 H8         -1.1180    0.2060   -0.7830 h1        1 1XL      0.137000
     32 H9         -1.7290    0.7970    1.7530 ho        1 1XL      0.235000
     33 H10         0.8880    1.5490   -0.2020 h1        1 1XL      0.131500
     34 H11         0.5520    1.1400    1.3100 h1        1 1XL      0.131500
     35 H12         1.1960   -0.2700   -1.9180 h4        1 1XL      0.178000
     36 H14         2.5910   -3.3470    4.2910 hn        1 1XL      0.262000
     37 H15         3.0650   -1.7050   -3.2070 h1        1 1XL      0.099000
     38 H16         1.9150   -2.8060   -3.2300 h1        1 1XL      0.099000
     39 H17         3.9600   -3.6890   -3.4720 ho        1 1XL      0.219000
@<TRIPOS>BOND
     1    1    2 1   
     2    1   24 1   
     3    2    3 1   
     4    2   25 1   
     5    2   26 1   
     6    3    4 1   
     7    3    5 1   
     8    3   27 1   
     9    4   28 1   
    10    5    6 1   
    11    5    7 1   
    12    5   29 1   
    13    6   30 1   
    14    7    8 1   
    15    7    9 1   
    16    7   31 1   
    17    8   32 1   
    18    9   10 1   
    19    9   33 1   
    20    9   34 1   
    21   10   11 1   
    22   10   12 1   
    23   11   21 1   
    24   11   35 1   
    25   12   13 1   
    26   14   15 1   
    27   16   17 1   
    28   16   36 1   
    29   17   18 1   
    30   17   19 1   
    31   19   20 1   
    32   21   22 1   
    33   22   23 1   
    34   22   37 1   
    35   22   38 1   
    36   23   39 1   
@<TRIPOS>SUBSTRUCTURE
     1 1XL         1 TEMP              0 ****  ****    0 ROOT
