@<TRIPOS>MOLECULE
1XL
   39    40     1     0     0
SMALL
bcc


@<TRIPOS>ATOM
      1 OAD         0.2150   -0.7930   -0.1810 oh        1 1XL     -0.607800
      2 CAJ         1.6050   -0.5190   -0.1580 c3        1 1XL      0.092400
      3 CAT         1.9220   -0.0880    1.2780 c3        1 1XL      0.102100
      4 OAE         1.6120   -1.1310    2.1900 oh        1 1XL     -0.614800
      5 CAV         3.4210    0.2250    1.4350 c3        1 1XL      0.112100
      6 OAG         3.7090    1.5310    0.9690 oh        1 1XL     -0.580800
      7 CAU         3.8560    0.1490    2.9150 c3        1 1XL      0.149100
      8 OAF         2.9630    0.8200    3.7800 oh        1 1XL     -0.581800
      9 CAK         5.2280    0.8390    3.0700 c3        1 1XL      0.020300
     10 N8          5.8800    0.5870    4.3450 na        1 1XL     -0.072100
     11 C7          6.1390   -0.7120    4.7170 cc        1 1XL     -0.078600
     12 C8A         6.2130    1.6310    5.2380 cc        1 1XL      0.079400
     13 N1          6.0530    2.8950    4.8880 nd        1 1XL     -0.403400
     14 C2          6.4040    3.9140    5.8060 c         1 1XL      0.851900
     15 O2          6.2900    5.1190    5.5170 o         1 1XL     -0.583500
     16 N3          6.8990    3.5870    7.0950 n         1 1XL     -0.614500
     17 C4          7.0960    2.2840    7.5350 c         1 1XL      0.613000
     18 O4          7.5190    2.0710    8.6820 o         1 1XL     -0.578500
     19 C4A         6.7780    1.1870    6.5540 cc        1 1XL      0.283800
     20 N5          7.0000   -0.0660    6.8830 nd        1 1XL     -0.520000
     21 C6          6.6890   -1.0370    5.9500 cd        1 1XL      0.225600
     22 CAI         6.9550   -2.4780    6.3000 c3        1 1XL      0.109100
     23 OAC         8.3330   -2.7570    6.4050 oh        1 1XL     -0.592800
     24 H1          0.0040   -1.1070   -1.0690 ho        1 1XL      0.417000
     25 H2          1.8520    0.3060   -0.8760 h1        1 1XL      0.036700
     26 H3          2.1860   -1.4410   -0.4280 h1        1 1XL      0.036700
     27 H4          1.3170    0.8270    1.5400 h1        1 1XL      0.075700
     28 H5          0.7020   -1.4020    2.0030 ho        1 1XL      0.435000
     29 H6          4.0250   -0.5230    0.8470 h1        1 1XL      0.042700
     30 H7          3.3440    1.6090    0.0790 ho        1 1XL      0.406000
     31 H8          3.9000   -0.9450    3.1850 h1        1 1XL      0.046700
     32 H9          2.1320    0.3250    3.7710 ho        1 1XL      0.422000
     33 H10         5.9050    0.4600    2.2520 h1        1 1XL      0.107700
     34 H11         5.0670    1.9480    2.9200 h1        1 1XL      0.107700
     35 H12         5.8910   -1.4920    3.9730 h4        1 1XL      0.174000
     36 H14         7.1090    4.3370    7.7190 hn        1 1XL      0.347500
     37 H15         6.4260   -2.7390    7.2580 h1        1 1XL      0.058200
     38 H16         6.5920   -3.1490    5.4740 h1        1 1XL      0.058200
     39 H17         8.6840   -2.2400    7.1420 ho        1 1XL      0.419000
@<TRIPOS>BOND
     1    1    2 1   
     2    1   24 1   
     3    2    3 1   
     4    2   25 1   
     5    2   26 1   
     6    3    4 1   
     7    3    5 1   
     8    3   27 1   
     9    4   28 1   
    10    5    6 1   
    11    5    7 1   
    12    5   29 1   
    13    6   30 1   
    14    7    8 1   
    15    7    9 1   
    16    7   31 1   
    17    8   32 1   
    18    9   10 1   
    19    9   33 1   
    20    9   34 1   
    21   10   11 1   
    22   10   12 1   
    23   11   21 2   
    24   11   35 1   
    25   12   13 2   
    26   12   19 1   
    27   13   14 1   
    28   14   15 2   
    29   14   16 1   
    30   16   17 1   
    31   16   36 1   
    32   17   18 2   
    33   17   19 1   
    34   19   20 2   
    35   20   21 1   
    36   21   22 1   
    37   22   23 1   
    38   22   37 1   
    39   22   38 1   
    40   23   39 1   
@<TRIPOS>SUBSTRUCTURE
     1 1XL         1 TEMP              0 ****  ****    0 ROOT
