@<TRIPOS>MOLECULE
1XL
   39    40     1     0     0
SMALL
bcc


@<TRIPOS>ATOM
      1 OAD        -6.2190    1.7610    0.0710 oh        1 1XL     -0.616800
      2 CAJ        -5.4770    0.6240    0.4850 c3        1 1XL      0.095400
      3 CAT        -4.0970    0.7610   -0.1640 c3        1 1XL      0.115100
      4 OAE        -3.4270    1.9250    0.2980 oh        1 1XL     -0.622800
      5 CAV        -3.2170   -0.4440    0.2120 c3        1 1XL      0.110100
      6 OAG        -3.7770   -1.6350   -0.3000 oh        1 1XL     -0.588800
      7 CAU        -1.7790   -0.2500   -0.3130 c3        1 1XL      0.102100
      8 OAF        -1.3230   -1.4310   -0.9300 oh        1 1XL     -0.590800
      9 CAK        -0.8860    0.2150    0.8520 c3        1 1XL     -0.011700
     10 N8          0.4890    0.4940    0.4750 na        1 1XL     -0.073100
     11 C7          0.8220    1.7450    0.0080 cc        1 1XL     -0.074600
     12 C8A         1.4780   -0.5150    0.4940 cc        1 1XL      0.078400
     13 N1          1.1750   -1.7390    0.8920 nd        1 1XL     -0.426400
     14 C2          2.1960   -2.7200    0.9280 c         1 1XL      0.851900
     15 O2          1.9620   -3.8850    1.2970 o         1 1XL     -0.586500
     16 N3          3.5220   -2.3980    0.5420 n         1 1XL     -0.612500
     17 C4          3.9120   -1.1370    0.1050 c         1 1XL      0.613000
     18 O4          5.0920   -0.9260   -0.2130 o         1 1XL     -0.574500
     19 C4A         2.8400   -0.0820    0.0500 cc        1 1XL      0.285800
     20 N5          3.1300    1.1280   -0.3770 nd        1 1XL     -0.518000
     21 C6          2.1100    2.0590   -0.4070 cd        1 1XL      0.228600
     22 CAI         2.4220    3.4470   -0.9040 c3        1 1XL      0.108100
     23 OAC         3.3020    4.1360   -0.0460 oh        1 1XL     -0.589800
     24 H1         -7.1090    1.6580    0.4270 ho        1 1XL      0.415000
     25 H2         -5.3850    0.6150    1.6030 h1        1 1XL      0.048200
     26 H3         -5.9650   -0.3240    0.1360 h1        1 1XL      0.048200
     27 H4         -4.2150    0.8220   -1.2820 h1        1 1XL      0.055700
     28 H5         -4.0630    2.6510    0.2350 ho        1 1XL      0.433000
     29 H6         -3.2280   -0.5860    1.3290 h1        1 1XL      0.086700
     30 H7         -3.5590   -1.6880   -1.2420 ho        1 1XL      0.421000
     31 H8         -1.7700    0.5170   -1.1410 h1        1 1XL      0.089700
     32 H9         -1.2850   -2.1270   -0.2580 ho        1 1XL      0.433000
     33 H10        -1.3410    1.1630    1.2660 h1        1 1XL      0.097700
     34 H11        -0.8920   -0.5670    1.6650 h1        1 1XL      0.097700
     35 H12         0.0050    2.4930   -0.0080 h4        1 1XL      0.184000
     36 H14         4.2090   -3.1200    0.5850 hn        1 1XL      0.349500
     37 H15         2.8460    3.3890   -1.9440 h1        1 1XL      0.059700
     38 H16         1.4870    4.0720   -0.9130 h1        1 1XL      0.059700
     39 H17         4.1470    3.6680   -0.0510 ho        1 1XL      0.420000
@<TRIPOS>BOND
     1    1    2 1   
     2    1   24 1   
     3    2    3 1   
     4    2   25 1   
     5    2   26 1   
     6    3    4 1   
     7    3    5 1   
     8    3   27 1   
     9    4   28 1   
    10    5    6 1   
    11    5    7 1   
    12    5   29 1   
    13    6   30 1   
    14    7    8 1   
    15    7    9 1   
    16    7   31 1   
    17    8   32 1   
    18    9   10 1   
    19    9   33 1   
    20    9   34 1   
    21   10   11 1   
    22   10   12 1   
    23   11   21 2   
    24   11   35 1   
    25   12   13 2   
    26   12   19 1   
    27   13   14 1   
    28   14   15 2   
    29   14   16 1   
    30   16   17 1   
    31   16   36 1   
    32   17   18 2   
    33   17   19 1   
    34   19   20 2   
    35   20   21 1   
    36   21   22 1   
    37   22   23 1   
    38   22   37 1   
    39   22   38 1   
    40   23   39 1   
@<TRIPOS>SUBSTRUCTURE
     1 1XL         1 TEMP              0 ****  ****    0 ROOT
