@<TRIPOS>MOLECULE
1XL
   39    40     1     0     0
SMALL
bcc


@<TRIPOS>ATOM
      1 OAD         0.2120   -0.8080   -0.1770 oh        1 1XL     -0.607800
      2 CAJ         1.6030   -0.5330   -0.1550 c3        1 1XL      0.092400
      3 CAT         1.9200   -0.0970    1.2800 c3        1 1XL      0.102100
      4 OAE         1.6110   -1.1380    2.1950 oh        1 1XL     -0.614800
      5 CAV         3.4190    0.2170    1.4350 c3        1 1XL      0.112100
      6 OAG         3.7060    1.5220    0.9650 oh        1 1XL     -0.580800
      7 CAU         3.8540    0.1450    2.9150 c3        1 1XL      0.149100
      8 OAF         2.9620    0.8180    3.7780 oh        1 1XL     -0.581800
      9 CAK         5.2260    0.8360    3.0670 c3        1 1XL      0.020300
     10 N8          5.8780    0.5880    4.3430 na        1 1XL     -0.072100
     11 C7          6.1380   -0.7090    4.7200 cc        1 1XL     -0.078600
     12 C8A         6.2130    1.6350    5.2320 cc        1 1XL      0.079400
     13 N1          6.0530    2.8980    4.8780 nd        1 1XL     -0.403400
     14 C2          6.4040    3.9210    5.7920 c         1 1XL      0.851900
     15 O2          6.2900    5.1240    5.4990 o         1 1XL     -0.583500
     16 N3          6.8990    3.5980    7.0820 ns        1 1XL     -0.614500
     17 C4          7.0970    2.2960    7.5270 c         1 1XL      0.613000
     18 O4          7.5200    2.0870    8.6740 o         1 1XL     -0.578500
     19 C4A         6.7780    1.1960    6.5500 cc        1 1XL      0.283800
     20 N5          7.0000   -0.0560    6.8820 nd        1 1XL     -0.520000
     21 C6          6.6890   -1.0300    5.9540 cd        1 1XL      0.225600
     22 CAI         6.9550   -2.4700    6.3080 c3        1 1XL      0.109100
     23 OAC         8.3330   -2.7480    6.4140 oh        1 1XL     -0.592800
     24 H1          0.0010   -1.1240   -1.0630 ho        1 1XL      0.417000
     25 H2          2.1840   -1.4550   -0.4230 h1        1 1XL      0.036700
     26 H3          1.8480    0.2910   -0.8760 h1        1 1XL      0.036700
     27 H4          1.3150    0.8180    1.5400 h1        1 1XL      0.075700
     28 H5          0.7010   -1.4100    2.0090 ho        1 1XL      0.435000
     29 H6          4.0230   -0.5330    0.8500 h1        1 1XL      0.042700
     30 H7          3.3400    1.5960    0.0750 ho        1 1XL      0.406000
     31 H8          3.8990   -0.9480    3.1890 h1        1 1XL      0.046700
     32 H9          2.1310    0.3230    3.7710 ho        1 1XL      0.422000
     33 H10         5.0640    1.9440    2.9130 h1        1 1XL      0.107700
     34 H11         5.9030    0.4550    2.2500 h1        1 1XL      0.107700
     35 H12         5.8890   -1.4920    3.9780 h4        1 1XL      0.174000
     36 H14         7.1100    4.3500    7.7030 hn        1 1XL      0.347500
     37 H15         6.5920   -3.1440    5.4850 h1        1 1XL      0.058200
     38 H16         6.4260   -2.7280    7.2670 h1        1 1XL      0.058200
     39 H17         8.6840   -2.2290    7.1490 ho        1 1XL      0.419000
@<TRIPOS>BOND
     1    1    2 1   
     2    1   24 1   
     3    2    3 1   
     4    2   25 1   
     5    2   26 1   
     6    3    4 1   
     7    3    5 1   
     8    3   27 1   
     9    4   28 1   
    10    5    6 1   
    11    5    7 1   
    12    5   29 1   
    13    6   30 1   
    14    7    8 1   
    15    7    9 1   
    16    7   31 1   
    17    8   32 1   
    18    9   10 1   
    19    9   33 1   
    20    9   34 1   
    21   10   11 1   
    22   10   12 1   
    23   11   21 2   
    24   11   35 1   
    25   12   13 2   
    26   12   19 1   
    27   13   14 1   
    28   14   15 2   
    29   14   16 1   
    30   16   17 1   
    31   16   36 1   
    32   17   18 2   
    33   17   19 1   
    34   19   20 2   
    35   20   21 1   
    36   21   22 1   
    37   22   23 1   
    38   22   37 1   
    39   22   38 1   
    40   23   39 1   
@<TRIPOS>SUBSTRUCTURE
     1 1XL         1 TEMP              0 ****  ****    0 ROOT
