@<TRIPOS>MOLECULE
1XL
   39    40     1     0     0
SMALL
bcc


@<TRIPOS>ATOM
      1 OAD         0.2000   -0.7740   -0.1700 oh        1 1XL     -0.607800
      2 CAJ         1.5930   -0.5110   -0.1500 c3        1 1XL      0.092400
      3 CAT         1.9150   -0.0760    1.2840 c3        1 1XL      0.102100
      4 OAE         1.5990   -1.1140    2.2000 oh        1 1XL     -0.614800
      5 CAV         3.4170    0.2260    1.4370 c3        1 1XL      0.112100
      6 OAG         3.7150    1.5280    0.9660 oh        1 1XL     -0.580800
      7 CAU         3.8530    0.1520    2.9170 c3        1 1XL      0.149100
      8 OAF         2.9680    0.8330    3.7800 oh        1 1XL     -0.581800
      9 CAK         5.2310    0.8310    3.0660 c3        1 1XL      0.020300
     10 N8          5.8830    0.5790    4.3420 na        1 1XL     -0.072100
     11 C7          6.1320   -0.7190    4.7200 cc        1 1XL     -0.078600
     12 C8A         6.2270    1.6250    5.2290 cc        1 1XL      0.079400
     13 N1          6.0770    2.8890    4.8730 nd        1 1XL     -0.403400
     14 C2          6.4380    3.9090    5.7860 c         1 1XL      0.851900
     15 O2          6.3350    5.1140    5.4910 o         1 1XL     -0.583500
     16 N3          6.9320    3.5840    7.0760 n         1 1XL     -0.614500
     17 C4          7.1180    2.2820    7.5220 c         1 1XL      0.613000
     18 O4          7.5410    2.0710    8.6690 o         1 1XL     -0.578500
     19 C4A         6.7890    1.1830    6.5470 cc        1 1XL      0.283800
     20 N5          7.0010   -0.0710    6.8820 nd        1 1XL     -0.520000
     21 C6          6.6800   -1.0430    5.9550 cd        1 1XL      0.225600
     22 CAI         6.9340   -2.4850    6.3110 c3        1 1XL      0.109100
     23 OAC         8.3100   -2.7750    6.4150 oh        1 1XL     -0.592800
     24 H1         -0.0140   -1.0900   -1.0560 ho        1 1XL      0.417000
     25 H2          2.1660   -1.4380   -0.4180 h1        1 1XL      0.036700
     26 H3          1.8450    0.3100   -0.8720 h1        1 1XL      0.036700
     27 H4          1.3180    0.8440    1.5430 h1        1 1XL      0.075700
     28 H5          0.6860   -1.3780    2.0150 ho        1 1XL      0.435000
     29 H6          4.0140   -0.5300    0.8520 h1        1 1XL      0.042700
     30 H7          3.3480    1.6040    0.0760 ho        1 1XL      0.406000
     31 H8          3.8890   -0.9410    3.1910 h1        1 1XL      0.046700
     32 H9          2.1320    0.3440    3.7740 ho        1 1XL      0.422000
     33 H10         5.0790    1.9400    2.9120 h1        1 1XL      0.107700
     34 H11         5.9040    0.4440    2.2500 h1        1 1XL      0.107700
     35 H12         5.8750   -1.5010    3.9810 h4        1 1XL      0.174000
     36 H14         7.1500    4.3350    7.6960 hn        1 1XL      0.347500
     37 H15         6.5640   -3.1570    5.4890 h1        1 1XL      0.058200
     38 H16         6.4040   -2.7360    7.2710 h1        1 1XL      0.058200
     39 H17         8.6660   -2.2580    7.1490 ho        1 1XL      0.419000
@<TRIPOS>BOND
     1    1    2 1   
     2    1   24 1   
     3    2    3 1   
     4    2   25 1   
     5    2   26 1   
     6    3    4 1   
     7    3    5 1   
     8    3   27 1   
     9    4   28 1   
    10    5    6 1   
    11    5    7 1   
    12    5   29 1   
    13    6   30 1   
    14    7    8 1   
    15    7    9 1   
    16    7   31 1   
    17    8   32 1   
    18    9   10 1   
    19    9   33 1   
    20    9   34 1   
    21   10   11 1   
    22   10   12 1   
    23   11   21 2   
    24   11   35 1   
    25   12   13 2   
    26   12   19 1   
    27   13   14 1   
    28   14   15 2   
    29   14   16 1   
    30   16   17 1   
    31   16   36 1   
    32   17   18 2   
    33   17   19 1   
    34   19   20 2   
    35   20   21 1   
    36   21   22 1   
    37   22   23 1   
    38   22   37 1   
    39   22   38 1   
    40   23   39 1   
@<TRIPOS>SUBSTRUCTURE
     1 1XL         1 TEMP              0 ****  ****    0 ROOT
