@<TRIPOS>MOLECULE
1XM
   17    18     1     0     0
SMALL
bcc


@<TRIPOS>ATOM
      1 N1         -0.0750   -0.0000    0.0300 n4        1 1XM     -0.797600
      2 C2          1.4100   -0.0010    0.0280 cc        1 1XM      0.638800
      3 N3          2.0330   -0.0010    1.1910 nd        1 1XM     -0.592100
      4 C4          3.4490   -0.0020    1.2560 c         1 1XM      0.492800
      5 S5          4.2030   -0.0010    2.6240 s         1 1XM     -0.154400
      6 N6          4.1930   -0.0030    0.0300 n         1 1XM     -0.403100
      7 C7          3.5250   -0.0040   -1.1620 cd        1 1XM      0.135300
      8 N8          3.9650   -0.0050   -2.4850 na        1 1XM     -0.019600
      9 N9          2.9300   -0.0050   -3.3460 nd        1 1XM     -0.429800
     10 C10         1.7780   -0.0040   -2.6470 cc        1 1XM      0.367200
     11 C11         2.0680   -0.0030   -1.2300 cc        1 1XM     -0.483200
     12 H1         -0.4010    0.8390   -0.4650 hn        1 1XM      0.480133
     13 H2         -0.4020   -0.8410   -0.4610 hn        1 1XM      0.480133
     14 H3          5.1940   -0.0040    0.0910 hn        1 1XM      0.379500
     15 H4          4.9040   -0.0070   -2.8250 hn        1 1XM      0.363700
     16 H5          0.8050   -0.0030   -3.1440 h4        1 1XM      0.064100
     17 H13        -0.4490    0.0020    0.9910 hn        1 1XM      0.480133
@<TRIPOS>BOND
     1    1    2 1   
     2    1   12 1   
     3    1   13 1   
     4    1   17 1   
     5    2    3 2   
     6    2   11 1   
     7    3    4 1   
     8    4    5 2   
     9    4    6 1   
    10    6    7 1   
    11    6   14 1   
    12    7    8 1   
    13    7   11 2   
    14    8    9 1   
    15    8   15 1   
    16    9   10 2   
    17   10   11 1   
    18   10   16 1   
@<TRIPOS>SUBSTRUCTURE
     1 1XM         1 TEMP              0 ****  ****    0 ROOT
