@<TRIPOS>MOLECULE
1XN
   20    21     1     0     0
SMALL
bcc


@<TRIPOS>ATOM
      1 N1         -0.0430   -0.1920    0.1280 nh        1 1XN     -0.774600
      2 C2          1.3580   -0.0560    0.0530 cc        1 1XN      0.014900
      3 N3          2.1680   -0.0390    1.1940 na        1 1XN     -0.101500
      4 C4          3.5150    0.0070    0.8210 cc        1 1XN      0.014900
      5 N5          4.5530    0.1230    1.7670 nh        1 1XN     -0.774600
      6 C6          3.5740    0.0180   -0.6020 ca        1 1XN     -0.106000
      7 C7          4.6460    0.0620   -1.5220 ca        1 1XN     -0.095000
      8 C8          4.3650    0.0630   -2.8630 ca        1 1XN     -0.137500
      9 C9          3.0220    0.0240   -3.3410 ca        1 1XN     -0.137500
     10 C10         1.9580   -0.0170   -2.4780 ca        1 1XN     -0.095000
     11 C11         2.2090   -0.0180   -1.0870 ca        1 1XN     -0.106000
     12 H1         -0.3840   -0.5980   -0.7220 hn        1 1XN      0.373800
     13 H2         -0.4810    0.6960    0.2870 hn        1 1XN      0.373800
     14 H3          1.8370   -0.0570    2.1260 hn        1 1XN      0.305700
     15 H4          4.8050   -0.7760    2.1330 hn        1 1XN      0.373800
     16 H5          5.3480    0.5570    1.3380 hn        1 1XN      0.373800
     17 H6          5.6800    0.0930   -1.1520 ha        1 1XN      0.121000
     18 H7          5.1780    0.0950   -3.6030 ha        1 1XN      0.126000
     19 H8          2.8580    0.0280   -4.4290 ha        1 1XN      0.126000
     20 H9          0.9220   -0.0480   -2.8440 ha        1 1XN      0.121000
@<TRIPOS>BOND
     1    1    2 1   
     2    1   12 1   
     3    1   13 1   
     4    2    3 1   
     5    2   11 2   
     6    3    4 1   
     7    3   14 1   
     8    4    5 1   
     9    4    6 2   
    10    5   15 1   
    11    5   16 1   
    12    6    7 ar  
    13    6   11 ar  
    14    7    8 ar  
    15    7   17 1   
    16    8    9 ar  
    17    8   18 1   
    18    9   10 ar  
    19    9   19 1   
    20   10   11 ar  
    21   10   20 1   
@<TRIPOS>SUBSTRUCTURE
     1 1XN         1 TEMP              0 ****  ****    0 ROOT
