@<TRIPOS>MOLECULE
1XN
   22    23     1     0     0
SMALL
bcc


@<TRIPOS>ATOM
      1 N1         -0.0570    0.1340   -0.0010 n4        1 1XN     -0.678400
      2 C2          1.3910    0.0970    0.0080 cc        1 1XN     -0.079100
      3 N3          2.1790    0.1450    1.1640 na        1 1XN     -0.104500
      4 C4          3.5180    0.0870    0.7640 cc        1 1XN     -0.079100
      5 N5          4.6480    0.1120    1.6700 n4        1 1XN     -0.678400
      6 C6          3.5950    0.0020   -0.6570 ca        1 1XN     -0.006000
      7 C7          4.6700   -0.0790   -1.5700 ca        1 1XN     -0.132000
      8 C8          4.3830   -0.1500   -2.9120 ca        1 1XN     -0.041000
      9 C9          3.0370   -0.1440   -3.3900 ca        1 1XN     -0.041000
     10 C10         1.9680   -0.0660   -2.5300 ca        1 1XN     -0.132000
     11 C11         2.2270    0.0080   -1.1430 ca        1 1XN     -0.006000
     12 H1         -0.3610    0.0830   -0.9890 hn        1 1XN      0.487800
     13 H2         -0.4520   -0.6700    0.5100 hn        1 1XN      0.487800
     14 H3          1.8470    0.2080    2.0990 hn        1 1XN      0.340700
     15 H4          4.6260   -0.6930    2.3140 hn        1 1XN      0.487800
     16 H5          5.5060    0.0570    1.0950 hn        1 1XN      0.487800
     17 H6          5.7120   -0.0850   -1.2160 ha        1 1XN      0.160000
     18 H7          5.2010   -0.2140   -3.6540 ha        1 1XN      0.194000
     19 H8          2.8690   -0.2040   -4.4820 ha        1 1XN      0.194000
     20 H9          0.9360   -0.0630   -2.9130 ha        1 1XN      0.160000
     21 H13        -0.4100    1.0100    0.4110 hn        1 1XN      0.487800
     22 H53         4.6680    0.9870    2.2150 hn        1 1XN      0.487800
@<TRIPOS>BOND
     1    1    2 1   
     2    1   12 1   
     3    1   13 1   
     4    1   21 1   
     5    2    3 1   
     6    2   11 2   
     7    3    4 1   
     8    3   14 1   
     9    4    5 1   
    10    4    6 2   
    11    5   15 1   
    12    5   16 1   
    13    5   22 1   
    14    6    7 ar  
    15    6   11 ar  
    16    7    8 ar  
    17    7   17 1   
    18    8    9 ar  
    19    8   18 1   
    20    9   10 ar  
    21    9   19 1   
    22   10   11 ar  
    23   10   20 1   
@<TRIPOS>SUBSTRUCTURE
     1 1XN         1 TEMP              0 ****  ****    0 ROOT
