@<TRIPOS>MOLECULE
1XN
   20    21     1     0     0
SMALL
bcc


@<TRIPOS>ATOM
      1 N1         -0.0510    0.0570    0.1250 nv        1 1XN     -0.774600
      2 C2          1.3540   -0.0350    0.0480 cc        1 1XN      0.014900
      3 N3          2.1610   -0.0940    1.1900 na        1 1XN     -0.101500
      4 C4          3.5100   -0.0810    0.8200 cc        1 1XN      0.014900
      5 N5          4.5490   -0.2220    1.7620 nv        1 1XN     -0.774600
      6 C6          3.5720   -0.0110   -0.6000 ca        1 1XN     -0.106000
      7 C7          4.6480    0.0280   -1.5170 ca        1 1XN     -0.095000
      8 C8          4.3700    0.0950   -2.8580 ca        1 1XN     -0.137500
      9 C9          3.0280    0.1230   -3.3380 ca        1 1XN     -0.137500
     10 C10         1.9610    0.0860   -2.4790 ca        1 1XN     -0.095000
     11 C11         2.2090    0.0150   -1.0890 ca        1 1XN     -0.106000
     12 H1         -0.4640   -0.8510    0.2290 hn        1 1XN      0.373800
     13 H2         -0.4010    0.5040   -0.7000 hn        1 1XN      0.373800
     14 H3          1.8270   -0.1380    2.1200 hn        1 1XN      0.305700
     15 H4          5.3570   -0.6060    1.3120 hn        1 1XN      0.373800
     16 H5          4.7720    0.6610    2.1820 hn        1 1XN      0.373800
     17 H6          5.6820    0.0050   -1.1450 ha        1 1XN      0.121000
     18 H7          5.1860    0.1280   -3.5950 ha        1 1XN      0.126000
     19 H8          2.8670    0.1760   -4.4250 ha        1 1XN      0.126000
     20 H9          0.9260    0.1090   -2.8470 ha        1 1XN      0.121000
@<TRIPOS>BOND
     1    1    2 1   
     2    1   12 1   
     3    1   13 1   
     4    2    3 1   
     5    2   11 2   
     6    3    4 1   
     7    3   14 1   
     8    4    5 1   
     9    4    6 2   
    10    5   15 1   
    11    5   16 1   
    12    6    7 ar  
    13    6   11 ar  
    14    7    8 ar  
    15    7   17 1   
    16    8    9 ar  
    17    8   18 1   
    18    9   10 ar  
    19    9   19 1   
    20   10   11 ar  
    21   10   20 1   
@<TRIPOS>SUBSTRUCTURE
     1 1XN         1 TEMP              0 ****  ****    0 ROOT
