@<TRIPOS>MOLECULE
1XO
   50    53     1     0     0
SMALL
bcc


@<TRIPOS>ATOM
      1 S1         -0.5930    1.6620   -1.5400 ss        1 1XO      0.051200
      2 C2          0.0860    0.3770   -2.3800 cc        1 1XO     -0.164400
      3 C3          1.1530    0.8010   -3.1520 cd        1 1XO     -0.143000
      4 C5          1.3770    2.2060   -3.0220 cd        1 1XO     -0.157000
      5 C7          0.4700    2.7840   -2.1590 cc        1 1XO     -0.166100
      6 C9         -0.4280   -1.0170   -2.3530 c3        1 1XO      0.172300
      7 N12        -0.1940   -1.7980   -1.1610 n         1 1XO     -0.462800
      8 C13         1.1210   -2.3370   -0.9550 c3        1 1XO      0.062700
      9 C16         2.1310   -1.4220   -0.2320 cc        1 1XO      0.464900
     10 N17         1.7050   -0.4750    0.5800 nd        1 1XO     -0.610100
     11 C18         2.6590    0.2990    1.2540 ca        1 1XO      0.188400
     12 C19         4.0520    0.0870    1.0740 ca        1 1XO     -0.189600
     13 C20         4.9920    0.8710    1.7560 ca        1 1XO     -0.059000
     14 C22         4.5600    1.8670    2.6200 ca        1 1XO     -0.155000
     15 C24         3.1890    2.0840    2.8100 ca        1 1XO     -0.095000
     16 C26         2.2440    1.3210    2.1440 ca        1 1XO     -0.123000
     17 C28         4.4980   -0.9780    0.1580 c         1 1XO      0.710100
     18 N29         3.4800   -1.7120   -0.4730 n         1 1XO     -0.497400
     19 O31         5.6840   -1.2650   -0.0880 o         1 1XO     -0.627500
     20 C32        -1.0890   -1.7990   -0.0790 c         1 1XO      0.669100
     21 O33        -0.8340   -2.4930    0.9210 o         1 1XO     -0.583100
     22 C34        -2.3820   -1.0170   -0.1960 c3        1 1XO     -0.140400
     23 C37        -3.1360   -1.0300    1.1210 c3        1 1XO     -0.033100
     24 C40        -4.4340   -0.3110    1.0030 ca        1 1XO     -0.084300
     25 C41        -5.5150   -0.9130    0.3480 ca        1 1XO     -0.127000
     26 C43        -6.7350   -0.2480    0.2440 ca        1 1XO     -0.128000
     27 C45        -6.8860    1.0250    0.7960 ca        1 1XO     -0.130000
     28 C47        -5.8140    1.6290    1.4520 ca        1 1XO     -0.128000
     29 C49        -4.5930    0.9650    1.5550 ca        1 1XO     -0.127000
     30 H1          1.7590    0.1580   -3.7940 ha        1 1XO      0.150000
     31 H2          2.1740    2.7360   -3.5490 ha        1 1XO      0.156000
     32 H3          0.4360    3.8390   -1.8950 h4        1 1XO      0.173000
     33 H4         -1.5410   -0.9980   -2.5470 h1        1 1XO      0.060200
     34 H5          0.0460   -1.5770   -3.2170 h1        1 1XO      0.060200
     35 H6          1.0290   -3.2630   -0.3100 h1        1 1XO      0.081700
     36 H7          1.5470   -2.6250   -1.9590 h1        1 1XO      0.081700
     37 H8          6.0650    0.6800    1.5930 ha        1 1XO      0.157000
     38 H9          5.2920    2.4860    3.1590 ha        1 1XO      0.139000
     39 H10         2.8580    2.8760    3.5010 ha        1 1XO      0.135000
     40 H11         1.1690    1.4980    2.3040 ha        1 1XO      0.151000
     41 H12         3.7310   -2.4500   -1.0910 hn        1 1XO      0.332500
     42 H13        -2.1550    0.0440   -0.4910 hc        1 1XO      0.067700
     43 H14        -3.0180   -1.4760   -0.9990 hc        1 1XO      0.067700
     44 H15        -3.3150   -2.0950    1.4340 hc        1 1XO      0.069700
     45 H16        -2.4970   -0.5620    1.9170 hc        1 1XO      0.069700
     46 H17        -5.3990   -1.9190   -0.0820 ha        1 1XO      0.132000
     47 H18        -7.5800   -0.7280   -0.2700 ha        1 1XO      0.131000
     48 H19        -7.8490    1.5490    0.7150 ha        1 1XO      0.132000
     49 H20        -5.9310    2.6310    1.8910 ha        1 1XO      0.131000
     50 H21        -3.7510    1.4430    2.0780 ha        1 1XO      0.132000
@<TRIPOS>BOND
     1    1    2 1   
     2    1    5 1   
     3    2    3 2   
     4    2    6 1   
     5    3    4 1   
     6    3   30 1   
     7    4    5 2   
     8    4   31 1   
     9    5   32 1   
    10    6    7 1   
    11    6   33 1   
    12    6   34 1   
    13    7    8 1   
    14    7   20 1   
    15    8    9 1   
    16    8   35 1   
    17    8   36 1   
    18    9   10 2   
    19    9   18 1   
    20   10   11 1   
    21   11   12 ar  
    22   11   16 ar  
    23   12   13 ar  
    24   12   17 1   
    25   13   14 ar  
    26   13   37 1   
    27   14   15 ar  
    28   14   38 1   
    29   15   16 ar  
    30   15   39 1   
    31   16   40 1   
    32   17   18 1   
    33   17   19 2   
    34   18   41 1   
    35   20   21 2   
    36   20   22 1   
    37   22   23 1   
    38   22   42 1   
    39   22   43 1   
    40   23   24 1   
    41   23   44 1   
    42   23   45 1   
    43   24   25 ar  
    44   24   29 ar  
    45   25   26 ar  
    46   25   46 1   
    47   26   27 ar  
    48   26   47 1   
    49   27   28 ar  
    50   27   48 1   
    51   28   29 ar  
    52   28   49 1   
    53   29   50 1   
@<TRIPOS>SUBSTRUCTURE
     1 1XO         1 TEMP              0 ****  ****    0 ROOT
