@<TRIPOS>MOLECULE
1XO
   50    44     1     0     0
SMALL
bcc


@<TRIPOS>ATOM
      1 S1          2.7550    1.8070    2.3490 ss        1 1XO      0.532000
      2 C2          1.5180    2.6410    1.9210 c1        1 1XO     -0.421500
      3 C3          1.9250    4.0380    1.8470 c1        1 1XO     -0.144000
      4 C5          3.4680    4.1300    2.2340 c1        1 1XO     -0.144000
      5 C7          3.9460    2.7920    2.5300 c1        1 1XO     -0.421500
      6 C9          0.0790    2.1150    1.7920 c2        1 1XO      0.040000
      7 N12         0.0850    0.8630    1.0540 n         1 1XO     -0.327000
      8 C13         1.1210   -0.1240    1.3050 c3        1 1XO      0.027000
      9 C16         0.4880   -1.3930    1.9300 c2        1 1XO      0.090000
     10 N17        -0.5710   -2.0870    1.2280 n1        1 1XO     -0.185000
     11 C18        -1.0350   -3.3930    1.7020 c1        1 1XO      0.038000
     12 C19        -0.4650   -3.9620    2.8160 c2        1 1XO     -0.166000
     13 C20        -0.9450   -5.1950    3.2990 c1        1 1XO     -0.060000
     14 C22        -1.9930   -5.8340    2.6520 c1        1 1XO     -0.125000
     15 C24        -2.5710   -5.2580    1.5250 c1        1 1XO     -0.125000
     16 C26        -2.0990   -4.0430    1.0470 c1        1 1XO     -0.120000
     17 C28         0.6370   -3.2430    3.5490 c2        1 1XO      0.344000
     18 N29         1.0820   -1.9850    3.0930 n         1 1XO     -0.336000
     19 O31         1.1990   -3.7830    4.4810 o         1 1XO     -0.344000
     20 C32        -0.9440    0.6010    0.0530 c2        1 1XO      0.315000
     21 O33        -1.8140   -0.2200    0.2770 o         1 1XO     -0.360000
     22 C34        -0.9930    1.4470   -1.2470 c3        1 1XO     -0.172000
     23 C37        -1.1810    0.5170   -2.4640 c3        1 1XO     -0.128000
     24 C40        -0.8220    1.2780   -3.7490 c2        1 1XO     -0.078000
     25 C41         0.5050    1.3880   -4.1410 c2        1 1XO     -0.126000
     26 C43         0.8260    2.0030   -5.3430 c1        1 1XO     -0.129000
     27 C45        -0.1810    2.5080   -6.1540 c1        1 1XO     -0.125000
     28 C47        -1.5060    2.3980   -5.7630 c1        1 1XO     -0.125000
     29 C49        -1.8270    1.7830   -4.5600 c1        1 1XO     -0.127000
     30 H1          1.3510    4.7900    1.6010 DU        1 1XO      0.166333
     31 H2          4.0020    4.9480    2.2670 DU        1 1XO      0.166333
     32 H3          4.8530    2.5520    2.7960 DU        1 1XO      0.166333
     33 H4         -0.2960    1.9660    2.6850 h4        1 1XO      0.116500
     34 H5         -0.4680    2.7720    1.3140 h4        1 1XO      0.116500
     35 H6          1.7840    0.2480    1.9220 h1        1 1XO      0.111500
     36 H7          1.5550   -0.3580    0.4650 h1        1 1XO      0.111500
     37 H8         -0.5410   -5.5990    4.0900 ha        1 1XO      0.160000
     38 H9         -2.3260   -6.6900    2.9880 ha        1 1XO      0.136500
     39 H10        -3.3080   -5.7080    1.0700 ha        1 1XO      0.136500
     40 H11        -2.5040   -3.6400    0.2570 ha        1 1XO      0.154000
     41 H12         1.7730   -1.5660    3.5150 hn        1 1XO      0.251000
     42 H13        -0.1540    1.9440   -1.3430 hc        1 1XO      0.110500
     43 H14        -1.7430    2.0780   -1.1980 hc        1 1XO      0.110500
     44 H15        -2.1120    0.2210   -2.5080 hc        1 1XO      0.109500
     45 H16        -0.5970   -0.2600   -2.3730 hc        1 1XO      0.109500
     46 H17         1.2140    1.0330   -3.5700 ha        1 1XO      0.132000
     47 H18         1.7590    2.0800   -5.6180 ha        1 1XO      0.131000
     48 H19         0.0450    2.9420   -7.0020 ha        1 1XO      0.136500
     49 H20        -2.2150    2.7540   -6.3350 ha        1 1XO      0.136500
     50 H21        -2.7620    1.7050   -4.2850 ha        1 1XO      0.135000
@<TRIPOS>BOND
     1    1    2 1   
     2    1    5 1   
     3    2    3 1   
     4    3    4 1   
     5    4    5 1   
     6    6    7 1   
     7    6   33 1   
     8    6   34 1   
     9    7    8 1   
    10    7   20 1   
    11    8    9 1   
    12    8   35 1   
    13    8   36 1   
    14    9   10 1   
    15    9   18 1   
    16   11   12 1   
    17   11   16 1   
    18   12   13 1   
    19   12   17 1   
    20   13   37 1   
    21   14   15 1   
    22   14   38 1   
    23   15   39 1   
    24   16   40 1   
    25   17   18 1   
    26   17   19 1   
    27   18   41 1   
    28   20   21 1   
    29   20   22 1   
    30   22   23 1   
    31   22   42 1   
    32   22   43 1   
    33   23   24 1   
    34   23   44 1   
    35   23   45 1   
    36   24   25 1   
    37   24   29 1   
    38   25   26 1   
    39   25   46 1   
    40   26   47 1   
    41   27   28 1   
    42   27   48 1   
    43   28   49 1   
    44   29   50 1   
@<TRIPOS>SUBSTRUCTURE
     1 1XO         1 TEMP              0 ****  ****    0 ROOT
