@<TRIPOS>MOLECULE
1XO
   51    54     1     0     0
SMALL
bcc


@<TRIPOS>ATOM
      1 S1          0.9840    0.4900    0.0850 ss        1 1XO      0.128200
      2 C2          2.6310    0.4830   -0.2270 cc        1 1XO     -0.256400
      3 C3          3.3520    0.7980    0.9240 cd        1 1XO     -0.106000
      4 C5          2.4960    1.0150    2.0370 cd        1 1XO     -0.152000
      5 C7          1.1650    0.8690    1.6840 cc        1 1XO     -0.132100
      6 C9          3.2340    0.3270   -1.5540 c3        1 1XO      0.227100
      7 N12         3.6730   -1.0620   -1.9500 n4        1 1XO     -0.600200
      8 C13         4.3430   -1.8170   -0.8490 c3        1 1XO      0.082500
      9 C16         3.4380   -2.5550    0.1410 cc        1 1XO      0.474900
     10 N17         2.2100   -2.8780   -0.2110 nd        1 1XO     -0.650100
     11 C18         1.4320   -3.6200    0.6930 ca        1 1XO      0.164400
     12 C19         1.9450   -4.0030    1.9620 ca        1 1XO     -0.172600
     13 C20         1.1650   -4.7480    2.8530 ca        1 1XO     -0.052000
     14 C22        -0.1250   -5.1200    2.4940 ca        1 1XO     -0.126000
     15 C24        -0.6400   -4.7510    1.2470 ca        1 1XO     -0.083000
     16 C26         0.1180   -4.0090    0.3500 ca        1 1XO     -0.122000
     17 C28         3.3170   -3.6130    2.3320 c         1 1XO      0.714100
     18 N29         4.0360   -2.8800    1.3570 n         1 1XO     -0.494400
     19 O31         3.8840   -3.8660    3.4030 o         1 1XO     -0.572500
     20 C32         2.6420   -1.9240   -2.6970 c         1 1XO      0.587100
     21 O33         3.1090   -2.9620   -3.1380 o         1 1XO     -0.429100
     22 C34         1.2550   -1.3890   -2.8650 c3        1 1XO     -0.133400
     23 C37         0.3410   -2.4670   -3.4340 c3        1 1XO     -0.027100
     24 C40        -1.0230   -1.9160   -3.6560 ca        1 1XO     -0.116300
     25 C41        -1.4370   -1.5500   -4.9410 ca        1 1XO     -0.123500
     26 C43        -2.7230   -1.0530   -5.1480 ca        1 1XO     -0.121000
     27 C45        -3.6030   -0.9180   -4.0740 ca        1 1XO     -0.109000
     28 C47        -3.1950   -1.2850   -2.7900 ca        1 1XO     -0.121000
     29 C49        -1.9110   -1.7820   -2.5810 ca        1 1XO     -0.123500
     30 H1          4.4390    0.8960    0.9800 ha        1 1XO      0.156000
     31 H2          2.8560    1.2720    3.0380 ha        1 1XO      0.182000
     32 H3          0.3220    0.9950    2.3680 h4        1 1XO      0.199000
     33 H4          2.5310    0.6900   -2.3590 hx        1 1XO      0.098700
     34 H5          4.1720    0.9640   -1.5980 hx        1 1XO      0.098700
     35 H6          4.9950   -2.6060   -1.3350 hx        1 1XO      0.117200
     36 H7          4.9880   -1.0770   -0.2880 hx        1 1XO      0.117200
     37 H8          1.5900   -5.0340    3.8310 ha        1 1XO      0.174000
     38 H9         -0.7420   -5.7100    3.1900 ha        1 1XO      0.160000
     39 H10        -1.6630   -5.0560    0.9690 ha        1 1XO      0.154000
     40 H11        -0.3030   -3.7330   -0.6300 ha        1 1XO      0.147000
     41 H12         4.9750   -2.6140    1.5530 hn        1 1XO      0.342500
     42 H13         1.2850   -0.5140   -3.5710 hc        1 1XO      0.100200
     43 H14         0.8520   -1.0390   -1.8720 hc        1 1XO      0.100200
     44 H15         0.2980   -3.3330   -2.7190 hc        1 1XO      0.076200
     45 H16         0.7700   -2.8540   -4.3970 hc        1 1XO      0.076200
     46 H17        -0.7520   -1.6670   -5.7950 ha        1 1XO      0.130000
     47 H18        -3.0460   -0.7730   -6.1620 ha        1 1XO      0.145500
     48 H19        -4.6190   -0.5290   -4.2390 ha        1 1XO      0.148000
     49 H20        -3.8910   -1.1870   -1.9430 ha        1 1XO      0.145500
     50 H21        -1.5950   -2.0830   -1.5710 ha        1 1XO      0.130000
     51 H121        4.4210   -0.9120   -2.6490 hn        1 1XO      0.445800
@<TRIPOS>BOND
     1    1    2 1   
     2    1    5 1   
     3    2    3 2   
     4    2    6 1   
     5    3    4 1   
     6    3   30 1   
     7    4    5 2   
     8    4   31 1   
     9    5   32 1   
    10    6    7 1   
    11    6   33 1   
    12    6   34 1   
    13    7    8 1   
    14    7   20 1   
    15    7   51 1   
    16    8    9 1   
    17    8   35 1   
    18    8   36 1   
    19    9   10 2   
    20    9   18 1   
    21   10   11 1   
    22   11   12 ar  
    23   11   16 ar  
    24   12   13 ar  
    25   12   17 1   
    26   13   14 ar  
    27   13   37 1   
    28   14   15 ar  
    29   14   38 1   
    30   15   16 ar  
    31   15   39 1   
    32   16   40 1   
    33   17   18 1   
    34   17   19 2   
    35   18   41 1   
    36   20   21 2   
    37   20   22 1   
    38   22   23 1   
    39   22   42 1   
    40   22   43 1   
    41   23   24 1   
    42   23   44 1   
    43   23   45 1   
    44   24   25 ar  
    45   24   29 ar  
    46   25   26 ar  
    47   25   46 1   
    48   26   27 ar  
    49   26   47 1   
    50   27   28 ar  
    51   27   48 1   
    52   28   29 ar  
    53   28   49 1   
    54   29   50 1   
@<TRIPOS>SUBSTRUCTURE
     1 1XO         1 TEMP              0 ****  ****    0 ROOT
