@<TRIPOS>MOLECULE
1XO
   51    54     1     0     0
SMALL
bcc


@<TRIPOS>ATOM
      1 S1          0.9540    0.4880    0.0850 ss        1 1XO      0.128200
      2 C2          2.6040    0.4960   -0.2110 cc        1 1XO     -0.256400
      3 C3          3.3110    0.8160    0.9470 cd        1 1XO     -0.106000
      4 C5          2.4430    1.0240    2.0520 cd        1 1XO     -0.152000
      5 C7          1.1170    0.8670    1.6860 cc        1 1XO     -0.132100
      6 C9          3.2210    0.3460   -1.5330 c3        1 1XO      0.227100
      7 N12         3.6760   -1.0380   -1.9250 nx        1 1XO     -0.600200
      8 C13         4.3420   -1.7880   -0.8190 c3        1 1XO      0.082500
      9 C16         3.4350   -2.5360    0.1620 cc        1 1XO      0.474900
     10 N17         2.2130   -2.8690   -0.2020 nd        1 1XO     -0.650100
     11 C18         1.4340   -3.6190    0.6940 ca        1 1XO      0.164400
     12 C19         1.9380   -3.9980    1.9680 ca        1 1XO     -0.172600
     13 C20         1.1570   -4.7510    2.8510 ca        1 1XO     -0.052000
     14 C22        -0.1270   -5.1350    2.4790 ca        1 1XO     -0.126000
     15 C24        -0.6340   -4.7690    1.2270 ca        1 1XO     -0.083000
     16 C26         0.1260   -4.0190    0.3380 ca        1 1XO     -0.122000
     17 C28         3.3030   -3.5960    2.3500 c         1 1XO      0.714100
     18 N29         4.0240   -2.8560    1.3830 ns        1 1XO     -0.494400
     19 O31         3.8620   -3.8450    3.4270 o         1 1XO     -0.572500
     20 C32         2.6600   -1.9090   -2.6830 c         1 1XO      0.587100
     21 O33         3.1400   -2.9420   -3.1200 o         1 1XO     -0.429100
     22 C34         1.2690   -1.3870   -2.8630 c3        1 1XO     -0.133400
     23 C37         0.3700   -2.4720   -3.4420 c3        1 1XO     -0.027100
     24 C40        -0.9960   -1.9320   -3.6760 ca        1 1XO     -0.116300
     25 C41        -1.4010   -1.5690   -4.9650 ca        1 1XO     -0.123500
     26 C43        -2.6900   -1.0830   -5.1830 ca        1 1XO     -0.121000
     27 C45        -3.5810   -0.9570   -4.1170 ca        1 1XO     -0.109000
     28 C47        -3.1820   -1.3220   -2.8300 ca        1 1XO     -0.121000
     29 C49        -1.8950   -1.8080   -2.6100 ca        1 1XO     -0.123500
     30 H1          4.3970    0.9230    1.0130 ha        1 1XO      0.156000
     31 H2          2.7920    1.2830    3.0560 ha        1 1XO      0.182000
     32 H3          0.2660    0.9840    2.3630 h4        1 1XO      0.199000
     33 H4          2.5220    0.7040   -2.3440 hx        1 1XO      0.098700
     34 H5          4.1530    0.9910   -1.5670 hx        1 1XO      0.098700
     35 H6          5.0060   -2.5710   -1.3000 hx        1 1XO      0.117200
     36 H7          4.9750   -1.0430   -0.2510 hx        1 1XO      0.117200
     37 H8          1.5750   -5.0340    3.8330 ha        1 1XO      0.174000
     38 H9         -0.7450   -5.7310    3.1690 ha        1 1XO      0.160000
     39 H10        -1.6510   -5.0830    0.9400 ha        1 1XO      0.154000
     40 H11        -0.2880   -3.7470   -0.6450 ha        1 1XO      0.147000
     41 H12         4.9590   -2.5820    1.5880 hn        1 1XO      0.342500
     42 H13         1.2980   -0.5100   -3.5680 hc        1 1XO      0.100200
     43 H14         0.8540   -1.0410   -1.8740 hc        1 1XO      0.100200
     44 H15         0.3290   -3.3390   -2.7280 hc        1 1XO      0.076200
     45 H16         0.8130   -2.8540   -4.4020 hc        1 1XO      0.076200
     46 H17        -0.7080   -1.6790   -5.8120 ha        1 1XO      0.130000
     47 H18        -3.0050   -0.8040   -6.2000 ha        1 1XO      0.145500
     48 H19        -4.5990   -0.5770   -4.2910 ha        1 1XO      0.148000
     49 H20        -3.8870   -1.2320   -1.9900 ha        1 1XO      0.145500
     50 H21        -1.5870   -2.1080   -1.5970 ha        1 1XO      0.130000
     51 H121        4.4290   -0.8810   -2.6170 hn        1 1XO      0.445800
@<TRIPOS>BOND
     1    1    2 1   
     2    1    5 1   
     3    2    3 2   
     4    2    6 1   
     5    3    4 1   
     6    3   30 1   
     7    4    5 2   
     8    4   31 1   
     9    5   32 1   
    10    6    7 1   
    11    6   33 1   
    12    6   34 1   
    13    7    8 1   
    14    7   20 1   
    15    7   51 1   
    16    8    9 1   
    17    8   35 1   
    18    8   36 1   
    19    9   10 2   
    20    9   18 1   
    21   10   11 1   
    22   11   12 ar  
    23   11   16 ar  
    24   12   13 ar  
    25   12   17 1   
    26   13   14 ar  
    27   13   37 1   
    28   14   15 ar  
    29   14   38 1   
    30   15   16 ar  
    31   15   39 1   
    32   16   40 1   
    33   17   18 1   
    34   17   19 2   
    35   18   41 1   
    36   20   21 2   
    37   20   22 1   
    38   22   23 1   
    39   22   42 1   
    40   22   43 1   
    41   23   24 1   
    42   23   44 1   
    43   23   45 1   
    44   24   25 ar  
    45   24   29 ar  
    46   25   26 ar  
    47   25   46 1   
    48   26   27 ar  
    49   26   47 1   
    50   27   28 ar  
    51   27   48 1   
    52   28   29 ar  
    53   28   49 1   
    54   29   50 1   
@<TRIPOS>SUBSTRUCTURE
     1 1XO         1 TEMP              0 ****  ****    0 ROOT
