@<TRIPOS>MOLECULE
1XO
   51    54     1     0     0
SMALL
bcc


@<TRIPOS>ATOM
      1 S1          0.9190    0.4730    0.1130 ss        1 1XO      0.128200
      2 C2          2.5700    0.5070   -0.1780 cc        1 1XO     -0.256400
      3 C3          3.2690    0.8220    0.9870 cd        1 1XO     -0.106000
      4 C5          2.3940    1.0050    2.0920 cd        1 1XO     -0.152000
      5 C7          1.0710    0.8340    1.7190 cc        1 1XO     -0.132100
      6 C9          3.1940    0.3810   -1.4980 c3        1 1XO      0.227100
      7 N12         3.6680   -0.9920   -1.9060 n4        1 1XO     -0.600200
      8 C13         4.3410   -1.7460   -0.8070 c3        1 1XO      0.082500
      9 C16         3.4400   -2.5180    0.1620 cc        1 1XO      0.474900
     10 N17         2.2240   -2.8620   -0.2110 nd        1 1XO     -0.650100
     11 C18         1.4520   -3.6330    0.6740 ca        1 1XO      0.164400
     12 C19         1.9570   -4.0210    1.9450 ca        1 1XO     -0.172600
     13 C20         1.1830   -4.7950    2.8160 ca        1 1XO     -0.052000
     14 C22        -0.0940   -5.1910    2.4350 ca        1 1XO     -0.126000
     15 C24        -0.6010   -4.8170    1.1860 ca        1 1XO     -0.083000
     16 C26         0.1510   -4.0470    0.3080 ca        1 1XO     -0.122000
     17 C28         3.3160   -3.6060    2.3370 c         1 1XO      0.714100
     18 N29         4.0300   -2.8440    1.3810 n         1 1XO     -0.494400
     19 O31         3.8750   -3.8600    3.4120 o         1 1XO     -0.572500
     20 C32         2.6670   -1.8660   -2.6780 c         1 1XO      0.587100
     21 O33         3.1630   -2.8880   -3.1260 o         1 1XO     -0.429100
     22 C34         1.2700   -1.3610   -2.8570 c3        1 1XO     -0.133400
     23 C37         0.3880   -2.4510   -3.4530 c3        1 1XO     -0.027100
     24 C40        -0.9850   -1.9260   -3.6850 ca        1 1XO     -0.116300
     25 C41        -1.3900   -1.5520   -4.9710 ca        1 1XO     -0.123500
     26 C43        -2.6840   -1.0800   -5.1880 ca        1 1XO     -0.121000
     27 C45        -3.5810   -0.9800   -4.1240 ca        1 1XO     -0.109000
     28 C47        -3.1820   -1.3560   -2.8400 ca        1 1XO     -0.121000
     29 C49        -1.8890   -1.8290   -2.6210 ca        1 1XO     -0.123500
     30 H1          4.3530    0.9430    1.0580 ha        1 1XO      0.156000
     31 H2          2.7360    1.2560    3.1000 ha        1 1XO      0.182000
     32 H3          0.2170    0.9320    2.3940 h4        1 1XO      0.199000
     33 H4          4.1170    1.0400   -1.5210 hx        1 1XO      0.098700
     34 H5          2.4930    0.7400   -2.3080 hx        1 1XO      0.098700
     35 H6          5.0170   -2.5140   -1.2950 hx        1 1XO      0.117200
     36 H7          4.9620   -1.0000   -0.2280 hx        1 1XO      0.117200
     37 H8          1.6010   -5.0840    3.7960 ha        1 1XO      0.174000
     38 H9         -0.7060   -5.8040    3.1160 ha        1 1XO      0.160000
     39 H10        -1.6130   -5.1420    0.8910 ha        1 1XO      0.154000
     40 H11        -0.2630   -3.7680   -0.6730 ha        1 1XO      0.147000
     41 H12         4.9610   -2.5600    1.5930 hn        1 1XO      0.342500
     42 H13         0.8470   -1.0330   -1.8650 hc        1 1XO      0.100200
     43 H14         1.2900   -0.4750   -3.5510 hc        1 1XO      0.100200
     44 H15         0.3550   -3.3270   -2.7490 hc        1 1XO      0.076200
     45 H16         0.8380   -2.8150   -4.4150 hc        1 1XO      0.076200
     46 H17        -0.6920   -1.6400   -5.8170 ha        1 1XO      0.129500
     47 H18        -2.9990   -0.7920   -6.2020 ha        1 1XO      0.145500
     48 H19        -4.6030   -0.6120   -4.2970 ha        1 1XO      0.148000
     49 H20        -3.8910   -1.2870   -2.0020 ha        1 1XO      0.145500
     50 H21        -1.5810   -2.1370   -1.6110 ha        1 1XO      0.129500
     51 H121        4.4220   -0.8160   -2.5940 hn        1 1XO      0.445800
@<TRIPOS>BOND
     1    1    2 1   
     2    1    5 1   
     3    2    3 2   
     4    2    6 1   
     5    3    4 1   
     6    3   30 1   
     7    4    5 2   
     8    4   31 1   
     9    5   32 1   
    10    6    7 1   
    11    6   33 1   
    12    6   34 1   
    13    7    8 1   
    14    7   20 1   
    15    7   51 1   
    16    8    9 1   
    17    8   35 1   
    18    8   36 1   
    19    9   10 2   
    20    9   18 1   
    21   10   11 1   
    22   11   12 ar  
    23   11   16 ar  
    24   12   13 ar  
    25   12   17 1   
    26   13   14 ar  
    27   13   37 1   
    28   14   15 ar  
    29   14   38 1   
    30   15   16 ar  
    31   15   39 1   
    32   16   40 1   
    33   17   18 1   
    34   17   19 2   
    35   18   41 1   
    36   20   21 2   
    37   20   22 1   
    38   22   23 1   
    39   22   42 1   
    40   22   43 1   
    41   23   24 1   
    42   23   44 1   
    43   23   45 1   
    44   24   25 ar  
    45   24   29 ar  
    46   25   26 ar  
    47   25   46 1   
    48   26   27 ar  
    49   26   47 1   
    50   27   28 ar  
    51   27   48 1   
    52   28   29 ar  
    53   28   49 1   
    54   29   50 1   
@<TRIPOS>SUBSTRUCTURE
     1 1XO         1 TEMP              0 ****  ****    0 ROOT
