@<TRIPOS>MOLECULE
1XP
   55    57     1     0     0
SMALL
bcc


@<TRIPOS>ATOM
      1 C1          0.0580    0.1440   -0.4190 ca        1 1XP     -0.263600
      2 C2          1.3760    0.1690    0.1030 ca        1 1XP      0.247100
      3 C3         -0.9630    0.8220    0.2630 ca        1 1XP     -0.022000
      4 C4         -0.1830   -0.5290   -1.6910 c         1 1XP      0.596700
      5 C5          1.6510    0.8710    1.2890 ca        1 1XP     -0.217000
      6 O1          2.3000   -0.5460   -0.5990 os        1 1XP     -0.317900
      7 C6         -0.6940    1.5150    1.4400 ca        1 1XP     -0.027000
      8 N1         -1.4370   -1.4030   -1.7290 n4        1 1XP     -0.682800
      9 O2          0.4720   -0.5270   -2.7190 o         1 1XP     -0.392100
     10 C7          0.6270    1.5420    1.9540 ca        1 1XP      0.135400
     11 C8          3.6640   -0.4680   -0.1660 c3        1 1XP      0.107700
     12 C9         -1.7480    2.1920    2.1080 cg        1 1XP      0.197800
     13 C10        -2.4850   -0.8100   -2.6060 c3        1 1XP      0.083800
     14 CL1         0.9730    2.3810    3.3700 cl        1 1XP      0.016600
     15 N2         -2.6140    2.7450    2.6530 n1        1 1XP     -0.278800
     16 C11        -3.7140   -1.7460   -2.7620 c3        1 1XP      0.175800
     17 N3         -4.7310   -1.0670   -3.5300 n3        1 1XP     -0.755600
     18 C12        -6.0690   -1.1670   -2.9640 c3        1 1XP      0.180300
     19 C13        -4.6740   -1.3570   -4.9570 c3        1 1XP      0.180300
     20 C14        -7.0990   -0.3440   -3.7350 c3        1 1XP     -0.073900
     21 C15        -5.6730   -0.5390   -5.7690 c3        1 1XP     -0.073900
     22 C16        -7.0830   -0.6880   -5.2170 c3        1 1XP     -0.161700
     23 C17        -8.0280    0.2380   -5.9610 c         1 1XP      0.583700
     24 C18        -9.3470   -0.2980   -6.3490 ca        1 1XP     -0.196600
     25 O3         -7.6860    1.3930   -6.2420 o         1 1XP     -0.521100
     26 C19        -9.9950    0.2580   -7.4630 ca        1 1XP     -0.058500
     27 C20        -9.9720   -1.3250   -5.6310 ca        1 1XP     -0.058500
     28 C21       -11.2360   -0.2150   -7.8720 ca        1 1XP     -0.177500
     29 C22       -11.2170   -1.8060   -6.0190 ca        1 1XP     -0.177500
     30 C23       -11.8530   -1.2540   -7.1490 ca        1 1XP      0.164900
     31 F1        -13.0600   -1.7220   -7.5360 f         1 1XP     -0.124900
     32 H1         -1.9900    0.8400   -0.1410 ha        1 1XP      0.151000
     33 H2          2.6770    0.8970    1.6910 ha        1 1XP      0.187000
     34 H3         -1.1790   -2.3260   -2.0980 hn        1 1XP      0.454300
     35 H4          4.0170    0.5910   -0.1820 h1        1 1XP      0.073033
     36 H5          4.2010   -1.0810   -0.9370 h1        1 1XP      0.073033
     37 H6          3.7710   -0.9180    0.8500 h1        1 1XP      0.073033
     38 H7         -2.0200   -0.6140   -3.6160 hx        1 1XP      0.116200
     39 H8         -2.8010    0.1750   -2.1580 hx        1 1XP      0.116200
     40 H9         -3.3700   -2.7030   -3.2540 h1        1 1XP      0.050200
     41 H10        -4.1040   -2.0070   -1.7370 h1        1 1XP      0.050200
     42 H12        -6.4150   -2.2430   -2.9320 h1        1 1XP      0.036200
     43 H13        -6.0280   -0.7840   -1.9050 h1        1 1XP      0.036200
     44 H14        -3.6340   -1.1140   -5.3140 h1        1 1XP      0.036200
     45 H15        -4.8570   -2.4550   -5.1530 h1        1 1XP      0.036200
     46 H16        -8.1100   -0.5560   -3.3000 hc        1 1XP      0.071200
     47 H17        -6.8890    0.7510   -3.6080 hc        1 1XP      0.071200
     48 H18        -5.6380   -0.8970   -6.8310 hc        1 1XP      0.071200
     49 H19        -5.3860    0.5460   -5.7630 hc        1 1XP      0.071200
     50 H20        -7.4140   -1.7540   -5.3570 hc        1 1XP      0.068700
     51 H21        -9.5090    1.0830   -8.0110 ha        1 1XP      0.147000
     52 H22        -9.4890   -1.7540   -4.7390 ha        1 1XP      0.147000
     53 H23       -11.7430    0.2160   -8.7480 ha        1 1XP      0.160000
     54 H24       -11.7130   -2.6090   -5.4550 ha        1 1XP      0.160000
     55 H121       -1.8030   -1.5230   -0.7800 hn        1 1XP      0.454300
@<TRIPOS>BOND
     1    1    2 ar  
     2    1    3 ar  
     3    1    4 1   
     4    2    5 ar  
     5    2    6 1   
     6    3    7 ar  
     7    3   32 1   
     8    4    8 1   
     9    4    9 2   
    10    5   10 ar  
    11    5   33 1   
    12    6   11 1   
    13    7   10 ar  
    14    7   12 1   
    15    8   13 1   
    16    8   34 1   
    17    8   55 1   
    18   10   14 1   
    19   11   35 1   
    20   11   36 1   
    21   11   37 1   
    22   12   15 3   
    23   13   16 1   
    24   13   38 1   
    25   13   39 1   
    26   16   17 1   
    27   16   40 1   
    28   16   41 1   
    29   17   18 1   
    30   17   19 1   
    31   18   20 1   
    32   18   42 1   
    33   18   43 1   
    34   19   21 1   
    35   19   44 1   
    36   19   45 1   
    37   20   22 1   
    38   20   46 1   
    39   20   47 1   
    40   21   22 1   
    41   21   48 1   
    42   21   49 1   
    43   22   23 1   
    44   22   50 1   
    45   23   24 1   
    46   23   25 2   
    47   24   26 ar  
    48   24   27 ar  
    49   26   28 ar  
    50   26   51 1   
    51   27   29 ar  
    52   27   52 1   
    53   28   30 ar  
    54   28   53 1   
    55   29   30 ar  
    56   29   54 1   
    57   30   31 1   
@<TRIPOS>SUBSTRUCTURE
     1 1XP         1 TEMP              0 ****  ****    0 ROOT
