@<TRIPOS>MOLECULE
1XP
   55    56     1     0     0
SMALL
bcc


@<TRIPOS>ATOM
      1 C1         -0.7260   -0.0830   -0.0570 ca        1 1XP     -0.207600
      2 C2          0.5930   -0.5750   -0.1740 ca        1 1XP      0.200100
      3 C3         -1.2930    0.0250    1.2190 ca        1 1XP     -0.001000
      4 C4         -1.5510    0.3860   -1.1970 c         1 1XP      0.700700
      5 C5          1.3080   -0.9700    0.9670 ca        1 1XP     -0.216000
      6 O1          1.1210   -0.6370   -1.4420 os        1 1XP     -0.353900
      7 C6         -0.5940   -0.3760    2.3600 ca        1 1XP     -0.042000
      8 N1         -1.4980   -0.3030   -2.4040 ns        1 1XP     -0.552900
      9 O2         -2.3820    1.3150   -1.0520 o         1 1XP     -0.671100
     10 C7          0.7170   -0.8780    2.2280 ca        1 1XP      0.116400
     11 C8          2.5020   -0.9910   -1.5560 c3        1 1XP      0.111700
     12 C9         -1.2140   -0.2660    3.6320 cg        1 1XP      0.215800
     13 C10        -1.8800    0.2890   -3.6570 c3        1 1XP      0.077000
     14 Cl1         1.5920   -1.3700    3.5840 cl        1 1XP     -0.014400
     15 N2         -1.7300   -0.1740    4.6710 n1        1 1XP     -0.309800
     16 C11        -3.1940    1.0940   -3.6700 c3        1 1XP     -0.037700
     17 N3         -4.3430    0.4250   -3.0480 nh        1 1XP     -0.057100
     18 C12        -4.8920    0.8920   -1.9660 c2        1 1XP      0.382100
     19 C13        -4.8250   -0.8040   -3.6980 c3        1 1XP     -0.029700
     20 C14        -7.5150    0.6980   -4.2850 c3        1 1XP     -0.094100
     21 C15        -5.4940   -0.6030   -5.0540 c3        1 1XP     -0.098400
     22 C16        -7.0140   -0.5460   -4.9870 c3        1 1XP     -0.170700
     23 C17        -7.5600   -0.5640   -6.4100 c         1 1XP      0.587700
     24 C18        -8.8690   -1.1890   -6.6480 ca        1 1XP     -0.206600
     25 O3         -6.8880   -0.0680   -7.3240 o         1 1XP     -0.530100
     26 C19        -9.2470   -1.4430   -7.9780 ca        1 1XP     -0.053000
     27 C20        -9.7490   -1.5280   -5.6120 ca        1 1XP     -0.053000
     28 C21       -10.4690   -2.0350   -8.2720 ca        1 1XP     -0.178500
     29 C22       -10.9770   -2.1170   -5.8850 ca        1 1XP     -0.178500
     30 C23       -11.3420   -2.3770   -7.2210 ca        1 1XP      0.177900
     31 F1        -12.5320   -2.9540   -7.4920 f         1 1XP     -0.117900
     32 H1         -2.3090    0.4450    1.3190 ha        1 1XP      0.166000
     33 H2          2.3370   -1.3540    0.8790 ha        1 1XP      0.174000
     34 H3         -4.4970    1.8100   -1.4700 h4        1 1XP      0.075800
     35 H4          2.6600   -2.0440   -1.2200 h1        1 1XP      0.064033
     36 H5          3.1380   -0.2810   -0.9730 h1        1 1XP      0.064033
     37 H6          2.6980   -0.8890   -2.6550 h1        1 1XP      0.064033
     38 H7         -1.0910    1.0170   -4.0190 h1        1 1XP      0.074200
     39 H8         -1.9480   -0.5480   -4.4120 h1        1 1XP      0.074200
     40 H9         -3.0220    2.0790   -3.1410 h1        1 1XP      0.114200
     41 H10        -3.4600    1.2970   -4.7490 h1        1 1XP      0.114200
     42 H12        -7.1900    0.7010   -3.2160 hc        1 1XP      0.045033
     43 H13        -5.7550    0.3750   -1.4970 h4        1 1XP      0.075800
     44 H14        -3.9160   -1.4640   -3.8270 h1        1 1XP      0.096700
     45 H15        -5.5390   -1.3250   -2.9970 h1        1 1XP      0.096700
     46 H16        -7.1260    1.6180   -4.7860 hc        1 1XP      0.045033
     47 H17        -8.6330    0.7340   -4.3090 hc        1 1XP      0.045033
     48 H18        -5.1190    0.3130   -5.5860 hc        1 1XP      0.088200
     49 H19        -5.2050   -1.4820   -5.6950 hc        1 1XP      0.088200
     50 H20        -7.3850   -1.4610   -4.4450 hc        1 1XP      0.074700
     51 H21        -8.5600   -1.1620   -8.7950 ha        1 1XP      0.147500
     52 H22        -9.4860   -1.3230   -4.5620 ha        1 1XP      0.147500
     53 H23       -10.7620   -2.2360   -9.3140 ha        1 1XP      0.165000
     54 H24       -11.6700   -2.3810   -5.0720 ha        1 1XP      0.165000
     55 H121       -0.7640   -0.9800   -2.4920 hn        1 1XP      0.337500
@<TRIPOS>BOND
     1    1    2 ar  
     2    1    3 ar  
     3    1    4 1   
     4    2    5 ar  
     5    2    6 1   
     6    3    7 ar  
     7    3   32 1   
     8    4    8 1   
     9    4    9 2   
    10    5   10 ar  
    11    5   33 1   
    12    6   11 1   
    13    7   10 ar  
    14    7   12 1   
    15    8   13 1   
    16    8   55 1   
    17   10   14 1   
    18   11   35 1   
    19   11   36 1   
    20   11   37 1   
    21   12   15 3   
    22   13   16 1   
    23   13   38 1   
    24   13   39 1   
    25   16   17 1   
    26   16   40 1   
    27   16   41 1   
    28   17   18 2   
    29   17   19 1   
    30   18   34 1   
    31   18   43 1   
    32   19   21 1   
    33   19   44 1   
    34   19   45 1   
    35   20   22 1   
    36   20   42 1   
    37   20   46 1   
    38   20   47 1   
    39   21   22 1   
    40   21   48 1   
    41   21   49 1   
    42   22   23 1   
    43   22   50 1   
    44   23   24 1   
    45   23   25 2   
    46   24   26 ar  
    47   24   27 ar  
    48   26   28 ar  
    49   26   51 1   
    50   27   29 ar  
    51   27   52 1   
    52   28   30 ar  
    53   28   53 1   
    54   29   30 ar  
    55   29   54 1   
    56   30   31 1   
@<TRIPOS>SUBSTRUCTURE
     1 1XP         1 TEMP              0 ****  ****    0 ROOT
