@<TRIPOS>MOLECULE
1XP
   54    48     1     0     0
SMALL
bcc


@<TRIPOS>ATOM
      1 C1          2.8250    2.5710    3.7550 c1        1 1XP     -0.154000
      2 C2          3.1580    3.8570    4.2240 c1        1 1XP      0.128000
      3 C3          2.8450    1.4760    4.6330 c1        1 1XP     -0.006000
      4 C4          2.5590    2.3420    2.2140 c1        1 1XP      0.357000
      5 C5          3.5080    4.0400    5.5610 c1        1 1XP     -0.201000
      6 O1          3.2460    4.9060    3.3410 o         1 1XP     -0.214000
      7 C6          3.1980    1.6620    5.9790 c1        1 1XP     -0.049000
      8 N1          2.2200    1.0480    1.7380 n2        1 1XP     -0.367000
      9 O2          2.7870    3.2490    1.4130 o         1 1XP     -0.371000
     10 C7          3.5280    2.9370    6.4440 c1        1 1XP      0.022000
     11 C8          2.5080    6.0260    3.7220 c3        1 1XP     -0.078000
     12 C9          3.0160    0.4760    6.9380 c1        1 1XP     -0.094000
     13 C10         1.8360    0.8690    0.3750 c3        1 1XP     -0.028000
     14 CL1         3.7510    3.2600    8.1680 cl        1 1XP      0.025000
     15 N2          2.8780   -0.4210    7.6610 n1        1 1XP     -0.018000
     16 C11         1.0780   -0.4790    0.2170 c3        1 1XP     -0.086000
     17 N3          0.3360   -0.4630   -1.0160 n3        1 1XP     -0.255000
     18 C12        -1.0890   -0.4900   -0.7170 c3        1 1XP     -0.067500
     19 C13         0.7710   -1.5510   -1.8540 c3        1 1XP     -0.067500
     20 C14        -1.9580   -0.6080   -1.9610 c3        1 1XP     -0.150500
     21 C15        -0.0660   -1.6920   -3.1280 c3        1 1XP     -0.150500
     22 C16        -1.5670   -1.7710   -2.8480 c3        1 1XP     -0.148000
     23 C17        -2.4240   -1.8350   -4.1750 c2        1 1XP      0.272000
     24 C18        -3.5220   -2.8690   -4.3170 c2        1 1XP     -0.166000
     25 O3         -2.1730   -1.0770   -5.1070 o         1 1XP     -0.286000
     26 C19        -4.7430   -2.3420   -4.6440 c2        1 1XP     -0.054000
     27 C20        -3.3070   -4.2520   -4.4200 c1        1 1XP     -0.069000
     28 C21        -5.7740   -3.1860   -5.0800 c1        1 1XP     -0.178000
     29 C22        -4.3340   -5.0890   -4.8540 c1        1 1XP     -0.201000
     30 C23        -5.5550   -4.5630   -5.1810 c1        1 1XP      0.128000
     31 F1         -6.5860   -5.3850   -5.4360 f         1 1XP     -0.100000
     32 H1          2.6080    0.5610    4.2980 ha        1 1XP      0.178000
     33 H2          3.7470    4.9600    5.8990 ha        1 1XP      0.157500
     34 H3          2.3050    0.3260    2.2830 hn        1 1XP      0.236000
     35 H4          1.5380    5.8650    3.5370 h1        1 1XP      0.094333
     36 H5          2.6430    6.1990    4.7280 h1        1 1XP      0.094333
     37 H6          2.8110    6.8040    3.2150 h1        1 1XP      0.094333
     38 H7          1.2570    1.5980    0.1030 h1        1 1XP      0.107500
     39 H8          2.6010    0.8610   -0.1640 h1        1 1XP      0.107500
     40 H9          1.7160   -1.2090    0.2030 h1        1 1XP      0.076500
     41 H10         0.4330   -0.6050    1.0000 h1        1 1XP      0.076500
     42 H12        -1.2780   -1.2820   -0.1090 h1        1 1XP      0.073500
     43 H13        -1.3380    0.3630   -0.2280 h1        1 1XP      0.073500
     44 H14         1.6710   -1.4030   -2.1000 h1        1 1XP      0.073500
     45 H15         0.7180   -2.3520   -1.3640 h1        1 1XP      0.073500
     46 H16        -2.8130   -0.7140   -1.7060 hc        1 1XP      0.099000
     47 H17        -1.8820    0.2360   -2.4860 hc        1 1XP      0.099000
     48 H18         0.1130   -0.8910   -3.7300 hc        1 1XP      0.099000
     49 H19         0.2080   -2.5050   -3.5950 hc        1 1XP      0.099000
     50 H20        -1.8060   -2.6310   -2.4230 hc        1 1XP      0.103000
     51 H21        -4.9030   -1.3300   -4.5690 ha        1 1XP      0.159000
     52 H22        -2.4560   -4.6220   -4.1920 ha        1 1XP      0.141000
     53 H23        -6.6630   -2.8050   -5.3180 ha        1 1XP      0.155000
     54 H24        -4.1800   -6.0720   -4.9260 ha        1 1XP      0.157500
@<TRIPOS>BOND
     1    1    3 1   
     2    1    4 1   
     3    2    5 1   
     4    3   32 1   
     5    4    9 1   
     6    5   33 1   
     7    6   11 1   
     8    7   10 1   
     9    7   12 1   
    10    8   13 1   
    11    8   34 1   
    12   10   14 1   
    13   11   35 1   
    14   11   36 1   
    15   11   37 1   
    16   12   15 1   
    17   13   16 1   
    18   13   38 1   
    19   13   39 1   
    20   16   17 1   
    21   16   40 1   
    22   16   41 1   
    23   17   18 1   
    24   17   19 1   
    25   18   20 1   
    26   18   42 1   
    27   18   43 1   
    28   19   21 1   
    29   19   44 1   
    30   19   45 1   
    31   20   22 1   
    32   20   46 1   
    33   20   47 1   
    34   21   22 1   
    35   21   48 1   
    36   21   49 1   
    37   22   23 1   
    38   22   50 1   
    39   23   24 1   
    40   23   25 1   
    41   24   26 1   
    42   24   27 1   
    43   26   28 1   
    44   26   51 1   
    45   27   52 1   
    46   28   53 1   
    47   29   30 1   
    48   29   54 1   
@<TRIPOS>SUBSTRUCTURE
     1 1XP         1 TEMP              0 ****  ****    0 ROOT
