@<TRIPOS>MOLECULE
1XP
   54    56     1     0     0
SMALL
bcc


@<TRIPOS>ATOM
      1 C1          4.5000    0.0470    0.6870 ca        1 1XP     -0.174600
      2 C2          5.3290   -0.6740   -0.1980 ca        1 1XP      0.185100
      3 C3          5.0270    1.1620    1.3450 ca        1 1XP     -0.006000
      4 C4          3.0880   -0.3140    1.0180 c         1 1XP      0.683700
      5 C5          6.6540   -0.2700   -0.4230 ca        1 1XP     -0.222000
      6 O1          4.7710   -1.7700   -0.8170 os        1 1XP     -0.330900
      7 C6          6.3450    1.5810    1.1220 ca        1 1XP     -0.053000
      8 N1          2.2750   -0.7650    0.0030 n         1 1XP     -0.557900
      9 O2          2.6550   -0.1550    2.1790 o         1 1XP     -0.610100
     10 C7          7.1560    0.8560    0.2310 ca        1 1XP      0.100400
     11 C8          5.6480   -2.6030   -1.5720 c3        1 1XP      0.111700
     12 C9          6.8410    2.7250    1.8010 cg        1 1XP      0.235800
     13 C10         0.9090   -1.1520    0.2190 c3        1 1XP      0.088000
     14 CL1         8.7550    1.3300   -0.0650 cl        1 1XP     -0.053400
     15 N2          7.2420    3.6640    2.3580 n1        1 1XP     -0.343800
     16 C11        -0.0940   -0.1630   -0.4240 c3        1 1XP      0.150800
     17 N3         -1.4470   -0.7000   -0.4770 n3        1 1XP     -0.729600
     18 C12        -2.2980    0.0950   -1.3530 c3        1 1XP      0.169300
     19 C13        -2.0260   -0.8970    0.8460 c3        1 1XP      0.169300
     20 C14        -3.7320   -0.4230   -1.4400 c3        1 1XP     -0.071900
     21 C15        -3.4560   -1.4290    0.8140 c3        1 1XP     -0.071900
     22 C16        -4.3440   -0.5470   -0.0520 c3        1 1XP     -0.158700
     23 C17        -5.7350   -1.1340   -0.1530 c         1 1XP      0.581700
     24 C18        -6.8770   -0.1970   -0.0480 ca        1 1XP     -0.186600
     25 O3         -5.9170   -2.3480   -0.3000 o         1 1XP     -0.525100
     26 C19        -8.0950   -0.6760    0.4560 ca        1 1XP     -0.061500
     27 C20        -6.7760    1.1400   -0.4480 ca        1 1XP     -0.061500
     28 C21        -9.1940    0.1660    0.5790 ca        1 1XP     -0.179000
     29 C22        -7.8660    1.9960   -0.3410 ca        1 1XP     -0.179000
     30 C23        -9.0800    1.5110    0.1800 ca        1 1XP      0.150900
     31 F1        -10.1430    2.3410    0.2940 f         1 1XP     -0.134900
     32 H1          4.3870    1.7070    2.0620 ha        1 1XP      0.178000
     33 H2          7.3030   -0.8310   -1.1110 ha        1 1XP      0.162000
     34 H3          2.6670   -0.9380   -0.8920 hn        1 1XP      0.322500
     35 H4          6.0310   -2.0540   -2.4660 h1        1 1XP      0.055033
     36 H5          6.4910   -2.9680   -0.9370 h1        1 1XP      0.055033
     37 H6          4.9870   -3.4520   -1.8810 h1        1 1XP      0.055033
     38 H7          0.7530   -2.1790   -0.2190 h1        1 1XP      0.068200
     39 H8          0.7160   -1.2030    1.3290 h1        1 1XP      0.068200
     40 H9         -0.0500    0.8120    0.1440 h1        1 1XP      0.037200
     41 H10         0.2270    0.0470   -1.4840 h1        1 1XP      0.037200
     42 H12        -2.3290    1.1780   -1.0280 h1        1 1XP      0.034200
     43 H13        -1.8470    0.0620   -2.3850 h1        1 1XP      0.034200
     44 H14        -1.3840   -1.6500    1.3850 h1        1 1XP      0.034200
     45 H15        -2.0110    0.0590    1.4490 h1        1 1XP      0.034200
     46 H16        -4.3290    0.2900   -2.0650 hc        1 1XP      0.059700
     47 H17        -3.7490   -1.4250   -1.9430 hc        1 1XP      0.059700
     48 H18        -3.4730   -2.4770    0.4130 hc        1 1XP      0.059700
     49 H19        -3.8490   -1.4550    1.8620 hc        1 1XP      0.059700
     50 H20        -4.4040    0.4730    0.4200 hc        1 1XP      0.063700
     51 H21        -8.1750   -1.7370    0.7490 ha        1 1XP      0.150000
     52 H22        -5.8310    1.5240   -0.8650 ha        1 1XP      0.150000
     53 H23       -10.1480   -0.2060    0.9790 ha        1 1XP      0.154000
     54 H24        -7.7900    3.0460   -0.6580 ha        1 1XP      0.154000
@<TRIPOS>BOND
     1    1    2 ar  
     2    1    3 ar  
     3    1    4 1   
     4    2    5 ar  
     5    2    6 1   
     6    3    7 ar  
     7    3   32 1   
     8    4    8 1   
     9    4    9 2   
    10    5   10 ar  
    11    5   33 1   
    12    6   11 1   
    13    7   10 ar  
    14    7   12 1   
    15    8   13 1   
    16    8   34 1   
    17   10   14 1   
    18   11   35 1   
    19   11   36 1   
    20   11   37 1   
    21   12   15 3   
    22   13   16 1   
    23   13   38 1   
    24   13   39 1   
    25   16   17 1   
    26   16   40 1   
    27   16   41 1   
    28   17   18 1   
    29   17   19 1   
    30   18   20 1   
    31   18   42 1   
    32   18   43 1   
    33   19   21 1   
    34   19   44 1   
    35   19   45 1   
    36   20   22 1   
    37   20   46 1   
    38   20   47 1   
    39   21   22 1   
    40   21   48 1   
    41   21   49 1   
    42   22   23 1   
    43   22   50 1   
    44   23   24 1   
    45   23   25 2   
    46   24   26 ar  
    47   24   27 ar  
    48   26   28 ar  
    49   26   51 1   
    50   27   29 ar  
    51   27   52 1   
    52   28   30 ar  
    53   28   53 1   
    54   29   30 ar  
    55   29   54 1   
    56   30   31 1   
@<TRIPOS>SUBSTRUCTURE
     1 1XP         1 TEMP              0 ****  ****    0 ROOT
