@<TRIPOS>MOLECULE
1XQ
   66    63     1     0     0
SMALL
bcc


@<TRIPOS>ATOM
      1 O1         -7.6520    1.4540   -3.1140 os        1 1XQ     -0.266000
      2 C1         -7.5330    0.5320   -3.7360 c3        1 1XQ     -0.025000
      3 C2         -6.4660   -0.5670   -3.1750 c3        1 1XQ     -0.152000
      4 C3         -6.3490    2.3040   -2.8460 c3        1 1XQ      0.035000
      5 C4         -5.2500    1.4630   -2.3390 c2        1 1XQ     -0.265000
      6 C5         -5.2140    0.0050   -2.8710 c2        1 1XQ      0.060000
      7 N1         -4.0330   -0.7770   -2.7140 n2        1 1XQ     -0.225000
      8 C6         -2.7970   -0.1640   -2.1350 c1        1 1XQ      0.108000
      9 N2         -2.8440    1.2240   -1.5530 n         1 1XQ     -0.287000
     10 C7         -4.0580    2.0260   -1.6760 c2        1 1XQ      0.336000
     11 C8         -1.4240   -0.8900   -2.2970 c2        1 1XQ      0.024000
     12 N3         -1.1720   -1.7240   -1.1360 n3        1 1XQ     -0.331000
     13 O2         -4.1050    3.1180   -1.1880 o         1 1XQ     -0.362000
     14 C9         -0.6780   -1.1160    0.1000 c1        1 1XQ      0.299000
     15 O3         -1.3820   -1.0500    1.0480 o         1 1XQ     -0.353000
     16 C10         0.8200   -0.6100    0.1910 c2        1 1XQ     -0.098000
     17 N4          0.8710    0.5680    0.9670 n3        1 1XQ     -0.262000
     18 C11         1.4150    0.2620    2.2910 c3        1 1XQ     -0.080500
     19 C12         2.9340   -0.0560    2.2640 c3        1 1XQ     -0.182500
     20 C13         3.7520    1.0160    1.5700 c3        1 1XQ     -0.147000
     21 C14         3.1300    1.2940    0.1860 c3        1 1XQ     -0.182500
     22 C15         1.6090    1.5850    0.2560 c3        1 1XQ     -0.080500
     23 C16         5.2870    0.6410    1.4810 c2        1 1XQ      0.272000
     24 O4          5.6460   -0.3140    0.7930 o         1 1XQ     -0.286000
     25 C17         6.3220    1.5230    2.1440 c2        1 1XQ     -0.167000
     26 C18         6.9050    2.5610    1.4270 c2        1 1XQ     -0.069000
     27 C19         8.4200    2.9840    3.2610 c1        1 1XQ      0.118000
     28 C20         7.8360    1.9420    3.9820 c1        1 1XQ     -0.177000
     29 C21         7.9570    3.2940    1.9860 c1        1 1XQ     -0.179000
     30 C22         6.7900    1.2120    3.4280 c1        1 1XQ     -0.053000
     31 F1          9.4250    3.7350    3.8290 f         1 1XQ     -0.099000
     32 C23        -1.2270   -3.1780   -1.2580 c3        1 1XQ      0.047000
     33 C24        -2.0200   -3.7500   -0.0960 c2        1 1XQ     -0.430000
     34 C25        -2.2210   -5.1630    0.1920 c1        1 1XQ     -0.132000
     35 C26        -3.1790   -5.2830    1.4630 c1        1 1XQ     -0.157000
     36 C27        -3.5250   -3.9400    1.9020 c1        1 1XQ     -0.428000
     37 S1         -2.8200   -2.9290    0.9530 ss        1 1XQ      0.559000
     38 H1         -7.2350    0.8100   -4.6190 h1        1 1XQ      0.092500
     39 H2         -8.4300    0.0840   -3.7890 h1        1 1XQ      0.092500
     40 H3         -6.8130   -1.0090   -2.3840 hc        1 1XQ      0.116000
     41 H4         -6.3720   -1.2930   -3.8140 hc        1 1XQ      0.116000
     42 H5         -6.5320    3.1280   -2.3610 h1        1 1XQ      0.107000
     43 H6         -6.0270    2.6430   -3.7240 h1        1 1XQ      0.107000
     44 H7         -2.0980    1.5900   -1.2050 hn        1 1XQ      0.265000
     45 H8         -1.4450   -1.4510   -3.1040 h4        1 1XQ      0.125500
     46 H9         -0.7330   -0.2460   -2.3780 h4        1 1XQ      0.125500
     47 H10         1.1510   -0.4250   -0.6930 h4        1 1XQ      0.108000
     48 H11         1.3750   -1.3010    0.6080 h4        1 1XQ      0.108000
     49 H13         1.2620    1.0420    2.8880 h1        1 1XQ      0.102250
     50 H14         0.9300   -0.5240    2.6600 h1        1 1XQ      0.102250
     51 H15         3.2560   -0.1480    3.1960 hc        1 1XQ      0.100750
     52 H16         3.0750   -0.9350    1.7820 hc        1 1XQ      0.100750
     53 H17         3.7880    1.8520    2.1190 hc        1 1XQ      0.109000
     54 H18         3.5840    2.0710   -0.2160 hc        1 1XQ      0.100750
     55 H19         3.2750    0.5090   -0.3880 hc        1 1XQ      0.100750
     56 H20         1.2530    1.6510   -0.6670 h1        1 1XQ      0.102250
     57 H21         1.4720    2.4590    0.7160 h1        1 1XQ      0.102250
     58 H22         6.5900    2.7740    0.5520 ha        1 1XQ      0.140000
     59 H23         8.1700    1.7200    4.8990 ha        1 1XQ      0.156000
     60 H24         8.3670    4.0240    1.4800 ha        1 1XQ      0.154000
     61 H25         6.3710    0.4630    3.9460 ha        1 1XQ      0.158000
     62 H26        -1.6570   -3.4170   -2.0930 h1        1 1XQ      0.111500
     63 H27        -0.3120   -3.5420   -1.2430 h1        1 1XQ      0.111500
     64 H28        -1.8260   -5.9270   -0.3180 DU        1 1XQ      0.167333
     65 H29        -3.4860   -6.1300    1.8830 DU        1 1XQ      0.167333
     66 H30        -4.1210   -3.7060    2.6890 DU        1 1XQ      0.167333
@<TRIPOS>BOND
     1    1    2 1   
     2    1    4 1   
     3    2    3 1   
     4    2   38 1   
     5    2   39 1   
     6    3    6 1   
     7    3   40 1   
     8    3   41 1   
     9    4    5 1   
    10    4   42 1   
    11    4   43 1   
    12    5    6 1   
    13    5   10 1   
    14    6    7 1   
    15    7    8 1   
    16    8    9 1   
    17    9   10 1   
    18    9   44 1   
    19   10   13 1   
    20   11   12 1   
    21   11   45 1   
    22   11   46 1   
    23   12   14 1   
    24   12   32 1   
    25   14   15 1   
    26   16   17 1   
    27   16   47 1   
    28   16   48 1   
    29   17   18 1   
    30   17   22 1   
    31   18   19 1   
    32   18   49 1   
    33   18   50 1   
    34   19   20 1   
    35   19   51 1   
    36   19   52 1   
    37   20   21 1   
    38   20   23 1   
    39   20   53 1   
    40   21   22 1   
    41   21   54 1   
    42   21   55 1   
    43   22   56 1   
    44   22   57 1   
    45   23   24 1   
    46   23   25 1   
    47   25   26 1   
    48   25   30 1   
    49   26   29 1   
    50   26   58 1   
    51   27   28 1   
    52   27   31 1   
    53   28   59 1   
    54   29   60 1   
    55   30   61 1   
    56   32   33 1   
    57   32   62 1   
    58   32   63 1   
    59   33   34 1   
    60   33   37 1   
    61   34   35 1   
    62   35   36 1   
    63   36   37 1   
@<TRIPOS>SUBSTRUCTURE
     1 1XQ         1 TEMP              0 ****  ****    0 ROOT
