@<TRIPOS>MOLECULE
1XQ
   66    70     1     0     0
SMALL
bcc


@<TRIPOS>ATOM
      1 O1         -8.2020   -3.5530    1.6090 os        1 1XQ     -0.409600
      2 C1         -8.7180   -2.4540    0.8700 c3        1 1XQ      0.124400
      3 C2         -7.7310   -1.2980    0.8110 c3        1 1XQ     -0.068200
      4 C3         -7.0480   -4.1350    1.0110 c3        1 1XQ      0.187600
      5 C4         -6.0600   -3.1230    0.5550 cc        1 1XQ     -0.280400
      6 C5         -6.3610   -1.7840    0.4390 cd        1 1XQ      0.187400
      7 N1         -5.4320   -0.8440    0.0070 nd        1 1XQ     -0.644300
      8 C6         -4.2190   -1.2850   -0.3140 cc        1 1XQ      0.464900
      9 N2         -3.8160   -2.6090   -0.2320 n         1 1XQ     -0.465400
     10 C7         -4.7180   -3.6020    0.2100 c         1 1XQ      0.695700
     11 C8         -3.1720   -0.2710   -0.8140 c3        1 1XQ      0.053700
     12 N3         -2.1150   -0.0410    0.1380 n         1 1XQ     -0.476800
     13 O2         -4.3270   -4.7810    0.2810 o         1 1XQ     -0.626500
     14 C9         -0.9810   -0.8450    0.0940 c         1 1XQ      0.675100
     15 O3         -0.9680   -1.8400   -0.6600 o         1 1XQ     -0.624100
     16 C10         0.2420   -0.5280    0.9680 c3        1 1XQ      0.121800
     17 N4          1.3200   -0.0060    0.1490 n3        1 1XQ     -0.732600
     18 C11         2.0650   -1.0510   -0.5410 c3        1 1XQ      0.168800
     19 C12         3.1580   -0.4990   -1.4520 c3        1 1XQ     -0.069900
     20 C13         4.0880    0.4250   -0.6790 c3        1 1XQ     -0.160700
     21 C14         3.2750    1.5220   -0.0070 c3        1 1XQ     -0.069900
     22 C15         2.1720    0.9300    0.8690 c3        1 1XQ      0.168800
     23 C16         5.1110    1.0410   -1.6080 c         1 1XQ      0.581700
     24 O4          4.7960    1.4740   -2.7230 o         1 1XQ     -0.523100
     25 C17         6.5140    1.0850   -1.1380 ca        1 1XQ     -0.186600
     26 C18         7.5450    1.0340   -2.0880 ca        1 1XQ     -0.062000
     27 C19         9.1890    1.1660   -0.3250 ca        1 1XQ      0.150900
     28 C20         8.1610    1.2350    0.6350 ca        1 1XQ     -0.178500
     29 C21         8.8770    1.0660   -1.6940 ca        1 1XQ     -0.178500
     30 C22         6.8340    1.1910    0.2200 ca        1 1XQ     -0.062000
     31 F1         10.4820    1.2000    0.0720 f         1 1XQ     -0.134900
     32 C23        -2.3290    0.9750    1.1440 c3        1 1XQ      0.174300
     33 C24        -1.5980    2.2520    0.9380 cc        1 1XQ     -0.159400
     34 C25        -0.7930    2.8460    1.8950 cd        1 1XQ     -0.156000
     35 C26        -0.2650    4.0930    1.4420 cd        1 1XQ     -0.160000
     36 C27        -0.6880    4.3830    0.1620 cc        1 1XQ     -0.169100
     37 S1         -1.6770    3.1930   -0.4480 ss        1 1XQ      0.071200
     38 H1         -8.9950   -2.7880   -0.1650 h1        1 1XQ      0.053700
     39 H2         -9.6430   -2.1560    1.4330 h1        1 1XQ      0.053700
     40 H3         -8.0960   -0.5340    0.0760 hc        1 1XQ      0.075700
     41 H4         -7.6640   -0.8020    1.8170 hc        1 1XQ      0.075700
     42 H5         -6.6150   -4.7890    1.8170 h1        1 1XQ      0.070200
     43 H6         -7.3650   -4.7740    0.1410 h1        1 1XQ      0.070200
     44 H7         -2.8820   -2.8670   -0.4890 hn        1 1XQ      0.365500
     45 H8         -2.7310   -0.6750   -1.7740 h1        1 1XQ      0.092700
     46 H9         -3.6870    0.7060   -1.0420 h1        1 1XQ      0.092700
     47 H10        -0.0160    0.2220    1.7660 h1        1 1XQ      0.061200
     48 H11         0.5120   -1.5010    1.4760 h1        1 1XQ      0.061200
     49 H13         2.5390   -1.7680    0.1940 h1        1 1XQ      0.041700
     50 H14         1.3260   -1.6350   -1.1630 h1        1 1XQ      0.041700
     51 H15         3.7360   -1.3610   -1.8730 hc        1 1XQ      0.061450
     52 H16         2.7040    0.0640   -2.3100 hc        1 1XQ      0.061450
     53 H17         4.6160   -0.1800    0.1100 hc        1 1XQ      0.062700
     54 H18         3.9360    2.1540    0.6400 hc        1 1XQ      0.061450
     55 H19         2.8250    2.1830   -0.7950 hc        1 1XQ      0.061450
     56 H20         1.5190    1.7730    1.2390 h1        1 1XQ      0.041700
     57 H21         2.6530    0.4430    1.7680 h1        1 1XQ      0.041700
     58 H22         7.2850    0.9730   -3.1590 ha        1 1XQ      0.149500
     59 H23         8.4160    1.3220    1.7000 ha        1 1XQ      0.154000
     60 H24         9.6870    1.0200   -2.4360 ha        1 1XQ      0.154000
     61 H25         6.0340    1.2540    0.9740 ha        1 1XQ      0.149500
     62 H26        -3.4380    1.1980    1.1860 h1        1 1XQ      0.068200
     63 H27        -2.0440    0.5530    2.1540 h1        1 1XQ      0.068200
     64 H28        -0.5860    2.4330    2.8840 ha        1 1XQ      0.149000
     65 H29         0.3870    4.7230    2.0500 ha        1 1XQ      0.155000
     66 H30        -0.4170    5.2740   -0.4050 h4        1 1XQ      0.175000
@<TRIPOS>BOND
     1    1    2 1   
     2    1    4 1   
     3    2    3 1   
     4    2   38 1   
     5    2   39 1   
     6    3    6 1   
     7    3   40 1   
     8    3   41 1   
     9    4    5 1   
    10    4   42 1   
    11    4   43 1   
    12    5    6 2   
    13    5   10 1   
    14    6    7 1   
    15    7    8 2   
    16    8    9 1   
    17    8   11 1   
    18    9   10 1   
    19    9   44 1   
    20   10   13 2   
    21   11   12 1   
    22   11   45 1   
    23   11   46 1   
    24   12   14 1   
    25   12   32 1   
    26   14   15 2   
    27   14   16 1   
    28   16   17 1   
    29   16   47 1   
    30   16   48 1   
    31   17   18 1   
    32   17   22 1   
    33   18   19 1   
    34   18   49 1   
    35   18   50 1   
    36   19   20 1   
    37   19   51 1   
    38   19   52 1   
    39   20   21 1   
    40   20   23 1   
    41   20   53 1   
    42   21   22 1   
    43   21   54 1   
    44   21   55 1   
    45   22   56 1   
    46   22   57 1   
    47   23   24 2   
    48   23   25 1   
    49   25   26 ar  
    50   25   30 ar  
    51   26   29 ar  
    52   26   58 1   
    53   27   28 ar  
    54   27   29 ar  
    55   27   31 1   
    56   28   30 ar  
    57   28   59 1   
    58   29   60 1   
    59   30   61 1   
    60   32   33 1   
    61   32   62 1   
    62   32   63 1   
    63   33   34 2   
    64   33   37 1   
    65   34   35 1   
    66   34   64 1   
    67   35   36 2   
    68   35   65 1   
    69   36   37 1   
    70   36   66 1   
@<TRIPOS>SUBSTRUCTURE
     1 1XQ         1 TEMP              0 ****  ****    0 ROOT
