@<TRIPOS>MOLECULE
1XQ
   67    71     1     0     0
SMALL
bcc


@<TRIPOS>ATOM
      1 O1         -0.9160   -2.7990    0.4370 os        1 1XQ     -0.392600
      2 C1         -0.2990   -3.9530    0.9920 c3        1 1XQ      0.119400
      3 C2          0.9870   -3.6000    1.7280 c3        1 1XQ     -0.070200
      4 C3         -1.3600   -1.8770    1.4240 c3        1 1XQ      0.174600
      5 C4         -0.3190   -1.6080    2.4550 cc        1 1XQ     -0.224400
      6 C5          0.7840   -2.4130    2.6210 cd        1 1XQ      0.175400
      7 N1          1.7520   -2.1540    3.5920 nd        1 1XQ     -0.619300
      8 C6          1.5770   -1.0960    4.3710 cc        1 1XQ      0.431900
      9 N2          0.5030   -0.2200    4.2860 n         1 1XQ     -0.480400
     10 C7         -0.5150   -0.4390    3.3200 c         1 1XQ      0.698700
     11 C8          2.6090   -0.8240    5.4660 c3        1 1XQ      0.083500
     12 N3          4.0230   -0.7820    4.9840 n4        1 1XQ     -0.575200
     13 O2         -1.4570    0.3640    3.2820 o         1 1XQ     -0.578500
     14 C9          4.1860    0.1910    3.8340 c         1 1XQ      0.525100
     15 O3          4.1010   -0.2420    2.6950 o         1 1XQ     -0.414100
     16 C10         4.5040    1.6550    4.1600 c3        1 1XQ      0.115800
     17 N4          4.1580    2.0380    5.5010 n3        1 1XQ     -0.795600
     18 C11         2.9810    2.8950    5.5970 c3        1 1XQ      0.172300
     19 C12         2.5270    3.0930    7.0400 c3        1 1XQ     -0.076400
     20 C13         3.6620    3.5960    7.9210 c3        1 1XQ     -0.163700
     21 C14         4.8960    2.7180    7.7700 c3        1 1XQ     -0.076400
     22 C15         5.2770    2.5190    6.3050 c3        1 1XQ      0.172300
     23 C16         3.2180    3.5760    9.3750 c         1 1XQ      0.588700
     24 O4          2.6360    2.5810    9.8270 o         1 1XQ     -0.532100
     25 C17         3.4870    4.7690   10.1940 ca        1 1XQ     -0.201600
     26 C18         2.6430    5.0370   11.2840 ca        1 1XQ     -0.056000
     27 C19         3.9330    7.0120   11.8070 ca        1 1XQ      0.171900
     28 C20         4.7960    6.7390   10.7260 ca        1 1XQ     -0.176500
     29 C21         2.8520    6.1530   12.0850 ca        1 1XQ     -0.176500
     30 C22         4.5650    5.6230    9.9310 ca        1 1XQ     -0.056000
     31 F1          4.1480    8.0990   12.5790 f         1 1XQ     -0.120900
     32 C23         4.5750   -2.1540    4.6580 c3        1 1XQ      0.216100
     33 C24         6.0080   -2.2390    4.9820 cc        1 1XQ     -0.274400
     34 C25         6.5360   -2.1820    6.2700 cd        1 1XQ     -0.126000
     35 C26         7.9450   -2.3670    6.2630 cd        1 1XQ     -0.152000
     36 C27         8.4180   -2.5690    4.9760 cc        1 1XQ     -0.150100
     37 S1          7.2060   -2.5280    3.8530 ss        1 1XQ      0.159200
     38 H1         -1.0150   -4.4780    1.6790 h1        1 1XQ      0.067700
     39 H2         -0.0810   -4.6000    0.1010 h1        1 1XQ      0.067700
     40 H3          1.7920   -3.3470    0.9840 hc        1 1XQ      0.082200
     41 H4          1.3310   -4.4900    2.3170 hc        1 1XQ      0.082200
     42 H5         -1.6120   -0.9440    0.8480 h1        1 1XQ      0.086200
     43 H6         -2.2880   -2.2730    1.9240 h1        1 1XQ      0.086200
     44 H7          0.3980    0.5300    4.9340 hn        1 1XQ      0.339500
     45 H8          2.3970    0.1610    5.9810 hx        1 1XQ      0.122700
     46 H9          2.5240   -1.6480    6.2370 hx        1 1XQ      0.122700
     47 H10         5.6120    1.7640    3.9550 h1        1 1XQ      0.111200
     48 H11         3.9490    2.2560    3.3770 h1        1 1XQ      0.111200
     49 H13         3.1780    3.9050    5.1320 h1        1 1XQ      0.047200
     50 H14         2.1460    2.4080    5.0170 h1        1 1XQ      0.047200
     51 H15         1.6870    3.8360    7.0440 hc        1 1XQ      0.068200
     52 H16         2.1330    2.1300    7.4600 hc        1 1XQ      0.068200
     53 H17         3.9130    4.6490    7.6130 hc        1 1XQ      0.077700
     54 H18         4.7040    1.7260    8.2570 hc        1 1XQ      0.068200
     55 H19         5.7680    3.1930    8.2930 hc        1 1XQ      0.068200
     56 H20         6.1040    1.7550    6.2470 h1        1 1XQ      0.047200
     57 H21         5.6770    3.4930    5.8960 h1        1 1XQ      0.047200
     58 H22         1.8100    4.3480   11.5030 ha        1 1XQ      0.146500
     59 H23         5.6440    7.4100   10.5250 ha        1 1XQ      0.163500
     60 H24         2.1880    6.3690   12.9360 ha        1 1XQ      0.163500
     61 H25         5.2530    5.4110    9.0980 ha        1 1XQ      0.146500
     62 H26         3.9920   -2.9090    5.2650 hx        1 1XQ      0.123700
     63 H27         4.3840   -2.3650    3.5640 hx        1 1XQ      0.123700
     64 H28         5.9570   -2.0390    7.1850 ha        1 1XQ      0.155000
     65 H29         8.5620   -2.3600    7.1660 ha        1 1XQ      0.178000
     66 H30         9.4660   -2.7480    4.7220 h4        1 1XQ      0.198000
     67 H31         4.5860   -0.4160    5.7710 hn        1 1XQ      0.468800
@<TRIPOS>BOND
     1    1    2 1   
     2    1    4 1   
     3    2    3 1   
     4    2   38 1   
     5    2   39 1   
     6    3    6 1   
     7    3   40 1   
     8    3   41 1   
     9    4    5 1   
    10    4   42 1   
    11    4   43 1   
    12    5    6 2   
    13    5   10 1   
    14    6    7 1   
    15    7    8 2   
    16    8    9 1   
    17    8   11 1   
    18    9   10 1   
    19    9   44 1   
    20   10   13 2   
    21   11   12 1   
    22   11   45 1   
    23   11   46 1   
    24   12   14 1   
    25   12   32 1   
    26   12   67 1   
    27   14   15 2   
    28   14   16 1   
    29   16   17 1   
    30   16   47 1   
    31   16   48 1   
    32   17   18 1   
    33   17   22 1   
    34   18   19 1   
    35   18   49 1   
    36   18   50 1   
    37   19   20 1   
    38   19   51 1   
    39   19   52 1   
    40   20   21 1   
    41   20   23 1   
    42   20   53 1   
    43   21   22 1   
    44   21   54 1   
    45   21   55 1   
    46   22   56 1   
    47   22   57 1   
    48   23   24 2   
    49   23   25 1   
    50   25   26 ar  
    51   25   30 ar  
    52   26   29 ar  
    53   26   58 1   
    54   27   28 ar  
    55   27   29 ar  
    56   27   31 1   
    57   28   30 ar  
    58   28   59 1   
    59   29   60 1   
    60   30   61 1   
    61   32   33 1   
    62   32   62 1   
    63   32   63 1   
    64   33   34 2   
    65   33   37 1   
    66   34   35 1   
    67   34   64 1   
    68   35   36 2   
    69   35   65 1   
    70   36   37 1   
    71   36   66 1   
@<TRIPOS>SUBSTRUCTURE
     1 1XQ         1 TEMP              0 ****  ****    0 ROOT
