@<TRIPOS>MOLECULE
1XQ
   67    71     1     0     0
SMALL
bcc


@<TRIPOS>ATOM
      1 O1         -0.9240   -2.8470    0.4790 os        1 1XQ     -0.392600
      2 C1         -0.3240   -3.9980    1.0590 c3        1 1XQ      0.119400
      3 C2          0.9610   -3.6470    1.7960 c3        1 1XQ     -0.070200
      4 C3         -1.3630   -1.9030    1.4460 c3        1 1XQ      0.174600
      5 C4         -0.3260   -1.6260    2.4790 cc        1 1XQ     -0.224400
      6 C5          0.7670   -2.4410    2.6660 cd        1 1XQ      0.175400
      7 N1          1.7320   -2.1760    3.6390 nd        1 1XQ     -0.619300
      8 C6          1.5640   -1.1020    4.3970 cc        1 1XQ      0.431900
      9 N2          0.5010   -0.2150    4.2900 n         1 1XQ     -0.480400
     10 C7         -0.5130   -0.4400    3.3210 c         1 1XQ      0.698700
     11 C8          2.5930   -0.8220    5.4940 c3        1 1XQ      0.083500
     12 N3          4.0100   -0.8040    5.0190 n4        1 1XQ     -0.575200
     13 O2         -1.4460    0.3730    3.2620 o         1 1XQ     -0.578500
     14 C9          4.1910    0.1460    3.8540 c         1 1XQ      0.525100
     15 O3          4.1070   -0.3050    2.7220 o         1 1XQ     -0.414100
     16 C10         4.5240    1.6120    4.1560 c3        1 1XQ      0.115800
     17 N4          4.1730    2.0230    5.4870 n3        1 1XQ     -0.795600
     18 C11         3.0050    2.8950    5.5590 c3        1 1XQ      0.172300
     19 C12         2.5440    3.1250    6.9950 c3        1 1XQ     -0.076400
     20 C13         3.6790    3.6320    7.8740 c3        1 1XQ     -0.163700
     21 C14         4.9030    2.7380    7.7480 c3        1 1XQ     -0.076400
     22 C15         5.2920    2.5070    6.2900 c3        1 1XQ      0.172300
     23 C16         3.2240    3.6440    9.3250 c         1 1XQ      0.587700
     24 O4          2.6290    2.6650    9.7920 o         1 1XQ     -0.532100
     25 C17         3.5010    4.8500   10.1230 ca        1 1XQ     -0.201600
     26 C18         2.6530    5.1500   11.2010 ca        1 1XQ     -0.056000
     27 C19         3.9610    7.1190   11.6950 ca        1 1XQ      0.171900
     28 C20         4.8290    6.8150   10.6260 ca        1 1XQ     -0.176000
     29 C21         2.8690    6.2780   11.9820 ca        1 1XQ     -0.176000
     30 C22         4.5900    5.6870    9.8510 ca        1 1XQ     -0.056000
     31 F1          4.1830    8.2190   12.4470 f         1 1XQ     -0.120900
     32 C23         4.5490   -2.1880    4.7220 c3        1 1XQ      0.216100
     33 C24         5.9780   -2.2830    5.0550 cc        1 1XQ     -0.274400
     34 C25         6.5000   -2.2090    6.3450 cd        1 1XQ     -0.126000
     35 C26         7.9070   -2.4090    6.3490 cd        1 1XQ     -0.152000
     36 C27         8.3840   -2.6400    5.0690 cc        1 1XQ     -0.150100
     37 S1          7.1800   -2.6050    3.9380 ss        1 1XQ      0.159200
     38 H1         -0.1070   -4.6640    0.1810 h1        1 1XQ      0.067700
     39 H2         -1.0500   -4.5030    1.7500 h1        1 1XQ      0.067700
     40 H3          1.2910   -4.5300    2.4040 hc        1 1XQ      0.082200
     41 H4          1.7740   -3.4170    1.0540 hc        1 1XQ      0.082200
     42 H5         -2.2990   -2.2780    1.9470 h1        1 1XQ      0.086200
     43 H6         -1.6000   -0.9770    0.8510 h1        1 1XQ      0.086200
     44 H7          0.4010    0.5480    4.9220 hn        1 1XQ      0.339500
     45 H8          2.3890    0.1750    5.9890 hx        1 1XQ      0.122700
     46 H9          2.4940   -1.6310    6.2790 hx        1 1XQ      0.122700
     47 H10         3.9820    2.2050    3.3580 h1        1 1XQ      0.111200
     48 H11         5.6340    1.7040    3.9570 h1        1 1XQ      0.111200
     49 H13         2.1690    2.4070    4.9820 h1        1 1XQ      0.047200
     50 H14         3.2170    3.8940    5.0770 h1        1 1XQ      0.047200
     51 H15         1.7120    3.8770    6.9790 hc        1 1XQ      0.068200
     52 H16         2.1360    2.1740    7.4310 hc        1 1XQ      0.068200
     53 H17         3.9440    4.6760    7.5480 hc        1 1XQ      0.077700
     54 H18         4.6960    1.7570    8.2520 hc        1 1XQ      0.068200
     55 H19         5.7770    3.2120    8.2680 hc        1 1XQ      0.068200
     56 H20         6.1100    1.7330    6.2530 h1        1 1XQ      0.047200
     57 H21         5.7060    3.4680    5.8650 h1        1 1XQ      0.047200
     58 H22         1.8100    4.4750   11.4270 ha        1 1XQ      0.146500
     59 H23         5.6850    7.4730   10.4180 ha        1 1XQ      0.163500
     60 H24         2.2010    6.5190   12.8230 ha        1 1XQ      0.163500
     61 H25         5.2820    5.4500    9.0280 ha        1 1XQ      0.146500
     62 H26         3.9530   -2.9250    5.3380 hx        1 1XQ      0.123700
     63 H27         4.3610   -2.4160    3.6300 hx        1 1XQ      0.123700
     64 H28         5.9170   -2.0430    7.2530 ha        1 1XQ      0.155000
     65 H29         8.5180   -2.3940    7.2550 ha        1 1XQ      0.178000
     66 H30         9.4320   -2.8350    4.8240 h4        1 1XQ      0.198000
     67 H31         4.5730   -0.4300    5.8030 hn        1 1XQ      0.468800
@<TRIPOS>BOND
     1    1    2 1   
     2    1    4 1   
     3    2    3 1   
     4    2   38 1   
     5    2   39 1   
     6    3    6 1   
     7    3   40 1   
     8    3   41 1   
     9    4    5 1   
    10    4   42 1   
    11    4   43 1   
    12    5    6 2   
    13    5   10 1   
    14    6    7 1   
    15    7    8 2   
    16    8    9 1   
    17    8   11 1   
    18    9   10 1   
    19    9   44 1   
    20   10   13 2   
    21   11   12 1   
    22   11   45 1   
    23   11   46 1   
    24   12   14 1   
    25   12   32 1   
    26   12   67 1   
    27   14   15 2   
    28   14   16 1   
    29   16   17 1   
    30   16   47 1   
    31   16   48 1   
    32   17   18 1   
    33   17   22 1   
    34   18   19 1   
    35   18   49 1   
    36   18   50 1   
    37   19   20 1   
    38   19   51 1   
    39   19   52 1   
    40   20   21 1   
    41   20   23 1   
    42   20   53 1   
    43   21   22 1   
    44   21   54 1   
    45   21   55 1   
    46   22   56 1   
    47   22   57 1   
    48   23   24 2   
    49   23   25 1   
    50   25   26 ar  
    51   25   30 ar  
    52   26   29 ar  
    53   26   58 1   
    54   27   28 ar  
    55   27   29 ar  
    56   27   31 1   
    57   28   30 ar  
    58   28   59 1   
    59   29   60 1   
    60   30   61 1   
    61   32   33 1   
    62   32   62 1   
    63   32   63 1   
    64   33   34 2   
    65   33   37 1   
    66   34   35 1   
    67   34   64 1   
    68   35   36 2   
    69   35   65 1   
    70   36   37 1   
    71   36   66 1   
@<TRIPOS>SUBSTRUCTURE
     1 1XQ         1 TEMP              0 ****  ****    0 ROOT
