@<TRIPOS>MOLECULE
1XQ
   67    71     1     0     0
SMALL
bcc


@<TRIPOS>ATOM
      1 O1         -0.8960   -2.8650    0.4670 os        1 1XQ     -0.392600
      2 C1         -0.2700   -4.0120    1.0290 c3        1 1XQ      0.119400
      3 C2          1.0150   -3.6450    1.7600 c3        1 1XQ     -0.070200
      4 C3         -1.3450   -1.9420    1.4490 c3        1 1XQ      0.174600
      5 C4         -0.3050   -1.6570    2.4770 cc        1 1XQ     -0.224400
      6 C5          0.8040   -2.4530    2.6460 cd        1 1XQ      0.175400
      7 N1          1.7720   -2.1800    3.6150 nd        1 1XQ     -0.619300
      8 C6          1.5890   -1.1190    4.3870 cc        1 1XQ      0.431900
      9 N2          0.5090   -0.2520    4.2980 ns        1 1XQ     -0.480400
     10 C7         -0.5090   -0.4840    3.3340 c         1 1XQ      0.698700
     11 C8          2.6210   -0.8320    5.4790 c3        1 1XQ      0.083500
     12 N3          4.0340   -0.7830    4.9950 nx        1 1XQ     -0.575200
     13 O2         -1.4570    0.3110    3.2920 o         1 1XQ     -0.578500
     14 C9          4.1880    0.1830    3.8380 c         1 1XQ      0.525100
     15 O3          4.1050   -0.2580    2.7020 o         1 1XQ     -0.414100
     16 C10         4.4960    1.6510    4.1540 c3        1 1XQ      0.115800
     17 N4          4.1490    2.0420    5.4930 n3        1 1XQ     -0.795600
     18 C11         2.9660    2.8900    5.5840 c3        1 1XQ      0.172300
     19 C12         2.5120    3.0960    7.0260 c3        1 1XQ     -0.076400
     20 C13         3.6440    3.6140    7.9010 c3        1 1XQ     -0.163700
     21 C14         4.8840    2.7440    7.7550 c3        1 1XQ     -0.076400
     22 C15         5.2650    2.5360    6.2920 c3        1 1XQ      0.172300
     23 C16         3.2010    3.6010    9.3560 c         1 1XQ      0.588700
     24 O4          2.6280    2.6060    9.8160 o         1 1XQ     -0.532100
     25 C17         3.4620    4.8030   10.1650 ca        1 1XQ     -0.201600
     26 C18         2.6180    5.0740   11.2530 ca        1 1XQ     -0.056000
     27 C19         3.8930    7.0620   11.7590 ca        1 1XQ      0.171900
     28 C20         4.7570    6.7870   10.6800 ca        1 1XQ     -0.176500
     29 C21         2.8190    6.1980   12.0460 ca        1 1XQ     -0.176500
     30 C22         4.5340    5.6630    9.8940 ca        1 1XQ     -0.056000
     31 F1          4.1010    8.1570   12.5220 f         1 1XQ     -0.120900
     32 C23         4.5960   -2.1540    4.6780 c3        1 1XQ      0.216100
     33 C24         6.0290   -2.2260    5.0000 cc        1 1XQ     -0.274400
     34 C25         6.5590   -2.1560    6.2870 cd        1 1XQ     -0.126000
     35 C26         7.9690   -2.3310    6.2790 cd        1 1XQ     -0.152000
     36 C27         8.4410   -2.5380    4.9930 cc        1 1XQ     -0.150100
     37 S1          7.2280   -2.5140    3.8720 ss        1 1XQ      0.159200
     38 H1         -0.0470   -4.6630    0.1410 h1        1 1XQ      0.067700
     39 H2         -0.9800   -4.5380    1.7200 h1        1 1XQ      0.067700
     40 H3          1.3660   -4.5290    2.3560 hc        1 1XQ      0.082200
     41 H4          1.8170   -3.3900    1.0150 hc        1 1XQ      0.082200
     42 H5         -1.6050   -1.0140    0.8670 h1        1 1XQ      0.086200
     43 H6         -2.2690   -2.3410    1.9520 h1        1 1XQ      0.086200
     44 H7          0.3990    0.5020    4.9400 hn        1 1XQ      0.339500
     45 H8          2.5420   -1.6510    6.2560 hx        1 1XQ      0.122700
     46 H9          2.4020    0.1550    5.9870 hx        1 1XQ      0.122700
     47 H10         3.9360    2.2430    3.3660 h1        1 1XQ      0.111200
     48 H11         5.6030    1.7670    3.9470 h1        1 1XQ      0.111200
     49 H13         3.1550    3.8980    5.1110 h1        1 1XQ      0.047200
     50 H14         2.1340    2.3930    5.0080 h1        1 1XQ      0.047200
     51 H15         2.1250    2.1330    7.4530 hc        1 1XQ      0.068200
     52 H16         1.6660    3.8330    7.0240 hc        1 1XQ      0.068200
     53 H17         3.8870    4.6660    7.5850 hc        1 1XQ      0.077700
     54 H18         5.7530    3.2290    8.2740 hc        1 1XQ      0.068200
     55 H19         4.6990    1.7540    8.2500 hc        1 1XQ      0.068200
     56 H20         6.0970    1.7780    6.2390 h1        1 1XQ      0.047200
     57 H21         5.6570    3.5100    5.8750 h1        1 1XQ      0.047200
     58 H22         1.7890    4.3810   11.4790 ha        1 1XQ      0.146500
     59 H23         5.6000    7.4630   10.4730 ha        1 1XQ      0.163500
     60 H24         2.1540    6.4160   12.8950 ha        1 1XQ      0.163500
     61 H25         5.2230    5.4490    9.0620 ha        1 1XQ      0.146500
     62 H26         4.0180   -2.9080    5.2900 hx        1 1XQ      0.123700
     63 H27         4.4040   -2.3730    3.5850 hx        1 1XQ      0.123700
     64 H28         5.9800   -2.0100    7.2010 ha        1 1XQ      0.155000
     65 H29         8.5870   -2.3130    7.1810 ha        1 1XQ      0.178000
     66 H30         9.4900   -2.7120    4.7380 h4        1 1XQ      0.198000
     67 H31         4.5950   -0.4070    5.7780 hn        1 1XQ      0.468800
@<TRIPOS>BOND
     1    1    2 1   
     2    1    4 1   
     3    2    3 1   
     4    2   38 1   
     5    2   39 1   
     6    3    6 1   
     7    3   40 1   
     8    3   41 1   
     9    4    5 1   
    10    4   42 1   
    11    4   43 1   
    12    5    6 2   
    13    5   10 1   
    14    6    7 1   
    15    7    8 2   
    16    8    9 1   
    17    8   11 1   
    18    9   10 1   
    19    9   44 1   
    20   10   13 2   
    21   11   12 1   
    22   11   45 1   
    23   11   46 1   
    24   12   14 1   
    25   12   32 1   
    26   12   67 1   
    27   14   15 2   
    28   14   16 1   
    29   16   17 1   
    30   16   47 1   
    31   16   48 1   
    32   17   18 1   
    33   17   22 1   
    34   18   19 1   
    35   18   49 1   
    36   18   50 1   
    37   19   20 1   
    38   19   51 1   
    39   19   52 1   
    40   20   21 1   
    41   20   23 1   
    42   20   53 1   
    43   21   22 1   
    44   21   54 1   
    45   21   55 1   
    46   22   56 1   
    47   22   57 1   
    48   23   24 2   
    49   23   25 1   
    50   25   26 ar  
    51   25   30 ar  
    52   26   29 ar  
    53   26   58 1   
    54   27   28 ar  
    55   27   29 ar  
    56   27   31 1   
    57   28   30 ar  
    58   28   59 1   
    59   29   60 1   
    60   30   61 1   
    61   32   33 1   
    62   32   62 1   
    63   32   63 1   
    64   33   34 2   
    65   33   37 1   
    66   34   35 1   
    67   34   64 1   
    68   35   36 2   
    69   35   65 1   
    70   36   37 1   
    71   36   66 1   
@<TRIPOS>SUBSTRUCTURE
     1 1XQ         1 TEMP              0 ****  ****    0 ROOT
