@<TRIPOS>MOLECULE
1XS
   21    22     1     0     0
SMALL
bcc


@<TRIPOS>ATOM
      1 O01        -0.0410   -0.0120    0.0860 os        1 1XS     -0.323800
      2 C02         1.3450   -0.0140    0.0420 cc        1 1XS      0.278200
      3 C03        -0.4080   -0.0100    1.4440 cc        1 1XS      0.194200
      4 C04         1.8590   -0.0130    1.3370 cd        1 1XS     -0.314300
      5 C05         0.7400   -0.0100    2.2330 cd        1 1XS     -0.219300
      6 C06         2.0220   -0.0170   -1.3230 c         1 1XS      0.827100
      7 C07        -1.8080   -0.0070    1.7530 ca        1 1XS     -0.067500
      8 C08        -4.1300   -0.0050    1.0350 ca        1 1XS     -0.011600
      9 C09        -2.7700   -0.0070    0.7290 ca        1 1XS     -0.099000
     10 C10        -4.5520   -0.0030    2.3820 ca        1 1XS      0.092900
     11 O11         1.2950   -0.0170   -2.3460 o         1 1XS     -0.795300
     12 C12        -2.2350   -0.0050    3.0920 ca        1 1XS     -0.123000
     13 C13        -3.5870   -0.0030    3.4060 ca        1 1XS     -0.158000
     14 CL1        -5.2610   -0.0050   -0.2370 cl        1 1XS     -0.093400
     15 O15         3.2810   -0.0190   -1.3020 o         1 1XS     -0.795300
     16 F16        -5.8670   -0.0010    2.7150 f         1 1XS     -0.145900
     17 H041        2.9110   -0.0140    1.6040 ha        1 1XS      0.162000
     18 H051        0.7860   -0.0090    3.3170 ha        1 1XS      0.133000
     19 H091       -2.4300   -0.0090   -0.3220 ha        1 1XS      0.184000
     20 H121       -1.4870   -0.0050    3.8990 ha        1 1XS      0.138000
     21 H131       -3.9200   -0.0010    4.4530 ha        1 1XS      0.137000
@<TRIPOS>BOND
     1    1    2 1   
     2    1    3 1   
     3    2    4 2   
     4    2    6 1   
     5    3    5 2   
     6    3    7 1   
     7    4    5 1   
     8    4   17 1   
     9    5   18 1   
    10    6   11 1   
    11    6   15 1   
    12    7    9 ar  
    13    7   12 ar  
    14    8    9 ar  
    15    8   10 ar  
    16    8   14 1   
    17    9   19 1   
    18   10   13 ar  
    19   10   16 1   
    20   12   13 ar  
    21   12   20 1   
    22   13   21 1   
@<TRIPOS>SUBSTRUCTURE
     1 1XS         1 TEMP              0 ****  ****    0 ROOT
