@<TRIPOS>MOLECULE
1XS
   21    15     1     0     0
SMALL
bcc


@<TRIPOS>ATOM
      1 O01         1.7300   -0.1900    0.4500 os        1 1XS     -0.067000
      2 C02         2.8440   -0.0950   -0.3420 c1        1 1XS     -0.058000
      3 C03         0.6290    0.0160   -0.3400 c1        1 1XS     -0.058000
      4 C04         2.4300    0.1710   -1.6310 c1        1 1XS     -0.200000
      5 C05         1.0650    0.2400   -1.6300 c1        1 1XS     -0.200000
      6 C06         4.2760   -0.2720    0.1130 c1        1 1XS      0.386000
      7 C07        -0.8130   -0.0070    0.1200 c1        1 1XS      0.040000
      8 C08        -2.7140    1.1230    1.0550 c1        1 1XS     -0.092000
      9 C09        -1.4100    1.1540    0.5870 c1        1 1XS     -0.122000
     10 C10        -3.4220   -0.0680    1.0570 c1        1 1XS      0.060000
     11 O11         4.7550   -1.4280    0.2500 os        1 1XS     -0.525000
     12 C12        -1.5210   -1.1990    0.1220 c2        1 1XS     -0.099000
     13 C13        -2.8250   -1.2300    0.5910 c1        1 1XS     -0.155000
     14 CL1        -3.4620    2.5820    1.6490 cl        1 1XS     -0.027000
     15 O15         4.9820    0.7370    0.3780 o         1 1XS     -0.537000
     16 F16        -4.7020   -0.1080    1.4480 f         1 1XS     -0.110000
     17 H041        3.0090    0.2670   -2.4120 DU        1 1XS      0.148500
     18 H051        0.4970    0.3910   -2.4100 DU        1 1XS      0.148500
     19 H091       -0.9160    1.9960    0.5730 ha        1 1XS      0.149000
     20 H121       -1.1070   -2.0130   -0.2220 ha        1 1XS      0.174000
     21 H131       -3.3240   -2.0690    0.5910 ha        1 1XS      0.143000
@<TRIPOS>BOND
     1    1    2 1   
     2    1    3 1   
     3    2    4 1   
     4    3    5 1   
     5    4    5 1   
     6    6   15 1   
     7    7    9 1   
     8    7   12 1   
     9    8   10 1   
    10    8   14 1   
    11    9   19 1   
    12   10   16 1   
    13   12   13 1   
    14   12   20 1   
    15   13   21 1   
@<TRIPOS>SUBSTRUCTURE
     1 1XS         1 TEMP              0 ****  ****    0 ROOT
