@<TRIPOS>MOLECULE
1XT
   57    61     1     0     0
SMALL
bcc


@<TRIPOS>ATOM
      1 C01        -1.1390    1.6490   -0.2650 c         1 1XT      0.827100
      2 O02        -0.7970    2.7970   -0.6460 o         1 1XT     -0.804300
      3 O03        -1.4270    1.3230    0.9180 o         1 1XT     -0.804300
      4 C04        -1.2230    0.5360   -1.2950 cc        1 1XT      0.266200
      5 C05        -1.5690   -0.8080   -1.1820 cd        1 1XT     -0.311300
      6 C06        -1.4750   -1.3780   -2.4950 cd        1 1XT     -0.235300
      7 C07        -1.0760   -0.3560   -3.3500 cc        1 1XT      0.215200
      8 O08        -0.9170    0.8320   -2.6160 os        1 1XT     -0.326800
      9 C09        -0.8170   -0.3070   -4.7630 ca        1 1XT     -0.074500
     10 C10        -0.3840    0.8800   -5.3800 ca        1 1XT     -0.132000
     11 C11        -0.1420    0.9150   -6.7480 ca        1 1XT     -0.116000
     12 C12        -0.3330   -0.2300   -7.5330 ca        1 1XT     -0.116300
     13 C13        -0.7580   -1.4130   -6.9250 ca        1 1XT     -0.116000
     14 C14        -0.9960   -1.4540   -5.5540 ca        1 1XT     -0.132000
     15 C15        -0.1120   -0.1340   -9.0050 c3        1 1XT      0.181700
     16 O16         0.1670   -1.4480   -9.5090 os        1 1XT     -0.329900
     17 C17         0.2710   -1.5500  -10.8840 ca        1 1XT      0.120100
     18 C18         0.2240   -0.4730  -11.7750 ca        1 1XT     -0.187500
     19 C19         0.3380   -0.7110  -13.1440 ca        1 1XT     -0.088500
     20 C20         0.4980   -2.0130  -13.6360 ca        1 1XT     -0.034000
     21 C21         0.5590   -3.0830  -12.7280 ca        1 1XT     -0.088500
     22 C22         0.4460   -2.8630  -11.3620 ca        1 1XT     -0.187500
     23 C23         0.6580   -2.2190  -15.0630 cc        1 1XT     -0.085300
     24 C24         1.4850   -1.5030  -15.9330 cd        1 1XT     -0.248300
     25 C25         1.3540   -2.1570  -17.2310 cd        1 1XT      0.307800
     26 N26         0.4960   -3.1920  -17.1370 nc        1 1XT     -0.501800
     27 N27         0.0790   -3.2640  -15.8400 na        1 1XT      0.114300
     28 C28        -0.9920   -4.1040  -15.4530 ca        1 1XT      0.065800
     29 C29        -1.9440   -3.6880  -14.5000 ca        1 1XT     -0.161000
     30 C30        -2.9850   -4.5380  -14.1160 ca        1 1XT     -0.068300
     31 C31        -3.0990   -5.8050  -14.6940 ca        1 1XT     -0.164000
     32 C32        -2.1740   -6.2150  -15.6510 ca        1 1XT     -0.126000
     33 C33        -1.1270   -5.3860  -16.0360 ca        1 1XT     -0.135000
     34 C34        -3.9580   -4.0800  -13.0960 c3        1 1XT     -0.049800
     35 C35         2.1000   -1.7100  -18.4870 c         1 1XT      0.836100
     36 O36         2.8330   -2.5530  -19.0650 o         1 1XT     -0.811800
     37 O37         1.9460   -0.5090  -18.8330 o         1 1XT     -0.811800
     38 H2         -1.8540   -1.3180   -0.2680 ha        1 1XT      0.157000
     39 H3         -1.6770   -2.4100   -2.7630 ha        1 1XT      0.133000
     40 H4         -0.2400    1.7810   -4.7610 ha        1 1XT      0.144500
     41 H5          0.2010    1.8490   -7.2170 ha        1 1XT      0.130000
     42 H6         -0.8970   -2.3170   -7.5370 ha        1 1XT      0.130000
     43 H7         -1.3280   -2.3910   -5.0830 ha        1 1XT      0.144500
     44 H8          0.7590    0.5360   -9.2370 h1        1 1XT      0.041700
     45 H9         -1.0360    0.2670   -9.5050 h1        1 1XT      0.041700
     46 H10         0.1020    0.5580  -11.4150 ha        1 1XT      0.137500
     47 H11         0.3070    0.1320  -13.8510 ha        1 1XT      0.143500
     48 H12         0.6960   -4.1080  -13.1070 ha        1 1XT      0.143500
     49 H13         0.4930   -3.6960  -10.6470 ha        1 1XT      0.137500
     50 H14         2.1120   -0.6470  -15.7180 ha        1 1XT      0.165000
     51 H15        -1.8730   -2.6870  -14.0450 ha        1 1XT      0.149000
     52 H16        -3.9190   -6.4740  -14.3960 ha        1 1XT      0.117000
     53 H17        -2.2710   -7.2100  -16.1120 ha        1 1XT      0.119000
     54 H18        -0.4110   -5.7260  -16.8020 ha        1 1XT      0.160000
     55 H19        -3.4630   -4.0130  -12.0950 hc        1 1XT      0.039367
     56 H20        -4.8220   -4.7840  -13.0150 hc        1 1XT      0.039367
     57 H21        -4.3510   -3.0660  -13.3570 hc        1 1XT      0.039367
@<TRIPOS>BOND
     1    1    2 1   
     2    1    3 1   
     3    1    4 1   
     4    4    5 2   
     5    4    8 1   
     6    5    6 1   
     7    5   38 1   
     8    6    7 2   
     9    6   39 1   
    10    7    8 1   
    11    7    9 1   
    12    9   10 ar  
    13    9   14 ar  
    14   10   11 ar  
    15   10   40 1   
    16   11   12 ar  
    17   11   41 1   
    18   12   13 ar  
    19   12   15 1   
    20   13   14 ar  
    21   13   42 1   
    22   14   43 1   
    23   15   16 1   
    24   15   44 1   
    25   15   45 1   
    26   16   17 1   
    27   17   18 ar  
    28   17   22 ar  
    29   18   19 ar  
    30   18   46 1   
    31   19   20 ar  
    32   19   47 1   
    33   20   21 ar  
    34   20   23 1   
    35   21   22 ar  
    36   21   48 1   
    37   22   49 1   
    38   23   24 2   
    39   23   27 1   
    40   24   25 1   
    41   24   50 1   
    42   25   26 2   
    43   25   35 1   
    44   26   27 1   
    45   27   28 1   
    46   28   29 ar  
    47   28   33 ar  
    48   29   30 ar  
    49   29   51 1   
    50   30   31 ar  
    51   30   34 1   
    52   31   32 ar  
    53   31   52 1   
    54   32   33 ar  
    55   32   53 1   
    56   33   54 1   
    57   34   55 1   
    58   34   56 1   
    59   34   57 1   
    60   35   36 1   
    61   35   37 1   
@<TRIPOS>SUBSTRUCTURE
     1 1XT         1 TEMP              0 ****  ****    0 ROOT
