@<TRIPOS>MOLECULE
1XT
   57    61     1     0     0
SMALL
bcc


@<TRIPOS>ATOM
      1 C01        -1.0520    1.5910   -0.2410 c         1 1XT      0.827100
      2 O02        -0.6850    2.7340   -0.6140 o         1 1XT     -0.804300
      3 O03        -1.3450    1.2630    0.9410 o         1 1XT     -0.804300
      4 C04        -1.1630    0.4880   -1.2780 cc        1 1XT      0.266200
      5 C05        -1.5400   -0.8490   -1.1740 cd        1 1XT     -0.311300
      6 C06        -1.4610   -1.4110   -2.4920 cd        1 1XT     -0.235300
      7 C07        -1.0400   -0.3930   -3.3410 cc        1 1XT      0.215200
      8 O08        -0.8520    0.7860   -2.5980 os        1 1XT     -0.326800
      9 C09        -0.7820   -0.3400   -4.7540 ca        1 1XT     -0.074500
     10 C10        -0.3240    0.8430   -5.3620 ca        1 1XT     -0.132000
     11 C11        -0.0830    0.8820   -6.7300 ca        1 1XT     -0.116000
     12 C12        -0.3020   -0.2530   -7.5230 ca        1 1XT     -0.116300
     13 C13        -0.7520   -1.4310   -6.9230 ca        1 1XT     -0.116000
     14 C14        -0.9890   -1.4760   -5.5520 ca        1 1XT     -0.132000
     15 C15        -0.0820   -0.1520   -8.9950 c3        1 1XT      0.181700
     16 O16         0.1720   -1.4680   -9.5080 os        1 1XT     -0.329900
     17 C17         0.2730   -1.5630  -10.8830 ca        1 1XT      0.120100
     18 C18         0.2430   -0.4790  -11.7680 ca        1 1XT     -0.187500
     19 C19         0.3510   -0.7110  -13.1380 ca        1 1XT     -0.088500
     20 C20         0.4890   -2.0130  -13.6390 ca        1 1XT     -0.034000
     21 C21         0.5320   -3.0890  -12.7380 ca        1 1XT     -0.088500
     22 C22         0.4240   -2.8760  -11.3700 ca        1 1XT     -0.187500
     23 C23         0.6430   -2.2120  -15.0670 cc        1 1XT     -0.085300
     24 C24         1.4800   -1.5040  -15.9340 cd        1 1XT     -0.248300
     25 C25         1.3370   -2.1470  -17.2360 cd        1 1XT      0.307800
     26 N26         0.4630   -3.1690  -17.1470 nc        1 1XT     -0.501800
     27 N27         0.0470   -3.2430  -15.8500 na        1 1XT      0.114300
     28 C28        -1.0370   -4.0680  -15.4670 ca        1 1XT      0.065800
     29 C29        -1.9810   -3.6430  -14.5090 ca        1 1XT     -0.161000
     30 C30        -3.0350   -4.4790  -14.1290 ca        1 1XT     -0.068300
     31 C31        -3.1700   -5.7400  -14.7150 ca        1 1XT     -0.164000
     32 C32        -2.2530   -6.1590  -15.6760 ca        1 1XT     -0.126000
     33 C33        -1.1930   -5.3440  -16.0580 ca        1 1XT     -0.135000
     34 C34        -4.0000   -4.0120  -13.1060 c3        1 1XT     -0.049800
     35 C35         2.0880   -1.7050  -18.4900 c         1 1XT      0.836100
     36 O36         2.8050   -2.5550  -19.0760 o         1 1XT     -0.811800
     37 O37         1.9540   -0.4980  -18.8270 o         1 1XT     -0.811800
     38 H2         -1.8350   -1.3580   -0.2630 ha        1 1XT      0.157000
     39 H3         -1.6880   -2.4360   -2.7670 ha        1 1XT      0.133000
     40 H4         -0.1580    1.7350   -4.7370 ha        1 1XT      0.144500
     41 H5          0.2800    1.8110   -7.1940 ha        1 1XT      0.130000
     42 H6         -0.9130   -2.3270   -7.5420 ha        1 1XT      0.130000
     43 H7         -1.3410   -2.4090   -5.0870 ha        1 1XT      0.144500
     44 H8          0.8010    0.5040   -9.2250 h1        1 1XT      0.041700
     45 H9         -0.9990    0.2700   -9.4910 h1        1 1XT      0.041700
     46 H10         0.1390    0.5510  -11.4020 ha        1 1XT      0.137500
     47 H11         0.3340    0.1370  -13.8400 ha        1 1XT      0.143500
     48 H12         0.6510   -4.1140  -13.1230 ha        1 1XT      0.143500
     49 H13         0.4580   -3.7130  -10.6600 ha        1 1XT      0.137500
     50 H14         2.1220   -0.6590  -15.7140 ha        1 1XT      0.165000
     51 H15        -1.8930   -2.6460  -14.0490 ha        1 1XT      0.149000
     52 H16        -3.9990   -6.3980  -14.4200 ha        1 1XT      0.117000
     53 H17        -2.3650   -7.1490  -16.1420 ha        1 1XT      0.119000
     54 H18        -0.4840   -5.6900  -16.8260 ha        1 1XT      0.160000
     55 H19        -3.5010   -3.9570  -12.1050 hc        1 1XT      0.039367
     56 H20        -4.8740   -4.7030  -13.0260 hc        1 1XT      0.039367
     57 H21        -4.3780   -2.9910  -13.3610 hc        1 1XT      0.039367
@<TRIPOS>BOND
     1    1    2 1   
     2    1    3 1   
     3    1    4 1   
     4    4    5 2   
     5    4    8 1   
     6    5    6 1   
     7    5   38 1   
     8    6    7 2   
     9    6   39 1   
    10    7    8 1   
    11    7    9 1   
    12    9   10 ar  
    13    9   14 ar  
    14   10   11 ar  
    15   10   40 1   
    16   11   12 ar  
    17   11   41 1   
    18   12   13 ar  
    19   12   15 1   
    20   13   14 ar  
    21   13   42 1   
    22   14   43 1   
    23   15   16 1   
    24   15   44 1   
    25   15   45 1   
    26   16   17 1   
    27   17   18 ar  
    28   17   22 ar  
    29   18   19 ar  
    30   18   46 1   
    31   19   20 ar  
    32   19   47 1   
    33   20   21 ar  
    34   20   23 1   
    35   21   22 ar  
    36   21   48 1   
    37   22   49 1   
    38   23   24 2   
    39   23   27 1   
    40   24   25 1   
    41   24   50 1   
    42   25   26 2   
    43   25   35 1   
    44   26   27 1   
    45   27   28 1   
    46   28   29 ar  
    47   28   33 ar  
    48   29   30 ar  
    49   29   51 1   
    50   30   31 ar  
    51   30   34 1   
    52   31   32 ar  
    53   31   52 1   
    54   32   33 ar  
    55   32   53 1   
    56   33   54 1   
    57   34   55 1   
    58   34   56 1   
    59   34   57 1   
    60   35   36 1   
    61   35   37 1   
@<TRIPOS>SUBSTRUCTURE
     1 1XT         1 TEMP              0 ****  ****    0 ROOT
