@<TRIPOS>MOLECULE
1XT
   57    46     1     0     0
SMALL
bcc


@<TRIPOS>ATOM
      1 C01        10.6090   -3.0780   -0.9410 c1        1 1XT      0.390500
      2 O02        11.1200   -4.2290   -0.9700 o         1 1XT     -0.543000
      3 O03        11.2310   -2.1000   -1.4340 o         1 1XT     -0.543000
      4 C04         9.2720   -2.8600   -0.2600 c1        1 1XT     -0.052500
      5 C05         9.0720   -2.6790    1.0930 c1        1 1XT     -0.208000
      6 C06         7.7360   -2.4740    1.2970 c1        1 1XT     -0.208000
      7 C07         7.1050   -2.5280    0.0720 c1        1 1XT     -0.052500
      8 O08         8.0560   -2.7660   -0.8850 os        1 1XT     -0.068000
      9 C09         5.6170   -2.3470   -0.1740 c1        1 1XT      0.071500
     10 C10         5.0960   -1.0780   -0.3730 c1        1 1XT     -0.152500
     11 C11         3.7310   -0.9080   -0.5560 c1        1 1XT     -0.118500
     12 C12         2.8880   -2.0090   -0.5410 c1        1 1XT     -0.089500
     13 C13         3.4090   -3.2790   -0.3420 c2        1 1XT     -0.145000
     14 C14         4.7740   -3.4480   -0.1590 c1        1 1XT     -0.119500
     15 C15         1.4100   -1.8370   -0.8590 c2        1 1XT      0.024000
     16 O16         0.8350   -0.9240    0.0530 os        1 1XT     -0.213000
     17 C17        -0.5270   -0.6390   -0.2020 c2        1 1XT      0.075000
     18 C18        -1.4830   -0.9000    0.7680 c2        1 1XT     -0.164000
     19 C19        -2.8030   -0.5240    0.5620 c1        1 1XT     -0.090000
     20 C20        -3.1670    0.1130   -0.6140 c1        1 1XT     -0.034000
     21 C21        -2.2110    0.3750   -1.5850 c1        1 1XT     -0.087000
     22 C22        -0.8910   -0.0010   -1.3790 c1        1 1XT     -0.210000
     23 C23        -4.6200    0.4780   -0.8620 c2        1 1XT     -0.061000
     24 C24        -5.5330   -0.2800   -1.5330 c1        1 1XT     -0.183000
     25 C25        -6.6990    0.4270   -1.6000 c1        1 1XT     -0.111000
     26 N26        -6.5080    1.6070   -0.9770 n2        1 1XT     -0.069000
     27 N27        -5.2150    1.6400   -0.5180 n2        1 1XT     -0.125000
     28 C28        -4.6310    2.6800    0.2500 c1        1 1XT      0.071500
     29 C29        -5.1470    2.9930    1.4980 c1        1 1XT     -0.118500
     30 C30        -4.6370    4.0680    2.2090 c1        1 1XT     -0.089500
     31 C31        -3.6120    4.8300    1.6730 c2        1 1XT     -0.145000
     32 C32        -3.0960    4.5180    0.4250 c1        1 1XT     -0.119500
     33 C33        -3.6060    3.4430   -0.2860 c1        1 1XT     -0.152500
     34 C34        -5.2350    4.4390    3.5490 c2        1 1XT     -0.172000
     35 C35        -7.9870   -0.0410   -2.2440 c1        1 1XT      0.390500
     36 O36        -8.2960    0.3610   -3.3960 o         1 1XT     -0.543000
     37 O37        -8.7730   -0.7900   -1.6070 o         1 1XT     -0.543000
     38 H2          9.7630   -2.6940    1.7830 DU        1 1XT      0.151667
     39 H3          7.3040   -2.3210    2.1600 DU        1 1XT      0.151667
     40 H4          5.6900   -0.3030   -0.3830 ha        1 1XT      0.138500
     41 H5          3.3650   -0.0150   -0.6960 ha        1 1XT      0.149500
     42 H6          2.8160   -4.0540   -0.3320 ha        1 1XT      0.120000
     43 H7          5.1410   -4.3420   -0.0190 ha        1 1XT      0.142000
     44 H8          1.3100   -1.4930   -1.7710 h4        1 1XT      0.081000
     45 H9          0.9570   -2.7020   -0.7850 h4        1 1XT      0.081000
     46 H10        -1.2270   -1.3490    1.5970 ha        1 1XT      0.142000
     47 H11        -3.4780   -0.7210    1.2400 ha        1 1XT      0.143000
     48 H12        -2.4680    0.8240   -2.4130 ha        1 1XT      0.144000
     49 H13        -0.2190    0.1830   -2.0620 ha        1 1XT      0.133000
     50 H14        -5.3800   -1.1710   -1.9020 DU        1 1XT      0.151667
     51 H15        -5.8960    2.4810    1.8580 ha        1 1XT      0.149500
     52 H16        -3.2530    5.5870    2.1730 ha        1 1XT      0.120000
     53 H17        -2.3700    5.0510    0.0500 ha        1 1XT      0.142000
     54 H18        -3.2420    3.2240   -1.1660 ha        1 1XT      0.138500
     55 H19        -5.0970    5.3950    3.7150 ha        1 1XT      0.076000
     56 H20        -4.8000    3.9190    4.2570 ha        1 1XT      0.076000
     57 H21        -6.1960    4.2440    3.5440 ha        1 1XT      0.076000
@<TRIPOS>BOND
     1    1    2 1   
     2    1    3 1   
     3    4    5 1   
     4    4    8 1   
     5    5    6 1   
     6    6    7 1   
     7    7    8 1   
     8    9   10 1   
     9   10   40 1   
    10   11   12 1   
    11   11   41 1   
    12   12   13 1   
    13   13   14 1   
    14   13   42 1   
    15   14   43 1   
    16   15   16 1   
    17   15   44 1   
    18   15   45 1   
    19   16   17 1   
    20   17   18 1   
    21   17   22 1   
    22   18   19 1   
    23   18   46 1   
    24   19   47 1   
    25   20   21 1   
    26   20   23 1   
    27   21   48 1   
    28   22   49 1   
    29   23   24 1   
    30   23   27 1   
    31   24   25 1   
    32   25   26 1   
    33   26   27 1   
    34   28   33 1   
    35   29   30 1   
    36   29   51 1   
    37   30   31 1   
    38   31   32 1   
    39   31   52 1   
    40   32   53 1   
    41   33   54 1   
    42   34   55 1   
    43   34   56 1   
    44   34   57 1   
    45   35   36 1   
    46   35   37 1   
@<TRIPOS>SUBSTRUCTURE
     1 1XT         1 TEMP              0 ****  ****    0 ROOT
