@<TRIPOS>MOLECULE
1XT
   57    61     1     0     0
SMALL
bcc


@<TRIPOS>ATOM
      1 C01       -10.4670    0.8810   -0.8530 c         1 1XT      0.827100
      2 O02       -10.3090    2.0520   -1.2810 o         1 1XT     -0.804300
      3 O03       -11.5740    0.2940   -0.7100 o         1 1XT     -0.804300
      4 C04        -9.2400    0.0760   -0.4650 cc        1 1XT      0.266200
      5 C05        -9.0970   -1.2190    0.0260 cd        1 1XT     -0.311300
      6 C06        -7.6910   -1.4470    0.2080 cd        1 1XT     -0.235300
      7 C07        -7.0400   -0.2810   -0.1810 cc        1 1XT      0.215200
      8 O08        -7.9910    0.6680   -0.5980 os        1 1XT     -0.326800
      9 C09        -5.6550    0.0970   -0.2290 ca        1 1XT     -0.074500
     10 C10        -5.2690    1.3850   -0.6440 ca        1 1XT     -0.132000
     11 C11        -3.9250    1.7360   -0.6900 ca        1 1XT     -0.116000
     12 C12        -2.9360    0.8100   -0.3320 ca        1 1XT     -0.116300
     13 C13        -3.3140   -0.4680    0.0860 ca        1 1XT     -0.116000
     14 C14        -4.6590   -0.8220    0.1400 ca        1 1XT     -0.132000
     15 C15        -1.5040    1.2120   -0.4460 c3        1 1XT      0.181700
     16 O16        -0.7280    0.3850    0.4340 os        1 1XT     -0.329900
     17 C17         0.6420    0.5470    0.3520 ca        1 1XT      0.120100
     18 C18         1.2920    1.5050   -0.4350 ca        1 1XT     -0.187500
     19 C19         2.6840    1.5620   -0.4320 ca        1 1XT     -0.088500
     20 C20         3.4390    0.6750    0.3460 ca        1 1XT     -0.034000
     21 C21         2.7730   -0.2710    1.1420 ca        1 1XT     -0.088500
     22 C22         1.3860   -0.3430    1.1500 ca        1 1XT     -0.187500
     23 C23         4.8850    0.7930    0.3590 cc        1 1XT     -0.085300
     24 C24         5.6360    1.9640    0.4880 cd        1 1XT     -0.248300
     25 C25         7.0300    1.5370    0.5360 cd        1 1XT      0.307800
     26 N26         7.1010    0.1950    0.4330 nc        1 1XT     -0.501800
     27 N27         5.8240   -0.2790    0.3460 na        1 1XT      0.114300
     28 C28         5.5560   -1.6260    0.0070 ca        1 1XT      0.065800
     29 C29         4.4860   -1.9720   -0.8440 ca        1 1XT     -0.161000
     30 C30         4.2250   -3.3090   -1.1520 ca        1 1XT     -0.068300
     31 C31         5.0410   -4.3170   -0.6310 ca        1 1XT     -0.164000
     32 C32         6.1130   -3.9820    0.1940 ca        1 1XT     -0.126000
     33 C33         6.3800   -2.6570    0.5190 ca        1 1XT     -0.135000
     34 C34         3.0810   -3.6420   -2.0330 c3        1 1XT     -0.049800
     35 C35         8.2090    2.4960    0.6880 c         1 1XT      0.836100
     36 O36         8.9870    2.3210    1.6610 o         1 1XT     -0.811800
     37 O37         8.2950    3.4180   -0.1660 o         1 1XT     -0.811800
     38 H2         -9.9030   -1.9160    0.2300 ha        1 1XT      0.157000
     39 H3         -7.2320   -2.3570    0.5790 ha        1 1XT      0.133000
     40 H4         -6.0490    2.1090   -0.9300 ha        1 1XT      0.144500
     41 H5         -3.6370    2.7470   -1.0120 ha        1 1XT      0.130000
     42 H6         -2.5390   -1.1930    0.3800 ha        1 1XT      0.130000
     43 H7         -4.9480   -1.8300    0.4730 ha        1 1XT      0.144500
     44 H8         -1.1490    1.0650   -1.5030 h1        1 1XT      0.041700
     45 H9         -1.3640    2.2870   -0.1510 h1        1 1XT      0.041700
     46 H10         0.7240    2.2140   -1.0520 ha        1 1XT      0.137500
     47 H11         3.2020    2.3170   -1.0450 ha        1 1XT      0.143500
     48 H12         3.3590   -0.9640    1.7660 ha        1 1XT      0.143500
     49 H13         0.8590   -1.0790    1.7710 ha        1 1XT      0.137500
     50 H14         5.2870    2.9880    0.5550 ha        1 1XT      0.165000
     51 H15         3.8420   -1.1860   -1.2710 ha        1 1XT      0.149000
     52 H16         4.8400   -5.3690   -0.8750 ha        1 1XT      0.117000
     53 H17         6.7600   -4.7750    0.5970 ha        1 1XT      0.119000
     54 H18         7.2370   -2.4130    1.1660 ha        1 1XT      0.160000
     55 H19         2.1160   -3.4350   -1.5040 hc        1 1XT      0.039367
     56 H20         3.1070   -3.0180   -2.9610 hc        1 1XT      0.039367
     57 H21         3.0960   -4.7190   -2.3290 hc        1 1XT      0.039367
@<TRIPOS>BOND
     1    1    2 1   
     2    1    3 1   
     3    1    4 1   
     4    4    5 2   
     5    4    8 1   
     6    5    6 1   
     7    5   38 1   
     8    6    7 2   
     9    6   39 1   
    10    7    8 1   
    11    7    9 1   
    12    9   10 ar  
    13    9   14 ar  
    14   10   11 ar  
    15   10   40 1   
    16   11   12 ar  
    17   11   41 1   
    18   12   13 ar  
    19   12   15 1   
    20   13   14 ar  
    21   13   42 1   
    22   14   43 1   
    23   15   16 1   
    24   15   44 1   
    25   15   45 1   
    26   16   17 1   
    27   17   18 ar  
    28   17   22 ar  
    29   18   19 ar  
    30   18   46 1   
    31   19   20 ar  
    32   19   47 1   
    33   20   21 ar  
    34   20   23 1   
    35   21   22 ar  
    36   21   48 1   
    37   22   49 1   
    38   23   24 2   
    39   23   27 1   
    40   24   25 1   
    41   24   50 1   
    42   25   26 2   
    43   25   35 1   
    44   26   27 1   
    45   27   28 1   
    46   28   29 ar  
    47   28   33 ar  
    48   29   30 ar  
    49   29   51 1   
    50   30   31 ar  
    51   30   34 1   
    52   31   32 ar  
    53   31   52 1   
    54   32   33 ar  
    55   32   53 1   
    56   33   54 1   
    57   34   55 1   
    58   34   56 1   
    59   34   57 1   
    60   35   36 1   
    61   35   37 1   
@<TRIPOS>SUBSTRUCTURE
     1 1XT         1 TEMP              0 ****  ****    0 ROOT
