@<TRIPOS>MOLECULE
1XU
   56    60     1     0     0
SMALL
bcc


@<TRIPOS>ATOM
      1 C01        -0.3030   -1.1890    0.5710 cc        1 1XU      0.303200
      2 C02         0.9620   -1.8730    0.6980 cc        1 1XU     -0.260300
      3 C03         1.6960   -1.1120    1.6260 cd        1 1XU     -0.076300
      4 N04         0.8560   -0.0350    2.0030 na        1 1XU      0.158300
      5 N05        -0.3250   -0.0880    1.3610 nd        1 1XU     -0.476800
      6 C06         1.2270    1.0750    2.8180 ca        1 1XU      0.016800
      7 C07         3.0120   -1.4090    2.1570 ca        1 1XU      0.021000
      8 C08         2.4620    1.7250    2.6210 ca        1 1XU     -0.126000
      9 C09         2.8100    2.8080    3.4200 ca        1 1XU     -0.111000
     10 C10         1.9400    3.2690    4.4140 ca        1 1XU      0.017400
     11 C11         0.7020    2.6350    4.6010 ca        1 1XU      0.020400
     12 C12         0.3410    1.5440    3.8050 ca        1 1XU     -0.103000
     13 CL1        -0.3830    3.1700    5.7860 cl        1 1XU     -0.049400
     14 CL2         2.4020    4.5900    5.3670 cl        1 1XU     -0.050400
     15 C15         3.3010   -1.2640    3.5220 ca        1 1XU     -0.111500
     16 C16         4.5570   -1.6080    4.0130 ca        1 1XU     -0.104000
     17 C17         5.5380   -2.1060    3.1470 ca        1 1XU     -0.170300
     18 C18         5.2550   -2.2520    1.7860 ca        1 1XU     -0.104000
     19 C19         4.0000   -1.9050    1.2920 ca        1 1XU     -0.111500
     20 C20         6.8920   -2.4470    3.6720 c3        1 1XU      0.159100
     21 N21         6.8830   -3.7480    4.4090 n4        1 1XU     -0.624800
     22 C22         8.2550   -4.1320    4.9310 c         1 1XU      0.208000
     23 C23         9.2280   -4.3420    3.9130 ca        1 1XU     -0.242600
     24 C24         8.8720   -4.8110    2.6120 ca        1 1XU     -0.080000
     25 C25         9.7920   -4.9700    1.6160 ca        1 1XU     -0.156000
     26 C26        11.1710   -4.6600    1.8340 ca        1 1XU      0.051500
     27 C27        11.5520   -4.2460    3.1390 ca        1 1XU     -0.199000
     28 C28        10.6190   -4.1030    4.1450 ca        1 1XU      0.124400
     29 S29         8.3350   -4.2250    6.4780 s         1 1XU     -0.221400
     30 C30        12.0970   -4.7560    0.8000 cc        1 1XU      0.125200
     31 C31        13.4980   -4.5380    0.6880 cd        1 1XU     -0.105300
     32 C32        13.8580   -4.7770   -0.6450 cd        1 1XU     -0.329300
     33 C33        12.6680   -5.1400   -1.3410 cc        1 1XU      0.395200
     34 O34        11.6120   -5.1390   -0.4860 os        1 1XU     -0.322800
     35 C35        12.3820   -5.4830   -2.8340 c         1 1XU      0.835100
     36 O36        11.8660   -4.5510   -3.4830 o         1 1XU     -0.737800
     37 O37        12.7150   -6.6340   -3.1760 o         1 1XU     -0.737800
     38 CL3        11.1790   -3.5720    5.6560 cl        1 1XU     -0.052400
     39 H1         -1.1540   -1.4690   -0.0520 h4        1 1XU      0.056100
     40 H2          1.2680   -2.7840    0.1960 ha        1 1XU      0.173000
     41 H3          3.1550    1.3840    1.8350 ha        1 1XU      0.156000
     42 H4          3.7760    3.3130    3.2590 ha        1 1XU      0.160000
     43 H5         -0.6440    1.0660    3.9500 ha        1 1XU      0.176000
     44 H6          2.5320   -0.8750    4.2090 ha        1 1XU      0.159500
     45 H7          4.7780   -1.4760    5.0830 ha        1 1XU      0.144500
     46 H8          6.0270   -2.6290    1.0940 ha        1 1XU      0.144500
     47 H9          3.7800   -2.0170    0.2180 ha        1 1XU      0.159500
     48 H10         7.2510   -1.6520    4.3880 hx        1 1XU      0.112200
     49 H11         7.6430   -2.5330    2.8320 hx        1 1XU      0.112200
     50 H12         6.2510   -3.6750    5.2240 hn        1 1XU      0.440800
     51 H13         7.8330   -5.1070    2.3960 ha        1 1XU      0.112000
     52 H14         9.4980   -5.3470    0.6210 ha        1 1XU      0.177000
     53 H15        12.6170   -4.0370    3.3330 ha        1 1XU      0.163000
     54 H16        14.1540   -4.2400    1.5050 ha        1 1XU      0.159000
     55 H17        14.8480   -4.7100   -1.0910 ha        1 1XU      0.182000
     56 H212        6.5220   -4.4780    3.7860 hn        1 1XU      0.440800
@<TRIPOS>BOND
     1    1    2 1   
     2    1    5 2   
     3    1   39 1   
     4    2    3 2   
     5    2   40 1   
     6    3    4 1   
     7    3    7 1   
     8    4    5 1   
     9    4    6 1   
    10    6    8 ar  
    11    6   12 ar  
    12    7   15 ar  
    13    7   19 ar  
    14    8    9 ar  
    15    8   41 1   
    16    9   10 ar  
    17    9   42 1   
    18   10   11 ar  
    19   10   14 1   
    20   11   12 ar  
    21   11   13 1   
    22   12   43 1   
    23   15   16 ar  
    24   15   44 1   
    25   16   17 ar  
    26   16   45 1   
    27   17   18 ar  
    28   17   20 1   
    29   18   19 ar  
    30   18   46 1   
    31   19   47 1   
    32   20   21 1   
    33   20   48 1   
    34   20   49 1   
    35   21   22 1   
    36   21   50 1   
    37   21   56 1   
    38   22   23 1   
    39   22   29 2   
    40   23   24 ar  
    41   23   28 ar  
    42   24   25 ar  
    43   24   51 1   
    44   25   26 ar  
    45   25   52 1   
    46   26   27 ar  
    47   26   30 1   
    48   27   28 ar  
    49   27   53 1   
    50   28   38 1   
    51   30   31 2   
    52   30   34 1   
    53   31   32 1   
    54   31   54 1   
    55   32   33 2   
    56   32   55 1   
    57   33   34 1   
    58   33   35 1   
    59   35   36 1   
    60   35   37 1   
@<TRIPOS>SUBSTRUCTURE
     1 1XU         1 TEMP              0 ****  ****    0 ROOT
