@<TRIPOS>MOLECULE
1XU
   56    60     1     0     0
SMALL
bcc


@<TRIPOS>ATOM
      1 C01        -0.3430   -1.3050    0.6680 cc        1 1XU      0.303200
      2 C02         0.9340   -1.9700    0.7840 cc        1 1XU     -0.260300
      3 C03         1.6730   -1.1830    1.6870 cd        1 1XU     -0.076300
      4 N04         0.8240   -0.1110    2.0600 na        1 1XU      0.158300
      5 N05        -0.3670   -0.1920    1.4390 nd        1 1XU     -0.476800
      6 C06         1.1930    1.0180    2.8490 ca        1 1XU      0.016800
      7 C07         3.0010   -1.4530    2.2000 ca        1 1XU      0.021000
      8 C08         2.4160    1.6810    2.6200 ca        1 1XU     -0.126000
      9 C09         2.7620    2.7810    3.3940 ca        1 1XU     -0.111000
     10 C10         1.9020    3.2480    4.3950 ca        1 1XU      0.017400
     11 C11         0.6770    2.6010    4.6140 ca        1 1XU      0.020400
     12 C12         0.3170    1.4910    3.8440 ca        1 1XU     -0.103000
     13 Cl1        -0.3960    3.1410    5.8080 cl        1 1XU     -0.049400
     14 Cl2         2.3630    4.5910    5.3170 cl        1 1XU     -0.050400
     15 C15         3.3110   -1.2800    3.5570 ca        1 1XU     -0.111500
     16 C16         4.5800   -1.5990    4.0320 ca        1 1XU     -0.103500
     17 C17         5.5520   -2.0990    3.1590 ca        1 1XU     -0.170300
     18 C18         5.2490   -2.2730    1.8050 ca        1 1XU     -0.103500
     19 C19         3.9810   -1.9510    1.3270 ca        1 1XU     -0.111500
     20 C20         6.9200   -2.4130    3.6660 c3        1 1XU      0.159100
     21 N21         6.9400   -3.7000    4.4270 ny        1 1XU     -0.624800
     22 C22         8.3270   -4.0570    4.9310 c         1 1XU      0.208000
     23 C23         9.2840   -4.2730    3.9010 ca        1 1XU     -0.242600
     24 C24         8.9120   -4.7720    2.6160 ca        1 1XU     -0.080000
     25 C25         9.8160   -4.9370    1.6060 ca        1 1XU     -0.156000
     26 C26        11.1940   -4.6060    1.7940 ca        1 1XU      0.051500
     27 C27        11.5930   -4.1630    3.0840 ca        1 1XU     -0.199000
     28 C28        10.6750   -4.0130    4.1030 ca        1 1XU      0.124400
     29 S29         8.4350   -4.1190    6.4790 s         1 1XU     -0.221400
     30 C30        12.1030   -4.7110    0.7450 cc        1 1XU      0.125200
     31 C31        13.5000   -4.4770    0.6040 cd        1 1XU     -0.105300
     32 C32        13.8390   -4.7370   -0.7300 cd        1 1XU     -0.329300
     33 C33        12.6410   -5.1280   -1.3980 cc        1 1XU      0.395200
     34 O34        11.6010   -5.1230   -0.5240 os        1 1XU     -0.322800
     35 C35        12.3340   -5.5030   -2.8790 c         1 1XU      0.835100
     36 O36        11.7950   -4.5900   -3.5360 o         1 1XU     -0.737800
     37 O37        12.6750   -6.6560   -3.2040 o         1 1XU     -0.737800
     38 Cl3        11.2550   -3.4460    5.5940 cl        1 1XU     -0.052400
     39 H1         -1.2000   -1.6080    0.0640 h4        1 1XU      0.056100
     40 H2          1.2430   -2.8850    0.2930 ha        1 1XU      0.173000
     41 H3          3.1000    1.3350    1.8290 ha        1 1XU      0.156000
     42 H4          3.7180    3.2970    3.2090 ha        1 1XU      0.160000
     43 H5         -0.6580    1.0020    4.0130 ha        1 1XU      0.176000
     44 H6          2.5490   -0.8890    4.2500 ha        1 1XU      0.159500
     45 H7          4.8170   -1.4440    5.0960 ha        1 1XU      0.144500
     46 H8          6.0130   -2.6520    1.1070 ha        1 1XU      0.144500
     47 H9          3.7440   -2.0850    0.2590 ha        1 1XU      0.159500
     48 H10         7.2810   -1.6000    4.3600 hx        1 1XU      0.112200
     49 H11         7.6580   -2.5050    2.8150 hx        1 1XU      0.112200
     50 H12         6.3220   -3.6190    5.2510 hn        1 1XU      0.440800
     51 H13         7.8730   -5.0840    2.4240 ha        1 1XU      0.112000
     52 H14         9.5090   -5.3370    0.6240 ha        1 1XU      0.177000
     53 H15        12.6580   -3.9370    3.2550 ha        1 1XU      0.163000
     54 H16        14.1660   -4.1560    1.4040 ha        1 1XU      0.159000
     55 H17        14.8200   -4.6660   -1.1950 ha        1 1XU      0.182000
     56 H212        6.5780   -4.4450    3.8240 hn        1 1XU      0.440800
@<TRIPOS>BOND
     1    1    2 1   
     2    1    5 2   
     3    1   39 1   
     4    2    3 2   
     5    2   40 1   
     6    3    4 1   
     7    3    7 1   
     8    4    5 1   
     9    4    6 1   
    10    6    8 ar  
    11    6   12 ar  
    12    7   15 ar  
    13    7   19 ar  
    14    8    9 ar  
    15    8   41 1   
    16    9   10 ar  
    17    9   42 1   
    18   10   11 ar  
    19   10   14 1   
    20   11   12 ar  
    21   11   13 1   
    22   12   43 1   
    23   15   16 ar  
    24   15   44 1   
    25   16   17 ar  
    26   16   45 1   
    27   17   18 ar  
    28   17   20 1   
    29   18   19 ar  
    30   18   46 1   
    31   19   47 1   
    32   20   21 1   
    33   20   48 1   
    34   20   49 1   
    35   21   22 1   
    36   21   50 1   
    37   21   56 1   
    38   22   23 1   
    39   22   29 2   
    40   23   24 ar  
    41   23   28 ar  
    42   24   25 ar  
    43   24   51 1   
    44   25   26 ar  
    45   25   52 1   
    46   26   27 ar  
    47   26   30 1   
    48   27   28 ar  
    49   27   53 1   
    50   28   38 1   
    51   30   31 2   
    52   30   34 1   
    53   31   32 1   
    54   31   54 1   
    55   32   33 2   
    56   32   55 1   
    57   33   34 1   
    58   33   35 1   
    59   35   36 1   
    60   35   37 1   
@<TRIPOS>SUBSTRUCTURE
     1 1XU         1 TEMP              0 ****  ****    0 ROOT
