@<TRIPOS>MOLECULE
1XU
   55    42     1     0     0
SMALL
bcc


@<TRIPOS>ATOM
      1 C01        -6.9050   -0.4450   -0.7130 c1        1 1XU     -0.087500
      2 C02        -5.5750   -0.7520   -0.6130 c1        1 1XU     -0.215000
      3 C03        -5.0600   -0.0550    0.4460 c1        1 1XU     -0.087500
      4 N04        -6.0620    0.6750    0.9930 n2        1 1XU     -0.080500
      5 N05        -7.2070    0.4330    0.2730 n2        1 1XU     -0.080500
      6 C06        -5.9420    1.5670    2.1040 c1        1 1XU      0.082000
      7 C07        -3.5760   -0.0210    0.8730 c1        1 1XU     -0.042000
      8 C08        -5.3470    2.8180    2.1450 c1        1 1XU     -0.126000
      9 C09        -5.3990    3.5730    3.3080 c1        1 1XU     -0.105000
     10 C10        -6.0470    3.0770    4.4300 c1        1 1XU     -0.068000
     11 C11        -6.6420    1.8260    4.3880 c1        1 1XU     -0.055000
     12 C12        -6.5900    1.0700    3.2260 c2        1 1XU     -0.112000
     13 CL1        -7.4950    1.2190    5.7850 cl        1 1XU     -0.019500
     14 CL2        -5.9760    3.9570    5.9350 cl        1 1XU      0.012000
     15 C15        -3.0950   -0.7910    1.9280 c1        1 1XU     -0.107000
     16 C16        -1.7400   -0.7460    2.2640 c1        1 1XU     -0.126000
     17 C17        -0.8710    0.0680    1.5440 c1        1 1XU     -0.084000
     18 C18        -1.3540    0.8370    0.4890 c1        1 1XU     -0.117000
     19 C19        -2.7080    0.7920    0.1530 c2        1 1XU     -0.110000
     20 C20         0.6220    0.1830    1.9690 c3        1 1XU     -0.020000
     21 N21         1.4290   -0.6850    1.1380 n         1 1XU     -0.292000
     22 C22         2.8720   -0.6880    1.2790 c2        1 1XU      0.084000
     23 C23         3.7640   -0.8400    0.0370 c2        1 1XU     -0.140000
     24 C24         4.1410   -2.1040   -0.3980 c2        1 1XU     -0.068000
     25 C25         4.9360   -2.2410   -1.5320 c1        1 1XU     -0.131000
     26 C26         5.3520   -1.1130   -2.2290 c1        1 1XU      0.079000
     27 C27         4.9740    0.1500   -1.7940 c1        1 1XU     -0.150000
     28 C28         4.1800    0.2870   -0.6600 c1        1 1XU     -0.033000
     29 S29         3.5660   -0.5900    2.8020 s         1 1XU     -0.231000
     30 C30         6.1910   -1.2660   -3.5010 c1        1 1XU     -0.061000
     31 C31         5.7140   -1.2410   -4.7980 c1        1 1XU     -0.195000
     32 C32         6.7850   -1.3490   -5.6450 c1        1 1XU     -0.195000
     33 C33         7.9300   -1.4410   -4.8760 c1        1 1XU     -0.061000
     34 O34         7.5590   -1.3900   -3.5540 os        1 1XU     -0.062000
     35 C35         9.3580   -1.5350   -5.4020 c1        1 1XU      0.386000
     36 O36         9.9080   -0.5220   -5.9150 os        1 1XU     -0.533000
     37 O37        10.0050   -2.6110   -5.2810 o         1 1XU     -0.520000
     38 CL3         4.1690    1.9920   -0.2990 cl        1 1XU     -0.019500
     39 H1         -7.5300   -0.7980   -1.3820 DU        1 1XU      0.163750
     40 H2         -5.0820   -1.3610   -1.1940 DU        1 1XU      0.163750
     41 H3         -4.8850    3.1650    1.3580 ha        1 1XU      0.163000
     42 H4         -4.9790    4.4550    3.3370 ha        1 1XU      0.159000
     43 H5         -7.0100    0.1900    3.1970 ha        1 1XU      0.173000
     44 H6         -3.7060   -1.3630    2.4340 ha        1 1XU      0.141000
     45 H7         -1.3980   -1.3070    2.9820 ha        1 1XU      0.138000
     46 H8         -0.7450    1.4080   -0.0170 ha        1 1XU      0.156000
     47 H9         -3.0450    1.3320   -0.5890 ha        1 1XU      0.144000
     48 H10         0.9210    1.1100    1.8590 h1        1 1XU      0.124500
     49 H11         0.7160   -0.0820    2.9090 h1        1 1XU      0.124500
     50 H12         1.0320   -1.2140    0.5120 hn        1 1XU      0.237000
     51 H13         3.9130   -2.8900    0.1340 ha        1 1XU      0.151000
     52 H14         5.1420   -3.1300   -1.8780 ha        1 1XU      0.176000
     53 H15         5.2720    0.9420   -2.2780 ha        1 1XU      0.150000
     54 H16         4.7770   -1.1610   -5.0630 DU        1 1XU      0.163750
     55 H17         6.7440   -1.3940   -6.6220 DU        1 1XU      0.163750
@<TRIPOS>BOND
     1    1    2 1   
     2    1    5 1   
     3    2    3 1   
     4    3    4 1   
     5    4    5 1   
     6    6    8 1   
     7    6   12 1   
     8    7   15 1   
     9    7   19 1   
    10    8   41 1   
    11    9   10 1   
    12    9   42 1   
    13   10   14 1   
    14   11   12 1   
    15   12   43 1   
    16   15   44 1   
    17   16   17 1   
    18   16   45 1   
    19   17   20 1   
    20   18   19 1   
    21   18   46 1   
    22   19   47 1   
    23   20   21 1   
    24   20   48 1   
    25   20   49 1   
    26   21   22 1   
    27   21   50 1   
    28   22   23 1   
    29   22   29 1   
    30   23   24 1   
    31   23   28 1   
    32   24   25 1   
    33   24   51 1   
    34   25   52 1   
    35   26   27 1   
    36   27   53 1   
    37   30   31 1   
    38   30   34 1   
    39   31   32 1   
    40   32   33 1   
    41   33   34 1   
    42   35   37 1   
@<TRIPOS>SUBSTRUCTURE
     1 1XU         1 TEMP              0 ****  ****    0 ROOT
