@<TRIPOS>MOLECULE
1XU
   55    59     1     0     0
SMALL
bcc


@<TRIPOS>ATOM
      1 C01         5.2020    3.4250   -2.9180 cc        1 1XU      0.301200
      2 C02         3.9340    2.7300   -2.9140 cc        1 1XU     -0.279300
      3 C03         4.1370    1.6070   -2.0980 cd        1 1XU     -0.035300
      4 N04         5.4850    1.6750   -1.6610 na        1 1XU      0.149300
      5 N05         6.1060    2.7650   -2.1580 nd        1 1XU     -0.505800
      6 C06         6.1560    0.7270   -0.8390 ca        1 1XU      0.039800
      7 C07         3.1670    0.5900   -1.7260 ca        1 1XU     -0.040000
      8 C08         5.8730   -0.6500   -0.9570 ca        1 1XU     -0.129000
      9 C09         6.5340   -1.5680   -0.1510 ca        1 1XU     -0.106000
     10 C10         7.4960   -1.1450    0.7720 ca        1 1XU      0.010400
     11 C11         7.7890    0.2220    0.8860 ca        1 1XU      0.025400
     12 C12         7.1250    1.1570    0.0890 ca        1 1XU     -0.111000
     13 CL1         8.9510    0.7760    1.9920 cl        1 1XU     -0.067400
     14 CL2         8.2850   -2.2980    1.7320 cl        1 1XU     -0.068400
     15 C15         2.6010    0.5800   -0.4450 ca        1 1XU     -0.111000
     16 C16         1.6310   -0.3650   -0.1180 ca        1 1XU     -0.119500
     17 C17         1.2190   -1.3080   -1.0670 ca        1 1XU     -0.098300
     18 C18         1.7800   -1.2960   -2.3460 ca        1 1XU     -0.119500
     19 C19         2.7520   -0.3530   -2.6770 ca        1 1XU     -0.111000
     20 C20         0.1950   -2.3420   -0.6900 c3        1 1XU      0.119300
     21 N21        -1.1510   -1.8390   -0.6040 n         1 1XU     -0.482900
     22 C22        -1.7290   -1.4430    0.5680 c         1 1XU      0.464000
     23 C23        -3.1380   -1.0010    0.4620 ca        1 1XU     -0.162600
     24 C24        -3.4820    0.2700    0.9490 ca        1 1XU     -0.068000
     25 C25        -4.7840    0.7420    0.8540 ca        1 1XU     -0.131000
     26 C26        -5.7920   -0.0560    0.2780 ca        1 1XU     -0.027500
     27 C27        -5.4600   -1.3420   -0.1830 ca        1 1XU     -0.152000
     28 C28        -4.1470   -1.8000   -0.0960 ca        1 1XU      0.047400
     29 S29        -0.9780   -1.4150    1.9780 s         1 1XU     -0.529400
     30 C30        -7.1340    0.4260    0.1570 cc        1 1XU      0.178200
     31 C31        -8.3180   -0.1470   -0.3060 cd        1 1XU     -0.204300
     32 C32        -9.3370    0.8490   -0.1850 cd        1 1XU     -0.316300
     33 C33        -8.7320    1.9900    0.3460 cc        1 1XU      0.286200
     34 O34        -7.3870    1.7500    0.5640 os        1 1XU     -0.320800
     35 C35        -9.2830    3.3690    0.6920 c         1 1XU      0.827100
     36 O36        -8.4820    4.2350    1.1190 o         1 1XU     -0.791800
     37 O37       -10.5190    3.5170    0.5080 o         1 1XU     -0.791800
     38 CL3        -3.8130   -3.3780   -0.6630 cl        1 1XU     -0.122400
     39 H1          5.4510    4.3510   -3.4380 h4        1 1XU      0.045100
     40 H2          3.0230    3.0240   -3.4220 ha        1 1XU      0.174000
     41 H3          5.1200   -1.0060   -1.6800 ha        1 1XU      0.161000
     42 H4          6.2980   -2.6400   -0.2440 ha        1 1XU      0.156000
     43 H5          7.3700    2.2280    0.1920 ha        1 1XU      0.174000
     44 H6          2.9160    1.3240    0.3020 ha        1 1XU      0.142000
     45 H7          1.1700   -0.3800    0.8890 ha        1 1XU      0.154500
     46 H8          1.4560   -2.0300   -3.0990 ha        1 1XU      0.154500
     47 H9          3.1890   -0.3420   -3.6860 ha        1 1XU      0.142000
     48 H10         0.2020   -3.1710   -1.4560 h1        1 1XU      0.075700
     49 H11         0.4810   -2.7760    0.3170 h1        1 1XU      0.075700
     50 H12        -1.6700   -1.7760   -1.4510 hn        1 1XU      0.323500
     51 H13        -2.7030    0.8920    1.4190 ha        1 1XU      0.151000
     52 H14        -5.0470    1.7460    1.2280 ha        1 1XU      0.175000
     53 H15        -6.2450   -1.9810   -0.6140 ha        1 1XU      0.150000
     54 H16        -8.4470   -1.1570   -0.6850 ha        1 1XU      0.136000
     55 H17       -10.3850    0.7520   -0.4490 ha        1 1XU      0.164000
@<TRIPOS>BOND
     1    1    2 1   
     2    1    5 2   
     3    1   39 1   
     4    2    3 2   
     5    2   40 1   
     6    3    4 1   
     7    3    7 1   
     8    4    5 1   
     9    4    6 1   
    10    6    8 ar  
    11    6   12 ar  
    12    7   15 ar  
    13    7   19 ar  
    14    8    9 ar  
    15    8   41 1   
    16    9   10 ar  
    17    9   42 1   
    18   10   11 ar  
    19   10   14 1   
    20   11   12 ar  
    21   11   13 1   
    22   12   43 1   
    23   15   16 ar  
    24   15   44 1   
    25   16   17 ar  
    26   16   45 1   
    27   17   18 ar  
    28   17   20 1   
    29   18   19 ar  
    30   18   46 1   
    31   19   47 1   
    32   20   21 1   
    33   20   48 1   
    34   20   49 1   
    35   21   22 1   
    36   21   50 1   
    37   22   23 1   
    38   22   29 2   
    39   23   24 ar  
    40   23   28 ar  
    41   24   25 ar  
    42   24   51 1   
    43   25   26 ar  
    44   25   52 1   
    45   26   27 ar  
    46   26   30 1   
    47   27   28 ar  
    48   27   53 1   
    49   28   38 1   
    50   30   31 2   
    51   30   34 1   
    52   31   32 1   
    53   31   54 1   
    54   32   33 2   
    55   32   55 1   
    56   33   34 1   
    57   33   35 1   
    58   35   36 1   
    59   35   37 1   
@<TRIPOS>SUBSTRUCTURE
     1 1XU         1 TEMP              0 ****  ****    0 ROOT
