@<TRIPOS>MOLECULE
1XV
   86    91     1     0     0
SMALL
bcc


@<TRIPOS>ATOM
      1 C1          9.0840    1.9810    1.3080 ca        1 1XV     -0.113000
      2 C2          9.3290    1.9880   -1.0980 ca        1 1XV     -0.113000
      3 C3         -0.2340   -0.8430    1.7710 ca        1 1XV     -0.052000
      4 C4         -0.6510   -1.8140   -0.3980 ca        1 1XV     -0.052000
      5 CL4         9.3680    5.7670    0.1330 cl        1 1XV     -0.090400
      6 C5          1.0990   -0.6520    1.4400 ca        1 1XV     -0.192500
      7 C6          0.6820   -1.6260   -0.7420 ca        1 1XV     -0.192500
      8 C7         -6.7930    0.2210    0.8570 ca        1 1XV     -0.259000
      9 C8         -5.9750   -0.7830    1.3120 ca        1 1XV      0.074000
     10 C9          9.1400    3.3720    1.3220 ca        1 1XV     -0.124500
     11 C10         9.3920    3.3790   -1.0920 ca        1 1XV     -0.124500
     12 C11        -6.3610   -2.0540   -0.6860 ca        1 1XV      0.103000
     13 C12         9.1740    1.2760    0.1000 ca        1 1XV     -0.052800
     14 C13        -1.1220   -1.4340    0.8610 ca        1 1XV     -0.194600
     15 C14         1.5960   -1.0390    0.1690 ca        1 1XV      0.186600
     16 C15        -7.4410    0.1510   -0.4190 ca        1 1XV      0.328600
     17 C16        -7.2000   -1.0450   -1.1860 ca        1 1XV     -0.310200
     18 C17        -5.7390   -1.9490    0.5520 ca        1 1XV     -0.475500
     19 C18         9.2950    4.0690    0.1200 ca        1 1XV      0.018400
     20 C19         9.1370   -0.1890    0.0990 ce        1 1XV     -0.060400
     21 C20         8.1810   -0.9240   -0.5030 c2        1 1XV     -0.135400
     22 C22        10.2800   -0.8450    0.8010 c3        1 1XV     -0.074200
     23 C23         8.2090   -2.4180   -0.4650 c3        1 1XV      0.167600
     24 C24        -9.5210    2.2260    0.9690 c3        1 1XV     -0.132400
     25 C25        -8.9140    3.5350   -1.0620 c3        1 1XV     -0.132400
     26 C26         3.3250   -1.0380   -1.5540 c3        1 1XV      0.191300
     27 C27         3.9500   -1.0910    0.7950 c3        1 1XV      0.191300
     28 C28         4.7200   -0.4810   -1.9010 c3        1 1XV      0.161800
     29 C29         5.3380   -0.5290    0.4250 c3        1 1XV      0.161800
     30 C30        10.0250   -2.3210    1.0560 c3        1 1XV      0.126400
     31 C31        -9.7290    3.5480    1.6870 c3        1 1XV      0.126900
     32 C32        -9.1470    4.7940   -0.2430 c3        1 1XV      0.126900
     33 C33        -8.4580    2.3970   -0.1320 c3        1 1XV      0.218500
     34 C34         7.0480   -0.3270   -1.2840 c3        1 1XV      0.204000
     35 N35         2.9290   -0.7570   -0.1850 nh        1 1XV     -0.644000
     36 N36         5.7380   -0.8660   -0.9330 n3        1 1XV     -0.728600
     37 N38        -3.2450   -2.7060    0.7960 n         1 1XV     -0.673300
     38 N39        -7.7980   -1.2810   -2.5170 no        1 1XV      0.327200
     39 O40        -7.3530   -2.1690   -3.1950 o         1 1XV     -0.224500
     40 O41        -3.0980   -0.8070    2.0500 o         1 1XV     -0.595100
     41 O42        -8.7170   -0.6050   -2.9100 o         1 1XV     -0.224500
     42 O45         9.4680   -2.9610   -0.0850 os        1 1XV     -0.412600
     43 O46       -10.1020    4.5880    0.7900 os        1 1XV     -0.408600
     44 S47        -4.7900   -3.1770    1.1630 sy        1 1XV      1.525900
     45 H1          8.9640    1.4310    2.2540 ha        1 1XV      0.140500
     46 H2          9.4070    1.4410   -2.0500 ha        1 1XV      0.140500
     47 H3         -0.6110   -0.5200    2.7560 ha        1 1XV      0.145000
     48 H4         -1.3280   -2.2560   -1.1450 ha        1 1XV      0.145000
     49 H5          1.7590   -0.1720    2.1780 ha        1 1XV      0.142000
     50 H6          1.0100   -1.9500   -1.7410 ha        1 1XV      0.142000
     51 H7         -6.9530    1.1020    1.4990 ha        1 1XV      0.153000
     52 H8         -5.4770   -0.6860    2.2990 ha        1 1XV      0.181000
     53 H9          9.0630    3.9170    2.2760 ha        1 1XV      0.149000
     54 H10         9.5190    3.9290   -2.0370 ha        1 1XV      0.149000
     55 H11        -6.1980   -2.9730   -1.2930 ha        1 1XV      0.189000
     56 H22        11.1990   -0.7260    0.1650 hc        1 1XV      0.063200
     57 H22A       10.4760   -0.3300    1.7780 hc        1 1XV      0.063200
     58 H23         7.4200   -2.7900    0.2460 h1        1 1XV      0.065200
     59 H23A        8.0260   -2.8470   -1.4880 h1        1 1XV      0.065200
     60 H24A      -10.4880    1.8920    0.5120 hc        1 1XV      0.065950
     61 H25        -9.8650    3.2480   -1.5820 hc        1 1XV      0.065950
     62 H25A       -8.1370    3.7400   -1.8410 hc        1 1XV      0.065950
     63 H26         2.5870   -0.5410   -2.2450 h1        1 1XV      0.047700
     64 H26A        3.3160   -2.1480   -1.7610 h1        1 1XV      0.047700
     65 H27         4.0320   -2.2110    0.9170 h1        1 1XV      0.047700
     66 H27A        3.6670   -0.6510    1.7900 h1        1 1XV      0.047700
     67 H28         5.0120   -0.9070   -2.9020 h1        1 1XV      0.044700
     68 H28A        4.6460    0.6410   -2.0080 h1        1 1XV      0.044700
     69 H29         5.3340    0.5870    0.5970 h1        1 1XV      0.044700
     70 H29A        6.0900   -0.9870    1.1270 h1        1 1XV      0.044700
     71 H30        10.9870   -2.8720    1.2360 h1        1 1XV      0.049700
     72 H30A        9.3410   -2.4570    1.9360 h1        1 1XV      0.049700
     73 H31       -10.5920    3.4830    2.4020 h1        1 1XV      0.054950
     74 H31A       -8.7990    3.8460    2.2410 h1        1 1XV      0.054950
     75 H32        -8.1820    5.1570    0.2030 h1        1 1XV      0.054950
     76 H32A       -9.6010    5.6020   -0.8760 h1        1 1XV      0.054950
     77 H33        -7.4890    2.7220    0.3560 h1        1 1XV      0.065700
     78 H34         7.0700    0.8000   -1.1800 h1        1 1XV      0.048200
     79 H34A        7.2310   -0.5680   -2.3740 h1        1 1XV      0.048200
     80 HN38       -2.7220   -3.2920    0.1800 hn        1 1XV      0.337500
     81 C21        -2.5350   -1.6050    1.2770 c         1 1XV      0.717700
     82 N37        -8.2000    1.1820   -0.8800 nh        1 1XV     -0.739600
     83 O43        -4.9690   -3.2730    2.5490 o         1 1XV     -0.642800
     84 O44        -5.0140   -4.3520    0.4120 o         1 1XV     -0.642800
     85 H24        -9.1980    1.4490    1.7080 hc        1 1XV      0.065950
     86 HN37       -8.7360    1.0700   -1.7180 hn        1 1XV      0.472800
@<TRIPOS>BOND
     1    1   10 ar  
     2    1   13 ar  
     3    1   45 1   
     4    2   11 ar  
     5    2   13 ar  
     6    2   46 1   
     7    3    6 ar  
     8    3   14 ar  
     9    3   47 1   
    10    4    7 ar  
    11    4   14 ar  
    12    4   48 1   
    13    5   19 1   
    14    6   15 ar  
    15    6   49 1   
    16    7   15 ar  
    17    7   50 1   
    18    8    9 ar  
    19    8   16 ar  
    20    8   51 1   
    21    9   18 ar  
    22    9   52 1   
    23   10   19 ar  
    24   10   53 1   
    25   11   19 ar  
    26   11   54 1   
    27   12   17 ar  
    28   12   18 ar  
    29   12   55 1   
    30   13   20 1   
    31   14   81 1   
    32   15   35 1   
    33   16   17 ar  
    34   16   82 1   
    35   17   38 1   
    36   18   44 1   
    37   20   21 2   
    38   20   22 1   
    39   21   23 1   
    40   21   34 1   
    41   22   30 1   
    42   22   56 1   
    43   22   57 1   
    44   23   42 1   
    45   23   58 1   
    46   23   59 1   
    47   24   31 1   
    48   24   33 1   
    49   24   60 1   
    50   24   85 1   
    51   25   32 1   
    52   25   33 1   
    53   25   61 1   
    54   25   62 1   
    55   26   28 1   
    56   26   35 1   
    57   26   63 1   
    58   26   64 1   
    59   27   29 1   
    60   27   35 1   
    61   27   65 1   
    62   27   66 1   
    63   28   36 1   
    64   28   67 1   
    65   28   68 1   
    66   29   36 1   
    67   29   69 1   
    68   29   70 1   
    69   30   42 1   
    70   30   71 1   
    71   30   72 1   
    72   31   43 1   
    73   31   73 1   
    74   31   74 1   
    75   32   43 1   
    76   32   75 1   
    77   32   76 1   
    78   33   77 1   
    79   33   82 1   
    80   34   36 1   
    81   34   78 1   
    82   34   79 1   
    83   37   44 1   
    84   37   80 1   
    85   37   81 1   
    86   38   39 1   
    87   38   41 1   
    88   40   81 2   
    89   44   83 2   
    90   44   84 2   
    91   82   86 1   
@<TRIPOS>SUBSTRUCTURE
     1 1XV         1 TEMP              0 ****  ****    0 ROOT
