@<TRIPOS>MOLECULE
1XV
   86    81     1     0     0
SMALL
bcc


@<TRIPOS>ATOM
      1 C1          3.6580    5.7820    6.8920 c1        1 1XV     -0.114000
      2 C2          3.0350    8.0950    6.5480 c1        1 1XV     -0.110167
      3 C3          2.5630    1.2420   -2.4720 c1        1 1XV     -0.110167
      4 C4          0.9210   -0.0270   -1.2890 c1        1 1XV     -0.066000
      5 CL4         6.9670    7.9680    7.3370 cl        1 1XV     -0.012000
      6 C5          2.5400    2.2040   -1.4770 c1        1 1XV     -0.110167
      7 C6          0.8980    0.9450   -0.2850 c1        1 1XV     -0.201000
      8 C7         -1.2490   -6.4980   -5.2870 c1        1 1XV     -0.110167
      9 C8         -0.3130   -5.4500   -5.2950 c1        1 1XV     -0.110167
     10 C9          4.9610    6.1560    7.1360 c1        1 1XV     -0.124000
     11 C10         4.3590    8.4750    6.7960 c1        1 1XV     -0.110167
     12 C11        -1.4550   -4.4150   -3.4090 c1        1 1XV      0.100000
     13 C12         2.6810    6.7690    6.5940 c1        1 1XV     -0.041000
     14 C13         1.7540    0.1290   -2.3770 c1        1 1XV     -0.168000
     15 C14         1.7040    2.0510   -0.3830 c1        1 1XV      0.101000
     16 C15        -2.2810   -6.5050   -4.3460 c1        1 1XV      0.247000
     17 C16        -2.3830   -5.4530   -3.3990 c1        1 1XV     -0.266000
     18 C17        -0.4150   -4.4090   -4.3570 c1        1 1XV     -0.917000
     19 C18         5.3220    7.5040    7.0890 c1        1 1XV     -0.060000
     20 C19         1.2640    6.3110    6.4290 c2        1 1XV     -0.068000
     21 C20         0.7820    5.6940    5.0290 c1        1 1XV     -0.128000
     22 C21         1.7970   -0.9840   -3.5140 c2        1 1XV      0.379000
     23 C22         0.5170    5.9350    7.5440 c3        1 1XV     -0.157000
     24 C23        -0.6260    5.4690    4.8950 c3        1 1XV      0.010000
     25 C24        -5.2540   -8.1210   -5.2400 c3        1 1XV     -0.208000
     26 C25        -3.5130   -9.6470   -5.4670 c3        1 1XV     -0.208000
     27 C26         2.1260    2.5620    1.8730 c3        1 1XV     -0.046000
     28 C27         1.0350    4.1290    0.4400 c3        1 1XV     -0.046000
     29 C28         2.3170    3.6550    2.9320 c3        1 1XV     -0.076000
     30 C29         1.2230    5.2240    1.5010 c3        1 1XV     -0.076000
     31 C30        -1.0700    5.7280    7.1730 c3        1 1XV     -0.024000
     32 C31        -5.9090   -8.6920   -6.4520 c3        1 1XV     -0.023000
     33 C32        -4.1840  -10.2110   -6.6810 c3        1 1XV     -0.023000
     34 C33        -3.6990   -8.1010   -5.3470 c3        1 1XV      0.025000
     35 C34         1.6570    5.8120    3.8070 c2        1 1XV     -0.037000
     36 N35         2.0180    3.1040    0.5390 n3        1 1XV     -0.246000
     37 N36         1.3280    4.6880    2.8310 n3        1 1XV     -0.256000
     38 N37        -3.1410   -7.6180   -4.2560 n3        1 1XV     -0.296000
     39 N38         0.9830   -2.1070   -3.4200 n         1 1XV     -0.861000
     40 N39        -3.4300   -5.4870   -2.3760 no        1 1XV      0.582000
     41 O40        -3.9930   -4.4450   -2.0360 o         1 1XV     -0.374000
     42 O41         2.5090   -0.8130   -4.5320 o         1 1XV     -0.324000
     43 O42        -3.7550   -6.6410   -1.7920 o         1 1XV     -0.374000
     44 O43         1.5990   -3.1460   -5.6920 o         1 1XV     -0.916000
     45 O44        -0.3500   -1.9910   -5.6220 o         1 1XV     -0.916000
     46 O45        -1.2900    5.0540    6.2770 os        1 1XV     -0.270000
     47 O46        -5.0870   -9.4000   -7.1360 os        1 1XV     -0.268000
     48 S47         0.4800   -2.8750   -4.7890 s6        1 1XV      2.873000
     49 H1          3.4170    4.8780    6.9220 ha        1 1XV      0.141000
     50 H2          2.3590    8.7760    6.3430 ha        1 1XV      0.153000
     51 H3          3.1400    1.3500   -3.2250 ha        1 1XV      0.153000
     52 H4          0.3380   -0.8260   -1.2200 ha        1 1XV      0.130000
     53 H5          3.1410    3.0310   -1.5510 ha        1 1XV      0.153000
     54 H6          0.3140    0.8380    0.4800 ha        1 1XV      0.138000
     55 H7         -1.1780   -7.2300   -5.9470 ha        1 1XV      0.153000
     56 H8          0.4090   -5.4450   -5.9510 ha        1 1XV      0.153000
     57 H9          5.6160    5.4940    7.3370 ha        1 1XV      0.150000
     58 H10         4.6120    9.4200    6.7610 ha        1 1XV      0.153000
     59 H11        -1.5240   -3.7060   -2.7690 ha        1 1XV      0.187000
     60 H22         0.8290    5.1570    8.1040 hc        1 1XV      0.102500
     61 H22A        0.6340    6.6780    8.1980 hc        1 1XV      0.102500
     62 H23        -1.0090    6.2330    4.3490 h1        1 1XV      0.105500
     63 H23A       -0.8130    4.7350    4.3110 h1        1 1XV      0.105500
     64 H24        -5.5030   -8.6510   -4.4800 hc        1 1XV      0.099500
     65 H24A       -5.5750   -7.2030   -5.1060 hc        1 1XV      0.099500
     66 H25        -3.8910  -10.0760   -4.6650 hc        1 1XV      0.099500
     67 H25A       -2.5450   -9.8520   -5.5130 hc        1 1XV      0.099500
     68 H26         1.3030    2.0600    2.0810 h1        1 1XV      0.087250
     69 H26A        2.9010    1.9410    1.9060 h1        1 1XV      0.087250
     70 H27         0.1550    3.7330    0.5490 h1        1 1XV      0.087250
     71 H27A        1.0920    4.5450   -0.4660 h1        1 1XV      0.087250
     72 H28         2.2630    3.2490    3.8210 h1        1 1XV      0.084250
     73 H28A        3.1870    4.0460    2.8200 h1        1 1XV      0.084250
     74 H29         2.0600    5.7340    1.2910 h1        1 1XV      0.084250
     75 H29A        0.4250    5.8660    1.4610 h1        1 1XV      0.084250
     76 H30        -1.4600    6.6100    6.9930 h1        1 1XV      0.089500
     77 H30A       -1.5340    5.3330    7.9850 h1        1 1XV      0.089500
     78 H31        -6.2340   -7.9770   -6.9960 h1        1 1XV      0.095000
     79 H31A       -6.6670   -9.2590   -6.1750 h1        1 1XV      0.095000
     80 H32        -3.5270  -10.3640   -7.3590 h1        1 1XV      0.095000
     81 H32A       -4.6180  -11.0860   -6.4400 h1        1 1XV      0.095000
     82 H33        -3.3870   -7.6220   -6.1760 h1        1 1XV      0.118000
     83 H34         1.4920    6.6920    3.3680 h4        1 1XV      0.087500
     84 H34A        2.6560    5.7470    4.0900 h4        1 1XV      0.087500
     85 HN37       -3.2040   -8.0870   -3.4630 hn        1 1XV      0.270000
     86 HN38        0.7230   -2.4140   -2.6060 hn        1 1XV      0.245000
@<TRIPOS>BOND
     1    1   13 1   
     2    1   49 1   
     3    2   11 1   
     4    2   50 1   
     5    3    6 1   
     6    3   51 1   
     7    4   14 1   
     8    4   52 1   
     9    5   19 1   
    10    6   53 1   
    11    7   15 1   
    12    7   54 1   
    13    8    9 1   
    14    8   55 1   
    15    9   56 1   
    16   10   19 1   
    17   10   57 1   
    18   11   58 1   
    19   12   18 1   
    20   12   59 1   
    21   13   20 1   
    22   14   22 1   
    23   15   36 1   
    24   16   17 1   
    25   16   38 1   
    26   17   40 1   
    27   18   48 1   
    28   20   21 1   
    29   20   23 1   
    30   21   24 1   
    31   22   39 1   
    32   22   42 1   
    33   23   31 1   
    34   23   60 1   
    35   23   61 1   
    36   24   46 1   
    37   24   62 1   
    38   24   63 1   
    39   25   32 1   
    40   25   34 1   
    41   25   64 1   
    42   25   65 1   
    43   26   33 1   
    44   26   34 1   
    45   26   66 1   
    46   26   67 1   
    47   27   29 1   
    48   27   36 1   
    49   27   68 1   
    50   27   69 1   
    51   28   30 1   
    52   28   36 1   
    53   28   70 1   
    54   28   71 1   
    55   29   37 1   
    56   29   72 1   
    57   29   73 1   
    58   30   37 1   
    59   30   74 1   
    60   30   75 1   
    61   31   46 1   
    62   31   76 1   
    63   31   77 1   
    64   32   47 1   
    65   32   78 1   
    66   32   79 1   
    67   33   47 1   
    68   33   80 1   
    69   33   81 1   
    70   34   38 1   
    71   34   82 1   
    72   35   37 1   
    73   35   83 1   
    74   35   84 1   
    75   38   85 1   
    76   39   48 1   
    77   39   86 1   
    78   40   41 1   
    79   40   43 1   
    80   44   48 1   
    81   45   48 1   
@<TRIPOS>SUBSTRUCTURE
     1 1XV         1 TEMP              0 ****  ****    0 ROOT
