@<TRIPOS>MOLECULE
1XV
   86    83     1     0     0
SMALL
bcc


@<TRIPOS>ATOM
      1 C1         -0.3050    0.3680    0.3890 ca        1 1XV     -0.108500
      2 C2          0.1680   -0.2050    2.6890 ca        1 1XV     -0.108500
      3 C3         -0.2530   -6.9920   -3.0840 ca        1 1XV     -0.054500
      4 C4         -0.8590   -9.0260   -1.9360 ca        1 1XV     -0.054500
      5 CL4         3.4890   -0.7960    0.5870 cl        1 1XV     -0.009000
      6 C5         -0.6850   -6.2400   -2.0030 ca        1 1XV     -0.195000
      7 C6         -1.2950   -8.2840   -0.8450 ca        1 1XV     -0.195000
      8 C7          3.5860  -12.2650   -6.4550 c2        1 1XV     -0.340000
      9 C8          2.2940  -11.7830   -6.6460 c2        1 1XV      0.196000
     10 C9          1.0010    0.0420    0.0340 ca        1 1XV     -0.122500
     11 C10         1.4780   -0.5280    2.3440 ca        1 1XV     -0.122500
     12 C11         1.5940  -12.4080   -4.4200 c1        1 1XV     -0.074000
     13 C12        -0.7370    0.2490    1.7180 ca        1 1XV     -0.044000
     14 C13        -0.3440   -8.3900   -3.0680 ca        1 1XV     -0.171000
     15 C14        -1.2230   -6.8690   -0.8510 ca        1 1XV      0.105000
     16 C15         3.9980  -12.8200   -5.2310 c2        1 1XV      0.183000
     17 C16         2.9770  -12.7920   -4.0880 c3        1 1XV     -0.106000
     18 C17         1.3110  -11.8480   -5.6490 c2        1 1XV     -0.963000
     19 C18         1.8930   -0.4040    1.0140 ca        1 1XV     -0.057000
     20 C19        -2.1040    0.6090    2.0950 c2        1 1XV     -0.098000
     21 C20        -2.8850   -0.1380    2.8980 c2        1 1XV     -0.132000
     22 C22        -2.5990    1.9290    1.6020 c3        1 1XV     -0.278000
     23 C23        -4.0880   -0.2530    0.0930 c1        1 1XV      0.040000
     24 C24         5.0770  -16.7660  -10.2780 c1        1 1XV     -0.161000
     25 C25         6.3240  -14.4560   -6.8000 c1        1 1XV     -0.223000
     26 C26        -1.8630   -6.8020    1.5010 c3        1 1XV     -0.097000
     27 C27        -2.4020   -4.9190    0.0480 c3        1 1XV      0.020000
     28 C28        -2.6420   -2.5910    2.9480 c1        1 1XV     -0.335000
     29 C29        -2.0690   -3.8050    0.9920 c2        1 1XV     -0.330000
     30 C30        -3.8870    2.0200    0.8850 c1        1 1XV      0.086000
     31 C31         5.7210  -16.6180   -9.2860 c1        1 1XV     -0.097000
     32 C32         6.3610  -15.4330   -7.4840 c1        1 1XV      0.002000
     33 C33         6.3160  -13.2840   -5.9650 c3        1 1XV      0.083000
     34 C34        -2.5480   -1.4150    3.5110 c2        1 1XV     -0.064000
     35 N35        -1.5900   -6.1050    0.2720 nh        1 1XV     -0.266000
     36 N36        -2.9210   -3.3610    1.9140 n3        1 1XV      0.147000
     37 N38        -0.5450  -10.2930   -4.6310 n         1 1XV     -0.834000
     38 N39         3.0190  -14.0870   -3.2630 no        1 1XV      0.537000
     39 O40         2.1500  -14.8940   -3.3460 o         1 1XV     -0.338500
     40 O41         1.1260   -8.7590   -4.9150 o         1 1XV     -0.354000
     41 O42         3.9890  -14.2380   -2.5600 o         1 1XV     -0.338500
     42 O45        -4.5280    0.9490    0.4160 os        1 1XV     -0.123000
     43 O46         6.4970  -16.5670   -8.1850 os        1 1XV      0.068000
     44 S47        -0.2490  -11.3130   -5.8970 s6        1 1XV      2.884000
     45 H1         -1.0020    0.7150   -0.3890 ha        1 1XV      0.138500
     46 H2         -0.1650   -0.3120    3.7330 ha        1 1XV      0.138500
     47 H3          0.1800   -6.4930   -3.9670 ha        1 1XV      0.147000
     48 H4         -0.9160  -10.1260   -1.8830 ha        1 1XV      0.147000
     49 H5         -0.5830   -5.1440   -2.0470 ha        1 1XV      0.142000
     50 H6         -1.7000   -8.8220    0.0250 ha        1 1XV      0.142000
     51 H7          4.2880  -12.2190   -7.3040 ha        1 1XV      0.156000
     52 H8          2.0300  -11.3460   -7.6330 ha        1 1XV      0.173000
     53 H9          1.3270    0.1350   -1.0130 ha        1 1XV      0.151000
     54 H10         2.1790   -0.8810    3.1150 ha        1 1XV      0.151000
     55 H11         3.3190  -11.9620   -3.3780 h1        1 1XV      0.203000
     56 H22        -1.8380    2.4180    0.9230 hc        1 1XV      0.154500
     57 H22A       -2.7010    2.6240    2.4890 hc        1 1XV      0.154500
     58 H23        -3.8970    0.2270    3.1610 ha        1 1XV      0.135000
     59 H23A       -2.9760   -0.3590    0.0210 ha        1 1XV      0.002000
     60 H24A        7.2980  -13.2330   -5.3970 h1        1 1XV      0.134500
     61 H25         9.3390  -12.3590   -4.9050 ha        1 1XV      0.002200
     62 H25A        9.3990  -12.8660   -4.4600 ha        1 1XV      0.002200
     63 H26        -3.8400   -3.7830    1.9420 hn        1 1XV      0.234000
     64 H26A       -1.0260   -7.5180    1.7180 h1        1 1XV      0.080333
     65 H27        -1.7230   -3.2520   -2.9410 ha        1 1XV      0.002200
     66 H27A       -1.2860   -2.9310   -2.5350 ha        1 1XV      0.002200
     67 H28        -2.8320   -7.3720    1.4710 h1        1 1XV      0.080333
     68 H28A       -1.9130   -6.0490    2.3330 h1        1 1XV      0.080333
     69 H29        -3.4990   -5.1920    0.1130 h1        1 1XV      0.088500
     70 H29A       -2.2180   -4.5250   -0.9940 h1        1 1XV      0.088500
     71 H30        -4.5370   -0.0410   -2.1710 ha        1 1XV      0.002200
     72 H30A       -3.8990    0.1900   -2.2080 ha        1 1XV      0.002200
     73 H31         5.7850  -10.9020   -8.4690 ha        1 1XV      0.002200
     74 H31A        6.3870  -10.7750   -8.1850 ha        1 1XV      0.002200
     75 H32         8.2670  -10.7220   -6.8980 ha        1 1XV      0.002200
     76 H32A        8.2480  -11.2430   -6.4650 ha        1 1XV      0.002200
     77 H33         6.2520  -12.3600   -6.6220 h1        1 1XV      0.134500
     78 H34        -1.0510   -3.3910    0.9680 h4        1 1XV      0.178000
     79 H34A       -2.2460   -1.3590    4.5740 ha        1 1XV      0.155000
     80 HN38       -1.2920  -10.5420   -4.0160 hn        1 1XV      0.253000
     81 C21         0.1420   -9.1410   -4.2530 c2        1 1XV      0.389000
     82 N37         5.2540  -13.2480   -4.9800 n3        1 1XV     -0.263000
     83 O43        -0.2720  -10.6230   -7.1260 o         1 1XV     -0.933500
     84 O44        -1.1910  -12.3520   -5.7970 o         1 1XV     -0.933500
     85 H24         4.5080  -16.9130  -11.1610 ha        1 1XV      0.250000
     86 HN37        5.4520  -13.7050   -4.1090 hn        1 1XV      0.271000
@<TRIPOS>BOND
     1    1   10 1   
     2    1   13 1   
     3    1   45 1   
     4    2   11 1   
     5    2   13 1   
     6    2   46 1   
     7    3    6 1   
     8    3   14 1   
     9    3   47 1   
    10    4    7 1   
    11    4   14 1   
    12    4   48 1   
    13    5   19 1   
    14    6   15 1   
    15    6   49 1   
    16    7   15 1   
    17    7   50 1   
    18    8    9 1   
    19    8   16 1   
    20    8   51 1   
    21    9   18 1   
    22    9   52 1   
    23   10   19 1   
    24   10   53 1   
    25   11   19 1   
    26   11   54 1   
    27   12   17 1   
    28   12   18 1   
    29   13   20 1   
    30   14   81 1   
    31   15   35 1   
    32   16   17 1   
    33   16   82 1   
    34   17   38 1   
    35   17   55 1   
    36   18   44 1   
    37   20   21 1   
    38   20   22 1   
    39   21   34 1   
    40   21   58 1   
    41   22   30 1   
    42   22   56 1   
    43   22   57 1   
    44   23   42 1   
    45   23   59 1   
    46   24   31 1   
    47   24   85 1   
    48   25   32 1   
    49   25   33 1   
    50   26   35 1   
    51   26   64 1   
    52   26   67 1   
    53   26   68 1   
    54   27   29 1   
    55   27   35 1   
    56   27   69 1   
    57   27   70 1   
    58   28   34 1   
    59   28   36 1   
    60   29   36 1   
    61   29   78 1   
    62   30   42 1   
    63   31   43 1   
    64   32   43 1   
    65   33   60 1   
    66   33   77 1   
    67   33   82 1   
    68   34   79 1   
    69   36   63 1   
    70   37   44 1   
    71   37   80 1   
    72   37   81 1   
    73   38   39 1   
    74   38   41 1   
    75   40   81 1   
    76   44   83 1   
    77   44   84 1   
    78   61   62 1   
    79   65   66 1   
    80   71   72 1   
    81   73   74 1   
    82   75   76 1   
    83   82   86 1   
@<TRIPOS>SUBSTRUCTURE
     1 1XV         1 TEMP              0 ****  ****    0 ROOT
