@<TRIPOS>MOLECULE
1XW
   26    28     1     0     0
SMALL
bcc


@<TRIPOS>ATOM
      1 N19        -1.2960    1.4440   -0.7710 n3        1 1XW     -0.810200
      2 C20        -0.1780    1.8090    0.0870 c3        1 1XW      0.181800
      3 C21         1.0590    0.9520   -0.2180 c3        1 1XW      0.174500
      4 C23         2.3170    1.2000    0.6510 c3        1 1XW     -0.052400
      5 C24         2.9470   -0.1750    0.7790 cx        1 1XW     -0.151700
      6 C26         3.2100   -0.9190   -0.5040 cx        1 1XW     -0.181400
      7 C27         1.9100   -1.1820    0.2430 cx        1 1XW      0.177500
      8 N28         0.7060   -0.4650   -0.0300 n3        1 1XW     -0.725600
      9 C29        -0.3080   -0.9170   -0.9440 c3        1 1XW      0.208800
     10 C30        -1.5510    0.0130   -0.9360 c3        1 1XW      0.033500
     11 C32        -2.6320   -0.5720    0.0370 c         1 1XW      0.901600
     12 O33        -3.3010    0.2370    0.7400 o         1 1XW     -0.840800
     13 H23         0.0710    2.8850   -0.1320 h1        1 1XW      0.021700
     14 H24        -0.4180    1.7300    1.1860 h1        1 1XW      0.021700
     15 H25         1.3600    1.1470   -1.2950 h1        1 1XW      0.018700
     16 H26         3.0010    1.9280    0.1550 hc        1 1XW      0.040700
     17 H27         2.0360    1.5930    1.6570 hc        1 1XW      0.040700
     18 H28         3.5570   -0.3610    1.6700 hc        1 1XW      0.074700
     19 H29         3.2000   -0.3640   -1.4580 hc        1 1XW      0.059200
     20 H30         3.9740   -1.7160   -0.4970 hc        1 1XW      0.059200
     21 H31         1.7360   -2.1790    0.6850 h1        1 1XW      0.097700
     22 H33         0.0890   -0.9820   -2.0000 h1        1 1XW      0.036200
     23 H34        -0.6460   -1.9460   -0.6270 h1        1 1XW      0.036200
     24 H35        -2.0070   -0.0770   -1.9680 h1        1 1XW      0.041700
     25 OXT        -2.8090   -1.8220    0.0200 o         1 1XW     -0.840800
     26 H2         -2.1350    1.8370   -0.3630 hn        1 1XW      0.378800
@<TRIPOS>BOND
     1    1    2 1   
     2    1   10 1   
     3    1   26 1   
     4    2    3 1   
     5    2   13 1   
     6    2   14 1   
     7    3    4 1   
     8    3    8 1   
     9    3   15 1   
    10    4    5 1   
    11    4   16 1   
    12    4   17 1   
    13    5    6 1   
    14    5    7 1   
    15    5   18 1   
    16    6    7 1   
    17    6   19 1   
    18    6   20 1   
    19    7    8 1   
    20    7   21 1   
    21    8    9 1   
    22    9   10 1   
    23    9   22 1   
    24    9   23 1   
    25   10   11 1   
    26   10   24 1   
    27   11   12 1   
    28   11   25 1   
@<TRIPOS>SUBSTRUCTURE
     1 1XW         1 TEMP              0 ****  ****    0 ROOT
