@<TRIPOS>MOLECULE
1XW
   26    28     1     0     0
SMALL
bcc


@<TRIPOS>ATOM
      1 N19        -1.7280   -0.8360   -1.5330 n3        1 1XW     -0.757200
      2 C20        -0.2850   -0.8810   -1.5300 c3        1 1XW      0.115800
      3 C21         0.2430   -0.9250   -0.2710 c3        1 1XW      0.150500
      4 C23         2.1870   -0.6140   -0.3360 c3        1 1XW     -0.049400
      5 C24         2.5280    0.2240    1.1280 cx        1 1XW     -0.148700
      6 C26         1.8070   -0.0300    2.0710 cx        1 1XW     -0.147400
      7 C27         1.4440    0.8920    1.3840 cx        1 1XW      0.155500
      8 N28        -0.2510    0.0930    0.6000 n3        1 1XW     -0.711600
      9 C29        -1.6620    0.1470    0.6450 c3        1 1XW      0.159800
     10 C30        -2.2740    0.2370   -0.6970 c3        1 1XW      0.004500
     11 C32        -2.0940    1.6590   -1.3480 c         1 1XW      0.928600
     12 O33        -2.0940    1.7820   -2.6050 o         1 1XW     -0.836300
     13 H23         0.0570   -0.0810   -1.9880 h1        1 1XW      0.069700
     14 H24         0.0080   -1.6800   -2.0240 h1        1 1XW      0.069700
     15 H25         0.0660   -1.8070    0.1260 h1        1 1XW      0.028700
     16 H26         2.6710   -1.4690   -0.3640 hc        1 1XW      0.036700
     17 H27         2.4210   -0.0600   -1.1120 hc        1 1XW      0.036700
     18 H28         3.3310    0.7810    1.2380 hc        1 1XW      0.084700
     19 H29         1.2770   -0.8520    1.9860 hc        1 1XW      0.055700
     20 H30         2.1650    0.2170    2.9540 hc        1 1XW      0.055700
     21 H31         1.4430    1.7170    1.9190 h1        1 1XW      0.105700
     22 H33        -1.9960   -0.6640    1.0920 h1        1 1XW      0.036700
     23 H34        -1.9330    0.9330    1.1700 h1        1 1XW      0.036700
     24 H35        -3.2550    0.1750   -0.6420 h1        1 1XW      0.052700
     25 OXT        -2.0200    2.6830   -0.6140 o         1 1XW     -0.836300
     26 H2         -2.0600   -1.6440   -1.2500 hn        1 1XW      0.303800
@<TRIPOS>BOND
     1    1    2 1   
     2    1   10 1   
     3    1   26 1   
     4    2    3 1   
     5    2   13 1   
     6    2   14 1   
     7    3    4 1   
     8    3    8 1   
     9    3   15 1   
    10    4    5 1   
    11    4   16 1   
    12    4   17 1   
    13    5    6 1   
    14    5    7 1   
    15    5   18 1   
    16    6    7 1   
    17    6   19 1   
    18    6   20 1   
    19    7    8 1   
    20    7   21 1   
    21    8    9 1   
    22    9   10 1   
    23    9   22 1   
    24    9   23 1   
    25   10   11 1   
    26   10   24 1   
    27   11   12 1   
    28   11   25 1   
@<TRIPOS>SUBSTRUCTURE
     1 1XW         1 TEMP              0 ****  ****    0 ROOT
