@<TRIPOS>MOLECULE
1XX
   17    16     1     0     0
SMALL
bcc


@<TRIPOS>ATOM
      1 CAA        -2.1400   -0.9690   -0.1510 c3        1 1XX     -0.167000
      2 CAF        -0.6270   -0.9690   -0.1510 c1        1 1XX      0.063000
      3 OAE         0.0640   -0.9690    1.0440 o         1 1XX     -0.206000
      4 CAI         1.3320   -0.1100    0.7610 c3        1 1XX     -0.031000
      5 CAB         1.2670    1.0510    1.4560 c3        1 1XX     -0.213000
      6 CAG         1.0990    0.2780   -0.7640 c2        1 1XX      0.231000
      7 OAC         1.8480    0.8960   -1.4930 o         1 1XX     -0.277000
      8 CAH        -0.0540   -0.2960   -1.1030 c2        1 1XX     -0.162000
      9 OAD        -0.8370    0.3410   -2.0830 oh        1 1XX     -0.224000
     10 H1         -2.4650   -1.4070   -0.9610 hc        1 1XX      0.107333
     11 H2         -2.4650   -0.0490   -0.1250 hc        1 1XX      0.107333
     12 H3         -2.4650   -1.4520    0.6320 hc        1 1XX      0.107333
     13 H4          2.2230   -0.4590    0.9570 h1        1 1XX      0.139000
     14 H5          0.4530    1.5310    1.2130 hc        1 1XX      0.097333
     15 H6          2.0450    1.6020    1.2440 hc        1 1XX      0.097333
     16 H7          1.2580    0.8580    2.4130 hc        1 1XX      0.097333
     17 H8         -0.5350    0.1250   -2.8890 ho        1 1XX      0.232000
@<TRIPOS>BOND
     1    1    2 1   
     2    1   10 1   
     3    1   11 1   
     4    1   12 1   
     5    2    8 1   
     6    3    4 1   
     7    4    5 1   
     8    4    6 1   
     9    4   13 1   
    10    5   14 1   
    11    5   15 1   
    12    5   16 1   
    13    6    7 1   
    14    6    8 1   
    15    8    9 1   
    16    9   17 1   
@<TRIPOS>SUBSTRUCTURE
     1 1XX         1 TEMP              0 ****  ****    0 ROOT
