@<TRIPOS>MOLECULE
1XX
   17    17     1     0     0
SMALL
bcc


@<TRIPOS>ATOM
      1 CAA         2.4100   -1.1800   -0.1260 c3        1 1XX     -0.044900
      2 CAF         1.0860   -0.5690    0.0300 c2        1 1XX      0.102900
      3 OAE         0.0170   -1.4560    0.1760 os        1 1XX     -0.321900
      4 CAI        -1.2120   -0.6820    0.3260 c3        1 1XX      0.030100
      5 CAB        -2.1800   -1.0750   -0.7610 c3        1 1XX     -0.095100
      6 CAG        -0.7870    0.7850    0.2500 c         1 1XX      0.539300
      7 OAC        -1.5040    1.7780    0.3350 o         1 1XX     -0.516100
      8 CAH         0.6770    0.7340    0.0670 ce        1 1XX     -0.137100
      9 OAD         1.5050    1.8160   -0.0560 oh        1 1XX     -0.469100
     10 H1          2.6460   -1.8210    0.7600 hc        1 1XX      0.068033
     11 H2          2.4310   -1.8240   -1.0410 hc        1 1XX      0.068033
     12 H3          3.1820   -0.3770   -0.2200 hc        1 1XX      0.068033
     13 H4         -1.6060   -0.9270    1.3490 h1        1 1XX      0.099700
     14 H5         -2.4530   -2.1520   -0.6550 hc        1 1XX      0.058033
     15 H6         -3.1000   -0.4480   -0.6770 hc        1 1XX      0.058033
     16 H7         -1.7250   -0.9250   -1.7700 hc        1 1XX      0.058033
     17 H8          0.9350    2.5990    0.0290 ho        1 1XX      0.433000
@<TRIPOS>BOND
     1    1    2 1   
     2    1   10 1   
     3    1   11 1   
     4    1   12 1   
     5    2    3 1   
     6    2    8 2   
     7    3    4 1   
     8    4    5 1   
     9    4    6 1   
    10    4   13 1   
    11    5   14 1   
    12    5   15 1   
    13    5   16 1   
    14    6    7 2   
    15    6    8 1   
    16    8    9 1   
    17    9   17 1   
@<TRIPOS>SUBSTRUCTURE
     1 1XX         1 TEMP              0 ****  ****    0 ROOT
