@<TRIPOS>MOLECULE
1XX
   17    17     1     0     0
SMALL
bcc


@<TRIPOS>ATOM
      1 CAA        -0.0100    0.0500    0.0990 c3        1 1XX     -0.044900
      2 CAF         1.4460   -0.0070   -0.0660 c2        1 1XX      0.102900
      3 OAE         2.1990    0.1600    1.0990 os        1 1XX     -0.321900
      4 CAI         3.6150    0.0680    0.7520 c3        1 1XX      0.030100
      5 CAB         4.3100    1.3390    1.1730 c3        1 1XX     -0.095100
      6 CAG         3.6560   -0.1680   -0.7570 c         1 1XX      0.539300
      7 OAC         4.6490   -0.3100   -1.4660 o         1 1XX     -0.516100
      8 CAH         2.2370   -0.2000   -1.1630 ce        1 1XX     -0.137100
      9 OAD         1.7750   -0.3860   -2.4370 oh        1 1XX     -0.469100
     10 H1         -0.3130    1.0460    0.5080 hc        1 1XX      0.068033
     11 H2         -0.5030   -0.1090   -0.8920 hc        1 1XX      0.068033
     12 H3         -0.3480   -0.7420    0.8140 hc        1 1XX      0.068033
     13 H4          4.0080   -0.8280    1.3040 h1        1 1XX      0.099700
     14 H5          4.2480    1.4560    2.2810 hc        1 1XX      0.058033
     15 H6          3.8320    2.2280    0.6970 hc        1 1XX      0.058033
     16 H7          5.3820    1.2890    0.8640 hc        1 1XX      0.058033
     17 H8          2.5620   -0.5150   -2.9910 ho        1 1XX      0.433000
@<TRIPOS>BOND
     1    1    2 1   
     2    1   10 1   
     3    1   11 1   
     4    1   12 1   
     5    2    3 1   
     6    2    8 2   
     7    3    4 1   
     8    4    5 1   
     9    4    6 1   
    10    4   13 1   
    11    5   14 1   
    12    5   15 1   
    13    5   16 1   
    14    6    7 2   
    15    6    8 1   
    16    8    9 1   
    17    9   17 1   
@<TRIPOS>SUBSTRUCTURE
     1 1XX         1 TEMP              0 ****  ****    0 ROOT
