@<TRIPOS>MOLECULE
1XX
   17    17     1     0     0
SMALL
bcc


@<TRIPOS>ATOM
      1 CAA        -0.0200    0.0450    0.0900 c3        1 1XX     -0.044900
      2 CAF         1.4370   -0.0120   -0.0710 c2        1 1XX      0.102900
      3 OAE         2.1880    0.1430    1.0960 os        1 1XX     -0.321900
      4 CAI         3.6040    0.0520    0.7510 c3        1 1XX      0.030100
      5 CAB         4.3000    1.3180    1.1850 c3        1 1XX     -0.095100
      6 CAG         3.6480   -0.1690   -0.7600 c         1 1XX      0.539300
      7 OAC         4.6410   -0.3060   -1.4690 o         1 1XX     -0.516100
      8 CAH         2.2290   -0.1960   -1.1690 ce        1 1XX     -0.137100
      9 OAD         1.7690   -0.3690   -2.4460 oh        1 1XX     -0.469100
     10 H1         -0.5110   -0.1110   -0.9020 hc        1 1XX      0.068033
     11 H2         -0.3600   -0.7490    0.8030 hc        1 1XX      0.068033
     12 H3         -0.3230    1.0400    0.5030 hc        1 1XX      0.068033
     13 H4          3.9950   -0.8490    1.2950 h1        1 1XX      0.099700
     14 H5          3.8240    2.2120    0.7160 hc        1 1XX      0.058033
     15 H6          4.2350    1.4250    2.2950 hc        1 1XX      0.058033
     16 H7          5.3730    1.2710    0.8780 hc        1 1XX      0.058033
     17 H8          2.5580   -0.4950   -2.9990 ho        1 1XX      0.433000
@<TRIPOS>BOND
     1    1    2 1   
     2    1   10 1   
     3    1   11 1   
     4    1   12 1   
     5    2    3 1   
     6    2    8 2   
     7    3    4 1   
     8    4    5 1   
     9    4    6 1   
    10    4   13 1   
    11    5   14 1   
    12    5   15 1   
    13    5   16 1   
    14    6    7 2   
    15    6    8 1   
    16    8    9 1   
    17    9   17 1   
@<TRIPOS>SUBSTRUCTURE
     1 1XX         1 TEMP              0 ****  ****    0 ROOT
