@<TRIPOS>MOLECULE
1XY
   22    21     1     0     0
SMALL
bcc


@<TRIPOS>ATOM
      1 N34        -2.0220   -1.2620    0.3680 n3        1 1XY     -0.349000
      2 C35        -0.5010   -1.2620    0.3680 c3        1 1XY      0.022000
      3 C37        -0.0840   -1.2620    1.6600 c3        1 1XY     -0.184000
      4 C38         0.0360    0.0420    2.3160 c3        1 1XY     -0.018000
      5 O39         0.7810    0.9890    1.6710 os        1 1XY     -0.211000
      6 C40         0.7050    1.0250    0.1480 c2        1 1XY      0.104000
      7 C41         1.4160    1.9390   -0.6090 c2        1 1XY     -0.158000
      8 C42         1.3090    1.9270   -2.0120 c1        1 1XY     -0.097000
      9 C43         0.4660    0.9710   -2.6570 c1        1 1XY     -0.131000
     10 C44        -0.2600    0.0390   -1.8910 c1        1 1XY     -0.131000
     11 C45        -0.0170   -0.0560   -0.5200 c1        1 1XY     -0.153000
     12 H36        -2.3260   -1.9450    0.8900 hn        1 1XY      0.150000
     13 H37        -0.1960   -2.0890   -0.0500 h1        1 1XY      0.063000
     14 H38        -0.7100   -1.8020    2.1790 hc        1 1XY      0.098000
     15 H39         0.7900   -1.6950    1.6930 hc        1 1XY      0.098000
     16 H40         0.4460   -0.1070    3.1890 h1        1 1XY      0.103500
     17 H41        -0.8660    0.4010    2.4170 h1        1 1XY      0.103500
     18 H42         1.9930    2.5930   -0.1690 ha        1 1XY      0.149000
     19 H43         1.8110    2.5730   -2.5450 ha        1 1XY      0.133000
     20 H44         0.3920    0.9640   -3.6310 ha        1 1XY      0.129000
     21 H45        -0.8360   -0.6150   -2.3330 ha        1 1XY      0.129000
     22 H2         -2.3260   -1.3710   -0.4840 hn        1 1XY      0.150000
@<TRIPOS>BOND
     1    1    2 1   
     2    1   12 1   
     3    1   22 1   
     4    2    3 1   
     5    2   11 1   
     6    2   13 1   
     7    3    4 1   
     8    3   14 1   
     9    3   15 1   
    10    4    5 1   
    11    4   16 1   
    12    4   17 1   
    13    5    6 1   
    14    6    7 1   
    15    6   11 1   
    16    7    8 1   
    17    7   18 1   
    18    8   19 1   
    19    9   10 1   
    20    9   20 1   
    21   10   21 1   
@<TRIPOS>SUBSTRUCTURE
     1 1XY         1 TEMP              0 ****  ****    0 ROOT
