@<TRIPOS>MOLECULE
1XY
   23    24     1     0     0
SMALL
bcc


@<TRIPOS>ATOM
      1 N34        -0.0970    0.1380    0.1600 nz        1 1XY     -0.847600
      2 C35         1.4110    0.0250    0.0210 c3        1 1XY      0.209800
      3 C37         2.0460   -0.1290    1.4090 c3        1 1XY     -0.144400
      4 C38         3.4850    0.3530    1.3860 c3        1 1XY      0.129400
      5 O39         3.5570    1.7310    1.0090 os        1 1XY     -0.300900
      6 C40         2.9590    2.0030   -0.2030 ca        1 1XY      0.169100
      7 C41         3.4250    3.1400   -0.8900 ca        1 1XY     -0.134000
      8 C42         2.8710    3.4550   -2.1230 ca        1 1XY     -0.054000
      9 C43         1.8790    2.6390   -2.6870 ca        1 1XY     -0.135000
     10 C44         1.4200    1.5230   -2.0030 ca        1 1XY     -0.104000
     11 C45         1.9280    1.2080   -0.7300 ca        1 1XY     -0.256300
     12 H36        -0.3310    0.9820    0.6920 hn        1 1XY      0.457800
     13 H37         1.5910   -0.9160   -0.5850 hx        1 1XY      0.112700
     14 H38         2.0220   -1.2050    1.7220 hc        1 1XY      0.082700
     15 H39         1.4900    0.4710    2.1800 hc        1 1XY      0.082700
     16 H40         4.1080   -0.2600    0.6820 h1        1 1XY      0.092700
     17 H41         3.9330    0.3370    2.4170 h1        1 1XY      0.092700
     18 H42         4.2230    3.7520   -0.4400 ha        1 1XY      0.180000
     19 H43         3.2250    4.3440   -2.6730 ha        1 1XY      0.167000
     20 H44         1.4740    2.8820   -3.6830 ha        1 1XY      0.162000
     21 H45         0.6700    0.8730   -2.4790 ha        1 1XY      0.124000
     22 H2         -0.4650   -0.6820    0.6480 hn        1 1XY      0.457800
     23 H343       -0.5220    0.2080   -0.7700 hn        1 1XY      0.457800
@<TRIPOS>BOND
     1    1    2 1   
     2    1   12 1   
     3    1   22 1   
     4    1   23 1   
     5    2    3 1   
     6    2   11 1   
     7    2   13 1   
     8    3    4 1   
     9    3   14 1   
    10    3   15 1   
    11    4    5 1   
    12    4   16 1   
    13    4   17 1   
    14    5    6 1   
    15    6    7 ar  
    16    6   11 ar  
    17    7    8 ar  
    18    7   18 1   
    19    8    9 ar  
    20    8   19 1   
    21    9   10 ar  
    22    9   20 1   
    23   10   11 ar  
    24   10   21 1   
@<TRIPOS>SUBSTRUCTURE
     1 1XY         1 TEMP              0 ****  ****    0 ROOT
