@<TRIPOS>MOLECULE
1XY
   22    23     1     0     0
SMALL
bcc


@<TRIPOS>ATOM
      1 N34        -1.6390    2.2050    0.3980 n3        1 1XY     -0.906800
      2 C35        -1.3500    0.9470   -0.2740 c3        1 1XY      0.229800
      3 C37        -2.2850   -0.1610    0.2430 c3        1 1XY     -0.115400
      4 C38        -1.8570   -1.4930   -0.3270 c3        1 1XY      0.128400
      5 O39        -0.5460   -1.8630    0.1050 os        1 1XY     -0.325900
      6 C40         0.3990   -0.8550    0.0290 ca        1 1XY      0.130100
      7 C41         1.7300   -1.2900    0.1520 ca        1 1XY     -0.154000
      8 C42         2.7580   -0.3550    0.1000 ca        1 1XY     -0.101000
      9 C43         2.4660    0.9970   -0.0850 ca        1 1XY     -0.162000
     10 C44         1.1440    1.4200   -0.2030 ca        1 1XY     -0.090000
     11 C45         0.0860    0.5070   -0.1340 ca        1 1XY     -0.136300
     12 H36        -1.0300    2.9290    0.0770 hn        1 1XY      0.352800
     13 H37        -1.5350    1.0370   -1.3960 h1        1 1XY      0.014700
     14 H38        -2.2480   -0.2010    1.3630 hc        1 1XY      0.065700
     15 H39        -3.3400    0.0550   -0.0640 hc        1 1XY      0.065700
     16 H40        -2.5010   -2.3310    0.0550 h1        1 1XY      0.056200
     17 H41        -1.8740   -1.4790   -1.4490 h1        1 1XY      0.056200
     18 H42         1.9360   -2.3610    0.2900 ha        1 1XY      0.149000
     19 H43         3.8020   -0.6860    0.2000 ha        1 1XY      0.133000
     20 H44         3.2820    1.7320   -0.1360 ha        1 1XY      0.132000
     21 H45         0.9480    2.4920   -0.3540 ha        1 1XY      0.127000
     22 H2         -2.5890    2.4680    0.2290 hn        1 1XY      0.352800
@<TRIPOS>BOND
     1    1    2 1   
     2    1   12 1   
     3    1   22 1   
     4    2    3 1   
     5    2   11 1   
     6    2   13 1   
     7    3    4 1   
     8    3   14 1   
     9    3   15 1   
    10    4    5 1   
    11    4   16 1   
    12    4   17 1   
    13    5    6 1   
    14    6    7 ar  
    15    6   11 ar  
    16    7    8 ar  
    17    7   18 1   
    18    8    9 ar  
    19    8   19 1   
    20    9   10 ar  
    21    9   20 1   
    22   10   11 ar  
    23   10   21 1   
@<TRIPOS>SUBSTRUCTURE
     1 1XY         1 TEMP              0 ****  ****    0 ROOT
