@<TRIPOS>MOLECULE
1XY
   23    24     1     0     0
SMALL
bcc


@<TRIPOS>ATOM
      1 N34        -0.1020    0.1530    0.1710 n4        1 1XY     -0.847600
      2 C35         1.4050    0.0310    0.0280 c3        1 1XY      0.209800
      3 C37         2.0440   -0.1230    1.4130 c3        1 1XY     -0.144400
      4 C38         3.4860    0.3480    1.3830 c3        1 1XY      0.129400
      5 O39         3.5660    1.7250    1.0010 os        1 1XY     -0.300900
      6 C40         2.9650    1.9970   -0.2100 ca        1 1XY      0.169100
      7 C41         3.4350    3.1290   -0.9020 ca        1 1XY     -0.134000
      8 C42         2.8790    3.4440   -2.1330 ca        1 1XY     -0.054000
      9 C43         1.8800    2.6320   -2.6910 ca        1 1XY     -0.135000
     10 C44         1.4150    1.5220   -2.0020 ca        1 1XY     -0.104000
     11 C45         1.9270    1.2070   -0.7300 ca        1 1XY     -0.256300
     12 H36        -0.4730   -0.6620    0.6640 hn        1 1XY      0.457800
     13 H37         1.5760   -0.9140   -0.5770 hx        1 1XY      0.112700
     14 H38         1.4950    0.4830    2.1840 hc        1 1XY      0.082700
     15 H39         2.0140   -1.1990    1.7290 hc        1 1XY      0.082700
     16 H40         3.9390    0.3330    2.4120 h1        1 1XY      0.092700
     17 H41         4.1020   -0.2710    0.6780 h1        1 1XY      0.092700
     18 H42         4.2400    3.7360   -0.4570 ha        1 1XY      0.180000
     19 H43         3.2370    4.3280   -2.6880 ha        1 1XY      0.167000
     20 H44         1.4720    2.8750   -3.6860 ha        1 1XY      0.162000
     21 H45         0.6590    0.8750   -2.4730 ha        1 1XY      0.124000
     22 H2         -0.3280    1.0010    0.7010 hn        1 1XY      0.457800
     23 H343       -0.5300    0.2230   -0.7570 hn        1 1XY      0.457800
@<TRIPOS>BOND
     1    1    2 1   
     2    1   12 1   
     3    1   22 1   
     4    1   23 1   
     5    2    3 1   
     6    2   11 1   
     7    2   13 1   
     8    3    4 1   
     9    3   14 1   
    10    3   15 1   
    11    4    5 1   
    12    4   16 1   
    13    4   17 1   
    14    5    6 1   
    15    6    7 ar  
    16    6   11 ar  
    17    7    8 ar  
    18    7   18 1   
    19    8    9 ar  
    20    8   19 1   
    21    9   10 ar  
    22    9   20 1   
    23   10   11 ar  
    24   10   21 1   
@<TRIPOS>SUBSTRUCTURE
     1 1XY         1 TEMP              0 ****  ****    0 ROOT
