@<TRIPOS>MOLECULE
1XY
   23    24     1     0     0
SMALL
bcc


@<TRIPOS>ATOM
      1 N34        -0.0940    0.1220    0.1410 n4        1 1XY     -0.847600
      2 C35         1.4160    0.0220    0.0180 c3        1 1XY      0.209800
      3 C37         2.0390   -0.1260    1.4120 c3        1 1XY     -0.144400
      4 C38         3.4740    0.3670    1.4020 c3        1 1XY      0.129400
      5 O39         3.5390    1.7460    1.0240 os        1 1XY     -0.300900
      6 C40         2.9510    2.0110   -0.1950 ca        1 1XY      0.169100
      7 C41         3.4140    3.1510   -0.8790 ca        1 1XY     -0.134000
      8 C42         2.8700    3.4600   -2.1170 ca        1 1XY     -0.054000
      9 C43         1.8910    2.6340   -2.6900 ca        1 1XY     -0.135000
     10 C44         1.4330    1.5160   -2.0090 ca        1 1XY     -0.104000
     11 C45         1.9320    1.2070   -0.7300 ca        1 1XY     -0.256300
     12 H36        -0.4610   -0.6990    0.6270 hn        1 1XY      0.457800
     13 H37         1.6090   -0.9190   -0.5860 hx        1 1XY      0.112700
     14 H38         1.4700    0.4710    2.1770 hc        1 1XY      0.082700
     15 H39         2.0190   -1.2020    1.7260 hc        1 1XY      0.082700
     16 H40         4.1080   -0.2410    0.7060 h1        1 1XY      0.092700
     17 H41         3.9120    0.3560    2.4380 h1        1 1XY      0.092700
     18 H42         4.2030    3.7690   -0.4220 ha        1 1XY      0.180000
     19 H43         3.2230    4.3500   -2.6650 ha        1 1XY      0.167000
     20 H44         1.4940    2.8730   -3.6900 ha        1 1XY      0.162000
     21 H45         0.6930    0.8590   -2.4910 ha        1 1XY      0.124000
     22 H2         -0.5100    0.1890   -0.7930 hn        1 1XY      0.457800
     23 H343       -0.3400    0.9660    0.6700 hn        1 1XY      0.457800
@<TRIPOS>BOND
     1    1    2 1   
     2    1   12 1   
     3    1   22 1   
     4    1   23 1   
     5    2    3 1   
     6    2   11 1   
     7    2   13 1   
     8    3    4 1   
     9    3   14 1   
    10    3   15 1   
    11    4    5 1   
    12    4   16 1   
    13    4   17 1   
    14    5    6 1   
    15    6    7 ar  
    16    6   11 ar  
    17    7    8 ar  
    18    7   18 1   
    19    8    9 ar  
    20    8   19 1   
    21    9   10 ar  
    22    9   20 1   
    23   10   11 ar  
    24   10   21 1   
@<TRIPOS>SUBSTRUCTURE
     1 1XY         1 TEMP              0 ****  ****    0 ROOT
