@<TRIPOS>MOLECULE
1Y0
   82    87     1     0     0
SMALL
bcc


@<TRIPOS>ATOM
      1 N2          6.4220   -1.1370    2.5730 n3        1 1Y0     -0.802200
      2 C1          7.3240   -1.3490    1.4700 c3        1 1Y0      0.144100
      3 C3          5.0370   -1.4590    2.2840 c3        1 1Y0      0.116500
      4 C5          4.1640   -1.4180    3.5390 c3        1 1Y0     -0.097100
      5 C6          4.3800   -0.5130    1.2460 c         1 1Y0      0.614100
      6 O7          4.8240    0.6330    1.0340 o         1 1Y0     -0.616100
      7 N8          3.3050   -1.0170    0.5320 n         1 1Y0     -0.540900
      8 C9          2.4890   -0.1770   -0.3070 c3        1 1Y0      0.042700
      9 C17         1.1360    0.1520    0.3780 c         1 1Y0      0.637100
     10 O18         0.6230   -0.6620    1.1780 o         1 1Y0     -0.634100
     11 C11         2.1620   -0.8000   -1.6830 c3        1 1Y0     -0.067700
     12 C12         1.5360   -2.1820   -1.5790 c3        1 1Y0     -0.074900
     13 C13         1.1640   -2.6940   -2.9560 c3        1 1Y0     -0.077400
     14 C14         2.3740   -2.7290   -3.8680 c3        1 1Y0     -0.078400
     15 C15         3.0530   -1.3760   -3.9410 c3        1 1Y0     -0.077400
     16 C16         3.4030   -0.8530   -2.5610 c3        1 1Y0     -0.074900
     17 N19         0.5140    1.3740    0.1490 n         1 1Y0     -0.439800
     18 C20         0.8290    2.2070   -1.0020 c3        1 1Y0      0.095000
     19 C21         0.5170    3.6840   -0.6910 c3        1 1Y0      0.164500
     20 C23         0.7140    4.6860   -1.8540 c3        1 1Y0     -0.050400
     21 C24        -0.3750    5.7190   -1.6300 cx        1 1Y0     -0.129700
     22 C26        -0.4430    6.3450   -0.2620 cx        1 1Y0     -0.159400
     23 C27        -1.3210    5.1420   -0.5600 cx        1 1Y0      0.149500
     24 N28        -0.8960    3.8010   -0.2860 n3        1 1Y0     -0.737600
     25 C29        -1.1730    3.0980    0.9320 c3        1 1Y0      0.206800
     26 C30        -0.7810    1.5930    0.7810 c3        1 1Y0      0.031700
     27 C32        -1.9250    0.8690    0.0270 c         1 1Y0      0.641100
     28 O33        -1.9080    0.7060   -1.2060 o         1 1Y0     -0.590100
     29 N34        -2.9950    0.4510    0.8040 n         1 1Y0     -0.549900
     30 C35        -3.9710   -0.4900    0.2910 c3        1 1Y0      0.145000
     31 C37        -5.4050    0.0300    0.5030 c3        1 1Y0     -0.118400
     32 C38        -6.3880   -1.0410    0.0860 c3        1 1Y0      0.128400
     33 O39        -6.2840   -2.2130    0.8990 os        1 1Y0     -0.327900
     34 C40        -4.9930   -2.6500    1.1300 ca        1 1Y0      0.133100
     35 C41        -4.8940   -3.9460    1.6670 ca        1 1Y0     -0.158000
     36 C42        -3.6380   -4.4660    1.9540 ca        1 1Y0     -0.100000
     37 C43        -2.4900   -3.7130    1.7040 ca        1 1Y0     -0.162000
     38 C44        -2.5940   -2.4300    1.1720 ca        1 1Y0     -0.091000
     39 C45        -3.8470   -1.8730    0.8860 ca        1 1Y0     -0.180300
     40 H1          6.4880   -0.1910    2.9050 hn        1 1Y0      0.374800
     41 H3          7.3180   -2.4350    1.1890 h1        1 1Y0      0.037367
     42 H4          7.0660   -0.7440    0.5570 h1        1 1Y0      0.037367
     43 H5          8.3580   -1.0710    1.8050 h1        1 1Y0      0.037367
     44 H6          5.0240   -2.5120    1.8690 h1        1 1Y0      0.073700
     45 H7          4.1050   -0.3820    3.9490 hc        1 1Y0      0.051033
     46 H8          3.1330   -1.7660    3.2880 hc        1 1Y0      0.051033
     47 H9          4.5880   -2.0890    4.3240 hc        1 1Y0      0.051033
     48 H10         2.8640   -1.8450    0.8670 hn        1 1Y0      0.319500
     49 H11         3.0730    0.7790   -0.4790 h1        1 1Y0      0.105700
     50 H12         1.4140   -0.1110   -2.1730 hc        1 1Y0      0.063700
     51 H21         2.2560   -2.9000   -1.1070 hc        1 1Y0      0.047450
     52 H22         0.6250   -2.1330   -0.9250 hc        1 1Y0      0.047450
     53 H19         0.7300   -3.7240   -2.8660 hc        1 1Y0      0.042950
     54 H20         0.3740   -2.0340   -3.4020 hc        1 1Y0      0.042950
     55 H17         3.1040   -3.4920   -3.4900 hc        1 1Y0      0.039700
     56 H18         2.0590   -3.0450   -4.8970 hc        1 1Y0      0.039700
     57 H15         3.9880   -1.4580   -4.5540 hc        1 1Y0      0.042950
     58 H16         2.3750   -0.6460   -4.4560 hc        1 1Y0      0.042950
     59 H13         3.8490    0.1720   -2.6490 hc        1 1Y0      0.047450
     60 H14         4.1730   -1.5190   -2.0910 hc        1 1Y0      0.047450
     61 H23         1.9200    2.1270   -1.2530 h1        1 1Y0      0.067700
     62 H24         0.2190    1.8690   -1.8910 h1        1 1Y0      0.067700
     63 H25         1.2020    4.0100    0.1530 h1        1 1Y0      0.036700
     64 H26         1.7330    5.1370   -1.8130 hc        1 1Y0      0.058700
     65 H27         0.5770    4.1840   -2.8430 hc        1 1Y0      0.058700
     66 H28        -0.7340    6.2580   -2.5160 hc        1 1Y0      0.095700
     67 H29         0.4220    6.2520    0.4160 hc        1 1Y0      0.074200
     68 H30        -0.9420    7.3250   -0.1620 hc        1 1Y0      0.074200
     69 H31        -2.4200    5.2550   -0.5830 h1        1 1Y0      0.105700
     70 H33        -0.6080    3.5110    1.8190 h1        1 1Y0      0.047700
     71 H34        -2.2730    3.1640    1.1530 h1        1 1Y0      0.047700
     72 H35        -0.7030    1.1680    1.8290 h1        1 1Y0      0.089700
     73 H36        -2.8780    0.4450    1.7910 hn        1 1Y0      0.304500
     74 H37        -3.7990   -0.5870   -0.8290 h1        1 1Y0      0.097700
     75 H38        -5.5710    0.2930    1.5800 hc        1 1Y0      0.063200
     76 H39        -5.5690    0.9510   -0.1110 hc        1 1Y0      0.063200
     77 H40        -7.4490   -0.7090    0.2440 h1        1 1Y0      0.059700
     78 H41        -6.2350   -1.3350   -0.9860 h1        1 1Y0      0.059700
     79 H42        -5.8110   -4.5240    1.8510 ha        1 1Y0      0.148000
     80 H43        -3.5510   -5.4790    2.3760 ha        1 1Y0      0.133000
     81 H44        -1.4980   -4.1310    1.9260 ha        1 1Y0      0.135000
     82 H45        -1.6720   -1.8560    0.9750 ha        1 1Y0      0.151000
@<TRIPOS>BOND
     1    1    2 1   
     2    1    3 1   
     3    1   40 1   
     4    2   41 1   
     5    2   42 1   
     6    2   43 1   
     7    3    4 1   
     8    3    5 1   
     9    3   44 1   
    10    4   45 1   
    11    4   46 1   
    12    4   47 1   
    13    5    6 2   
    14    5    7 1   
    15    7    8 1   
    16    7   48 1   
    17    8    9 1   
    18    8   11 1   
    19    8   49 1   
    20    9   10 2   
    21    9   17 1   
    22   11   12 1   
    23   11   16 1   
    24   11   50 1   
    25   12   13 1   
    26   12   51 1   
    27   12   52 1   
    28   13   14 1   
    29   13   53 1   
    30   13   54 1   
    31   14   15 1   
    32   14   55 1   
    33   14   56 1   
    34   15   16 1   
    35   15   57 1   
    36   15   58 1   
    37   16   59 1   
    38   16   60 1   
    39   17   18 1   
    40   17   26 1   
    41   18   19 1   
    42   18   61 1   
    43   18   62 1   
    44   19   20 1   
    45   19   24 1   
    46   19   63 1   
    47   20   21 1   
    48   20   64 1   
    49   20   65 1   
    50   21   22 1   
    51   21   23 1   
    52   21   66 1   
    53   22   23 1   
    54   22   67 1   
    55   22   68 1   
    56   23   24 1   
    57   23   69 1   
    58   24   25 1   
    59   25   26 1   
    60   25   70 1   
    61   25   71 1   
    62   26   27 1   
    63   26   72 1   
    64   27   28 2   
    65   27   29 1   
    66   29   30 1   
    67   29   73 1   
    68   30   31 1   
    69   30   39 1   
    70   30   74 1   
    71   31   32 1   
    72   31   75 1   
    73   31   76 1   
    74   32   33 1   
    75   32   77 1   
    76   32   78 1   
    77   33   34 1   
    78   34   35 ar  
    79   34   39 ar  
    80   35   36 ar  
    81   35   79 1   
    82   36   37 ar  
    83   36   80 1   
    84   37   38 ar  
    85   37   81 1   
    86   38   39 ar  
    87   38   82 1   
@<TRIPOS>SUBSTRUCTURE
     1 1Y0         1 TEMP              0 ****  ****    0 ROOT
