@<TRIPOS>MOLECULE
1Y0
   82    83     1     0     0
SMALL
bcc


@<TRIPOS>ATOM
      1 N2          3.5030   -1.0150   -2.3960 n3        1 1Y0     -0.281000
      2 C1          4.8780   -1.4070   -2.5240 c3        1 1Y0     -0.132000
      3 C3          3.4310    0.3300   -1.9420 c3        1 1Y0     -0.029000
      4 C5          3.7040    1.2680   -3.0970 c3        1 1Y0     -0.215000
      5 C6          2.0420    0.6040   -1.3830 c1        1 1Y0      0.263000
      6 O7          1.0610    0.1580   -1.9480 o         1 1Y0     -0.411000
      7 N8          1.8830    1.4490   -0.2050 n2        1 1Y0     -0.346000
      8 C9          0.6350    1.4990    0.4660 c3        1 1Y0      0.019000
      9 C17        -0.3550    2.2740   -0.3680 c1        1 1Y0      0.267000
     10 O18         0.0020    3.2970   -0.9370 o         1 1Y0     -0.370000
     11 C11         0.8120    2.1960    1.8400 c3        1 1Y0     -0.100000
     12 C12         0.3130    3.6320    1.7330 c3        1 1Y0     -0.157500
     13 C13         0.6130    4.4510    2.9910 c3        1 1Y0     -0.155000
     14 C14         2.0750    4.3730    3.4010 c3        1 1Y0     -0.158000
     15 C15         2.5740    2.9360    3.5080 c3        1 1Y0     -0.155000
     16 C16         2.2740    2.1180    2.2490 c3        1 1Y0     -0.157500
     17 N19        -1.8100    1.9340   -0.3000 n2        1 1Y0     -0.272000
     18 C20        -2.8670    2.7950   -0.8980 c3        1 1Y0     -0.059000
     19 C21        -3.7280    2.0720   -1.8460 c3        1 1Y0     -0.066000
     20 C23        -2.8160    1.4240   -3.3030 c3        1 1Y0     -0.163000
     21 C24        -3.4560   -0.2250   -3.5230 cx        1 1Y0     -0.195000
     22 C26        -4.5630   -0.4080   -3.1600 cx        1 1Y0     -0.190000
     23 C27        -3.7390   -0.6050   -2.3550 cx        1 1Y0     -0.095000
     24 N28        -4.1450    0.8830   -1.0880 n3        1 1Y0     -0.200000
     25 C29        -3.1080    0.2210   -0.4960 c3        1 1Y0     -0.109000
     26 C30        -2.2760    0.8240    0.3110 c3        1 1Y0     -0.008000
     27 C32        -0.9970   -0.2280    0.8460 c2        1 1Y0      0.293000
     28 O33        -0.1430    0.1950    1.5960 o         1 1Y0     -0.364000
     29 N34        -1.0900   -1.6650    0.5890 n         1 1Y0     -0.349000
     30 C35        -0.1050   -2.6380    1.2700 c3        1 1Y0      0.067000
     31 C37         1.0340   -2.6550    0.5410 c3        1 1Y0     -0.223000
     32 C38         1.8810   -3.8530    0.6600 c3        1 1Y0     -0.019000
     33 O39         1.2720   -5.0590    0.4500 os        1 1Y0     -0.211000
     34 C40        -0.1590   -5.2180    0.9450 c2        1 1Y0      0.088000
     35 C41        -0.7190   -6.4760    1.1510 c2        1 1Y0     -0.158000
     36 C42        -1.9420   -6.5990    1.8460 c1        1 1Y0     -0.098000
     37 C43        -2.6060   -5.4320    2.3410 c1        1 1Y0     -0.124500
     38 C44        -2.0390   -4.1490    2.1340 c1        1 1Y0     -0.124500
     39 C45        -0.8390   -4.0230    1.4510 c1        1 1Y0     -0.151000
     40 H1          3.0830   -1.5650   -1.7930 hn        1 1Y0      0.170000
     41 H3          5.4160   -0.9390   -1.8500 h1        1 1Y0      0.077333
     42 H4          5.2030   -1.1740   -3.4210 h1        1 1Y0      0.077333
     43 H5          4.9570   -2.3800   -2.3900 h1        1 1Y0      0.077333
     44 H6          4.1030    0.4750   -1.2380 h1        1 1Y0      0.115000
     45 H7          3.9240    2.1610   -2.7500 hc        1 1Y0      0.091000
     46 H8          4.4590    0.9280   -3.6250 hc        1 1Y0      0.091000
     47 H9          2.9050    1.3270   -3.6680 hc        1 1Y0      0.091000
     48 H10         2.5680    2.0060    0.0560 hn        1 1Y0      0.234000
     49 H11         0.3040    0.5950    0.6030 h1        1 1Y0      0.133000
     50 H12         0.2700    1.7210    2.5090 hc        1 1Y0      0.119000
     51 H21         0.7470    4.0640    0.9620 hc        1 1Y0      0.087250
     52 H22        -0.6560    3.6210    1.5860 hc        1 1Y0      0.087250
     53 H19         0.3800    5.3940    2.8210 hc        1 1Y0      0.082750
     54 H20         0.0570    4.1140    3.7300 hc        1 1Y0      0.082750
     55 H17         2.6180    4.8500    2.7340 hc        1 1Y0      0.079000
     56 H18         2.1840    4.8140    4.2770 hc        1 1Y0      0.079000
     57 H15         2.1390    2.5050    4.2790 hc        1 1Y0      0.082750
     58 H16         3.5470    2.9480    3.6560 hc        1 1Y0      0.082750
     59 H13         2.5070    1.1780    2.4180 hc        1 1Y0      0.087250
     60 H14         2.8280    2.4550    1.5120 hc        1 1Y0      0.087250
     61 H23        -3.4270    3.1570   -0.1740 h1        1 1Y0      0.116000
     62 H24        -2.4360    3.5420   -1.3690 h1        1 1Y0      0.116000
     63 H25        -4.5050    2.6150   -2.1170 h1        1 1Y0      0.107000
     64 H26        -1.8560    1.3960   -3.1210 hc        1 1Y0      0.106000
     65 H27        -3.0010    1.9740   -4.0980 hc        1 1Y0      0.106000
     66 H28        -2.9590   -0.9170   -4.0130 hc        1 1Y0      0.132000
     67 H29        -5.1020    0.4040   -3.0220 hc        1 1Y0      0.114500
     68 H30        -4.9990   -1.2130   -3.5230 hc        1 1Y0      0.114500
     69 H31        -3.7580   -1.5520   -2.0920 h1        1 1Y0      0.138000
     70 H33        -2.6180    0.7780   -1.1360 h1        1 1Y0      0.099000
     71 H34        -3.6910    0.3650    0.2810 h1        1 1Y0      0.099000
     72 H35        -2.7110    1.0480    1.1630 h1        1 1Y0      0.142000
     73 H36        -1.7370   -1.9880    0.0260 hn        1 1Y0      0.246000
     74 H37         0.1080   -2.2860    2.1620 h1        1 1Y0      0.130000
     75 H38         0.7900   -2.5490   -0.4050 hc        1 1Y0      0.109000
     76 H39         1.5740   -1.8760    0.8060 hc        1 1Y0      0.109000
     77 H40         2.2500   -3.8640    1.5740 h1        1 1Y0      0.098000
     78 H41         2.6000   -3.7700   -0.0020 h1        1 1Y0      0.098000
     79 H42        -0.2640   -7.2780    0.8120 ha        1 1Y0      0.149000
     80 H43        -2.3360   -7.4880    1.9910 ha        1 1Y0      0.134000
     81 H44        -3.4550   -5.5200    2.8240 ha        1 1Y0      0.137000
     82 H45        -2.4930   -3.3540    2.4710 ha        1 1Y0      0.137000
@<TRIPOS>BOND
     1    1    2 1   
     2    1    3 1   
     3    1   40 1   
     4    2   41 1   
     5    2   42 1   
     6    2   43 1   
     7    3    4 1   
     8    3    5 1   
     9    3   44 1   
    10    4   45 1   
    11    4   46 1   
    12    4   47 1   
    13    5    6 1   
    14    7    8 1   
    15    7   48 1   
    16    8    9 1   
    17    8   11 1   
    18    8   49 1   
    19    9   10 1   
    20   11   12 1   
    21   11   16 1   
    22   11   50 1   
    23   12   13 1   
    24   12   51 1   
    25   12   52 1   
    26   13   14 1   
    27   13   53 1   
    28   13   54 1   
    29   14   15 1   
    30   14   55 1   
    31   14   56 1   
    32   15   16 1   
    33   15   57 1   
    34   15   58 1   
    35   16   59 1   
    36   16   60 1   
    37   17   18 1   
    38   17   26 1   
    39   18   19 1   
    40   18   61 1   
    41   18   62 1   
    42   19   20 1   
    43   19   24 1   
    44   19   63 1   
    45   20   21 1   
    46   20   64 1   
    47   20   65 1   
    48   21   22 1   
    49   21   23 1   
    50   21   66 1   
    51   22   23 1   
    52   22   67 1   
    53   22   68 1   
    54   23   24 1   
    55   23   69 1   
    56   24   25 1   
    57   25   26 1   
    58   25   70 1   
    59   25   71 1   
    60   26   27 1   
    61   26   72 1   
    62   27   28 1   
    63   27   29 1   
    64   29   30 1   
    65   29   73 1   
    66   30   31 1   
    67   30   39 1   
    68   30   74 1   
    69   31   32 1   
    70   31   75 1   
    71   31   76 1   
    72   32   33 1   
    73   32   77 1   
    74   32   78 1   
    75   33   34 1   
    76   34   35 1   
    77   34   39 1   
    78   35   36 1   
    79   35   79 1   
    80   36   80 1   
    81   37   38 1   
    82   37   81 1   
    83   38   82 1   
@<TRIPOS>SUBSTRUCTURE
     1 1Y0         1 TEMP              0 ****  ****    0 ROOT
