@<TRIPOS>MOLECULE
1Y2
   25    24     1     0     0
SMALL
bcc


@<TRIPOS>ATOM
      1 C30         1.8590    1.5540   -1.4070 c1        1 1Y2      0.771000
      2 O31         3.0940    1.5270   -1.1640 o         1 1Y2     -0.809000
      3 C32         0.8690    1.6040   -0.2720 c2        1 1Y2      0.135200
      4 N34         0.0890    2.7840   -0.3770 nh        1 1Y2     -0.478100
      5 C42        -0.0430    0.3840   -0.3390 c3        1 1Y2     -0.117000
      6 C43         0.8150   -0.8680   -0.4050 c3        1 1Y2     -0.080900
      7 C44        -0.0020   -2.1360   -0.2910 c3        1 1Y2     -0.108900
      8 C45        -0.9210   -2.1260    0.9160 c3        1 1Y2      0.393600
      9 F46        -1.7220   -3.1980    0.8590 f         1 1Y2     -0.264800
     10 F47        -0.1770   -2.2000    2.0270 f         1 1Y2     -0.264800
     11 C48        -1.7790   -0.8750    0.9830 c3        1 1Y2     -0.108900
     12 C49        -0.9620    0.3930    0.8690 c3        1 1Y2     -0.080900
     13 H28         1.3490    1.6060    0.5790 h4        1 1Y2     -0.044200
     14 H29         0.4750    3.3520   -0.9830 hn        1 1Y2      0.176700
     15 H39        -0.5860    0.4390   -1.1490 hc        1 1Y2      0.049700
     16 H40         1.2950   -0.8770   -1.2580 hc        1 1Y2      0.064200
     17 H41         1.4660   -0.8440    0.3250 hc        1 1Y2      0.064200
     18 H42         0.6060   -2.8980   -0.2190 hc        1 1Y2      0.051450
     19 H43        -0.5430   -2.2370   -1.0990 hc        1 1Y2      0.051450
     20 H44        -2.2590   -0.8670    1.8350 hc        1 1Y2      0.051450
     21 H45        -2.4300   -0.8990    0.2530 hc        1 1Y2      0.051450
     22 H46        -0.4210    0.4950    1.6770 hc        1 1Y2      0.064200
     23 H47        -1.5710    1.1560    0.7970 hc        1 1Y2      0.064200
     24 H2          0.0450    3.1940    0.4400 hn        1 1Y2      0.176700
     25 OXT         1.4510    1.5380   -2.5980 o         1 1Y2     -0.809000
@<TRIPOS>BOND
     1    1    2 2   
     2    1   25 2   
     3    3    4 2   
     4    3    5 1   
     5    3   13 1   
     6    4   14 1   
     7    4   24 1   
     8    5    6 1   
     9    5   12 1   
    10    5   15 1   
    11    6    7 1   
    12    6   16 1   
    13    6   17 1   
    14    7    8 1   
    15    7   18 1   
    16    7   19 1   
    17    8    9 1   
    18    8   10 1   
    19    8   11 1   
    20   11   12 1   
    21   11   20 1   
    22   11   21 1   
    23   12   22 1   
    24   12   23 1   
@<TRIPOS>SUBSTRUCTURE
     1 1Y2         1 TEMP              0 ****  ****    0 ROOT
