@<TRIPOS>MOLECULE
1Y2
   26    24     1     0     0
SMALL
bcc


@<TRIPOS>ATOM
      1 C30        -1.3010    0.4800   -0.9840 c         1 1Y2      0.630100
      2 O31        -0.3370    0.8890   -1.6340 o         1 1Y2     -0.509000
      3 C32        -1.2520    0.0320    0.4740 c3        1 1Y2      0.085500
      4 N34        -2.3240   -0.8840    0.8030 n8        1 1Y2     -0.929800
      5 C42         0.1660   -0.4770    0.7950 c3        1 1Y2     -0.078200
      6 C43        -1.7840   -4.4350    5.2630 c2        1 1Y2     -0.162000
      7 C44        -2.5650   -3.3650    5.1660 c2        1 1Y2     -0.247200
      8 C45        -3.1230   -2.8580    3.8570 c3        1 1Y2      0.433100
      9 F46        -3.2040   -1.4800    3.8140 f         1 1Y2     -0.251800
     10 F47        -2.3300   -3.1280    2.7600 f         1 1Y2     -0.251800
     11 C48         0.3130   -2.9530    0.6150 c2        1 1Y2     -0.225000
     12 C49         0.4740   -1.7420    0.0840 c2        1 1Y2     -0.172200
     13 H28        -3.2010    0.1810   -1.1240 ho        1 1Y2      0.447000
     14 H29        -1.4120    0.9840    1.0710 h1        1 1Y2      0.082700
     15 H39         0.2530   -0.6140    1.9050 hc        1 1Y2      0.065700
     16 H40         0.9010    0.3140    0.4840 hc        1 1Y2      0.065700
     17 H41        -1.4500   -5.0070    4.3850 ha        1 1Y2      0.128000
     18 H42        -1.4210   -4.8070    6.2310 ha        1 1Y2      0.128000
     19 H43        -2.8900   -2.7780    6.0380 ha        1 1Y2      0.152000
     20 H44        -4.1550   -3.3000    3.6940 h2        1 1Y2      0.076700
     21 H45         0.5550   -3.8700    0.0620 ha        1 1Y2      0.114500
     22 H46        -0.0700   -3.1110    1.6330 ha        1 1Y2      0.114500
     23 H47         0.8480   -1.6100   -0.9470 ha        1 1Y2      0.139000
     24 H2         -2.0790   -1.8250    0.5500 hn        1 1Y2      0.372300
     25 OXT        -2.4770    0.5250   -1.6680 oh        1 1Y2     -0.578100
     26 H343       -2.5200   -0.8550    1.7850 hn        1 1Y2      0.372300
@<TRIPOS>BOND
     1    1    2 2   
     2    1    3 1   
     3    1   25 1   
     4    3    4 1   
     5    3    5 1   
     6    3   14 1   
     7    4   24 1   
     8    4   26 1   
     9    5   12 1   
    10    5   15 1   
    11    5   16 1   
    12    6    7 2   
    13    6   17 1   
    14    6   18 1   
    15    7    8 1   
    16    7   19 1   
    17    8    9 1   
    18    8   10 1   
    19    8   20 1   
    20   11   12 2   
    21   11   21 1   
    22   11   22 1   
    23   12   23 1   
    24   13   25 1   
@<TRIPOS>SUBSTRUCTURE
     1 1Y2         1 TEMP              0 ****  ****    0 ROOT
