@<TRIPOS>MOLECULE
1Y2
   25    25     1     0     0
SMALL
bcc


@<TRIPOS>ATOM
      1 C30        -2.8000    0.3600    0.0310 c         1 1Y2      0.885600
      2 O31        -3.4050    0.3560   -1.0790 o         1 1Y2     -0.841800
      3 C32        -1.7750   -0.7900    0.3160 c3        1 1Y2      0.022500
      4 N34        -1.7910   -1.8700   -0.6610 n3        1 1Y2     -0.888800
      5 C42        -0.3970   -0.1460    0.5170 c3        1 1Y2     -0.049700
      6 C43         0.6300   -1.1290    1.0540 c3        1 1Y2     -0.076400
      7 C44         1.9360   -0.4320    1.3650 c3        1 1Y2     -0.109400
      8 C45         2.4950    0.3140    0.1280 c3        1 1Y2      0.395600
      9 F46         3.6380    1.0300    0.4640 f         1 1Y2     -0.264300
     10 F47         3.0160   -0.5600   -0.8120 f         1 1Y2     -0.264300
     11 C48         1.4180    1.2490   -0.4770 c3        1 1Y2     -0.109400
     12 C49         0.1360    0.4980   -0.7540 c3        1 1Y2     -0.076400
     13 H28        -2.0740   -1.2500    1.3040 h1        1 1Y2      0.042700
     14 H29        -2.7560   -2.1160   -0.8120 hn        1 1Y2      0.331800
     15 H39        -0.5600    0.6680    1.2830 hc        1 1Y2      0.072700
     16 H40         0.2390   -1.6090    1.9880 hc        1 1Y2      0.056700
     17 H41         0.8080   -1.9410    0.3020 hc        1 1Y2      0.056700
     18 H42         1.7880    0.3290    2.1740 hc        1 1Y2      0.052950
     19 H43         2.7010   -1.1720    1.7120 hc        1 1Y2      0.052950
     20 H44         1.2370    2.0750    0.2560 hc        1 1Y2      0.052950
     21 H45         1.8210    1.6950   -1.4210 hc        1 1Y2      0.052950
     22 H46         0.3350   -0.2820   -1.5350 hc        1 1Y2      0.056700
     23 H47        -0.6420    1.2010   -1.1560 hc        1 1Y2      0.056700
     24 H2         -1.4580   -1.5100   -1.5390 hn        1 1Y2      0.331800
     25 OXT        -2.9650    1.2240    0.9360 o         1 1Y2     -0.841800
@<TRIPOS>BOND
     1    1    2 1   
     2    1    3 1   
     3    1   25 1   
     4    3    4 1   
     5    3    5 1   
     6    3   13 1   
     7    4   14 1   
     8    4   24 1   
     9    5    6 1   
    10    5   12 1   
    11    5   15 1   
    12    6    7 1   
    13    6   16 1   
    14    6   17 1   
    15    7    8 1   
    16    7   18 1   
    17    7   19 1   
    18    8    9 1   
    19    8   10 1   
    20    8   11 1   
    21   11   12 1   
    22   11   20 1   
    23   11   21 1   
    24   12   22 1   
    25   12   23 1   
@<TRIPOS>SUBSTRUCTURE
     1 1Y2         1 TEMP              0 ****  ****    0 ROOT
