@<TRIPOS>MOLECULE
1Y2
   26    25     1     0     0
SMALL
bcc


@<TRIPOS>ATOM
      1 C30        -0.5260    1.0740    1.2490 c         1 1Y2      0.625100
      2 O31         0.0870    1.1860    2.3110 o         1 1Y2     -0.505000
      3 C32        -1.9780    0.6590    1.1150 c3        1 1Y2      0.055800
      4 N34        -2.1590   -0.3940    0.1440 n3        1 1Y2     -0.918800
      5 C42        -0.0260   -2.8990    1.6560 c2        1 1Y2     -0.159200
      6 C43        -0.3060   -2.2610    2.9640 c3        1 1Y2     -0.060200
      7 C44        -1.4480   -2.9190    3.7060 c3        1 1Y2     -0.116400
      8 C45        -2.6470   -3.2040    2.7690 c3        1 1Y2      0.403600
      9 F46        -3.6900   -3.7920    3.4640 f         1 1Y2     -0.251300
     10 F47        -3.2510   -2.0360    2.3300 f         1 1Y2     -0.251300
     11 C48        -2.2040   -4.0980    1.5810 c3        1 1Y2     -0.090200
     12 C49        -0.8860   -3.7110    1.0330 c2        1 1Y2     -0.188200
     13 H28        -0.3200    1.2340   -0.6550 ho        1 1Y2      0.444000
     14 H29        -2.5570    1.5670    0.7780 h1        1 1Y2      0.069200
     15 H39        -2.3430    0.3800    2.1480 h1        1 1Y2      0.069200
     16 H40         0.9480   -2.6470    1.2060 ha        1 1Y2      0.139000
     17 H41         0.6140   -2.2940    3.6070 hc        1 1Y2      0.072200
     18 H42        -0.5420   -1.1710    2.7880 hc        1 1Y2      0.072200
     19 H43        -1.7910   -2.2630    4.5460 hc        1 1Y2      0.071700
     20 H44        -1.1230   -3.9000    4.1370 hc        1 1Y2      0.071700
     21 H45        -2.9890   -4.0430    0.7820 hc        1 1Y2      0.076700
     22 H46        -2.1640   -5.1590    1.9480 hc        1 1Y2      0.076700
     23 H47        -0.6420   -4.1610    0.0570 ha        1 1Y2      0.135000
     24 H2         -1.7470   -1.2500    0.4740 hn        1 1Y2      0.366800
     25 OXT         0.2010    1.3960    0.1450 oh        1 1Y2     -0.576100
     26 H343       -3.1370   -0.5490   -0.0090 hn        1 1Y2      0.366800
@<TRIPOS>BOND
     1    1    2 2   
     2    1    3 1   
     3    1   25 1   
     4    3    4 1   
     5    3   14 1   
     6    3   15 1   
     7    4   24 1   
     8    4   26 1   
     9    5    6 1   
    10    5   12 2   
    11    5   16 1   
    12    6    7 1   
    13    6   17 1   
    14    6   18 1   
    15    7    8 1   
    16    7   19 1   
    17    7   20 1   
    18    8    9 1   
    19    8   10 1   
    20    8   11 1   
    21   11   12 1   
    22   11   21 1   
    23   11   22 1   
    24   12   23 1   
    25   13   25 1   
@<TRIPOS>SUBSTRUCTURE
     1 1Y2         1 TEMP              0 ****  ****    0 ROOT
