@<TRIPOS>MOLECULE
1Y2
   26    24     1     0     0
SMALL
bcc


@<TRIPOS>ATOM
      1 C30        -0.9960    0.3200   -0.9230 c         1 1Y2      0.628100
      2 O31        -0.0660    0.3780   -1.7290 o         1 1Y2     -0.506000
      3 C32        -0.9220   -0.2830    0.4770 c3        1 1Y2      0.084500
      4 N34        -2.2010   -0.8050    0.9110 n3        1 1Y2     -0.923800
      5 C42         0.2520   -1.2750    0.5460 c3        1 1Y2     -0.080200
      6 C43        -2.6010   -2.1580    6.2210 c2        1 1Y2     -0.162000
      7 C44        -3.0650   -2.8070    5.1590 c2        1 1Y2     -0.247200
      8 C45        -2.2510   -3.0450    3.9090 c3        1 1Y2      0.433100
      9 F46        -3.0170   -2.9980    2.7610 f         1 1Y2     -0.251300
     10 F47        -1.3040   -2.0720    3.6550 f         1 1Y2     -0.251300
     11 C48         0.2110   -3.7280    0.1500 c2        1 1Y2     -0.221000
     12 C49         0.0210   -2.4830   -0.2800 c2        1 1Y2     -0.171200
     13 H28        -2.8410    0.8390   -0.7050 ho        1 1Y2      0.447000
     14 H29        -0.6630    0.5910    1.1530 h1        1 1Y2      0.081700
     15 H39         0.4210   -1.5490    1.6220 hc        1 1Y2      0.068200
     16 H40         1.1740   -0.7540    0.1690 hc        1 1Y2      0.068200
     17 H41        -3.1990   -2.0310    7.1340 ha        1 1Y2      0.128000
     18 H42        -1.5980   -1.7080    6.2500 ha        1 1Y2      0.128000
     19 H43        -4.0730   -3.2460    5.1160 ha        1 1Y2      0.152000
     20 H44        -1.7420   -4.0560    3.9810 h2        1 1Y2      0.074700
     21 H45         0.5360   -3.9630    1.1720 ha        1 1Y2      0.110500
     22 H46         0.0590   -4.6000   -0.5000 ha        1 1Y2      0.110500
     23 H47        -0.2940   -2.2740   -1.3180 ha        1 1Y2      0.136000
     24 H2         -2.3830   -1.6990    0.4970 hn        1 1Y2      0.371300
     25 OXT        -2.1340    0.9250   -1.3620 oh        1 1Y2     -0.579100
     26 H343       -2.2160   -0.9030    1.9080 hn        1 1Y2      0.371300
@<TRIPOS>BOND
     1    1    2 2   
     2    1    3 1   
     3    1   25 1   
     4    3    4 1   
     5    3    5 1   
     6    3   14 1   
     7    4   24 1   
     8    4   26 1   
     9    5   12 1   
    10    5   15 1   
    11    5   16 1   
    12    6    7 2   
    13    6   17 1   
    14    6   18 1   
    15    7    8 1   
    16    7   19 1   
    17    8    9 1   
    18    8   10 1   
    19    8   20 1   
    20   11   12 2   
    21   11   21 1   
    22   11   22 1   
    23   12   23 1   
    24   13   25 1   
@<TRIPOS>SUBSTRUCTURE
     1 1Y2         1 TEMP              0 ****  ****    0 ROOT
