@<TRIPOS>MOLECULE
1Y3
   32    33     1     0     0
SMALL
bcc


@<TRIPOS>ATOM
      1 C1         -3.4720   -0.0040   -2.9700 c3        1 1Y3     -0.095100
      2 C2         -1.9400   -0.0040   -2.9700 c3        1 1Y3      0.131400
      3 O3         -1.4610   -0.0040   -1.6200 os        1 1Y3     -0.398600
      4 C4         -0.0940   -0.0660   -1.5140 c3        1 1Y3      0.135100
      5 C6          0.3100   -1.2470   -0.6800 c3        1 1Y3     -0.104400
      6 C7          1.2000   -0.7510    0.2420 c3        1 1Y3      0.148500
      7 C9          1.1050   -1.5450    1.5020 c3        1 1Y3      0.114800
      8 N10         1.8250   -0.9320    2.6100 n3        1 1Y3     -0.758200
      9 C11         1.4290    0.5550    2.8630 c3        1 1Y3      0.002500
     10 C13         1.5340    1.3610    1.4940 c3        1 1Y3      0.155800
     11 N14         0.8230    0.7420    0.4300 n3        1 1Y3     -0.729600
     12 C15         0.4450    1.1840   -0.7640 c3        1 1Y3      0.150800
     13 C16         0.1200    0.6870    3.4890 c         1 1Y3      0.929600
     14 O17        -0.5590    1.7360    3.3140 o         1 1Y3     -0.835300
     15 H1         -3.7970    0.7940   -2.5110 hc        1 1Y3      0.040033
     16 H2         -3.7970   -0.0060   -3.8900 hc        1 1Y3      0.040033
     17 H3         -3.7970   -0.8000   -2.5080 hc        1 1Y3      0.040033
     18 H4         -1.6150    0.7930   -3.4300 h1        1 1Y3      0.012200
     19 H5         -1.6150   -0.8010   -3.4300 h1        1 1Y3      0.012200
     20 H6          0.3100   -0.1260   -2.4010 h1        1 1Y3      0.020700
     21 H7          0.7410   -1.9230   -1.2370 hc        1 1Y3      0.040700
     22 H8         -0.4690   -1.6260   -0.2300 hc        1 1Y3      0.040700
     23 H9          2.1070   -0.8150   -0.1150 h1        1 1Y3      0.028700
     24 H10         0.1640   -1.6320    1.7480 h1        1 1Y3      0.068700
     25 H11         1.4720   -2.4350    1.3410 h1        1 1Y3      0.068700
     26 H12         2.0030    0.9550    3.5440 h1        1 1Y3      0.051700
     27 H13         2.4750    1.4320    1.2430 h1        1 1Y3      0.033200
     28 H14         1.1760    2.2590    1.6300 h1        1 1Y3      0.033200
     29 H16         1.2080    1.5610   -1.2420 h1        1 1Y3      0.074700
     30 H17        -0.2600    1.8520   -0.6700 h1        1 1Y3      0.074700
     31 H18         2.7220   -0.9860    2.4570 hn        1 1Y3      0.304800
     32 OXT        -0.2940   -0.2080    4.2770 o         1 1Y3     -0.835300
@<TRIPOS>BOND
     1    1    2 1   
     2    1   15 1   
     3    1   16 1   
     4    1   17 1   
     5    2    3 1   
     6    2   18 1   
     7    2   19 1   
     8    3    4 1   
     9    4    5 1   
    10    4   12 1   
    11    4   20 1   
    12    5    6 1   
    13    5   21 1   
    14    5   22 1   
    15    6    7 1   
    16    6   11 1   
    17    6   23 1   
    18    7    8 1   
    19    7   24 1   
    20    7   25 1   
    21    8    9 1   
    22    8   31 1   
    23    9   10 1   
    24    9   13 1   
    25    9   26 1   
    26   10   11 1   
    27   10   27 1   
    28   10   28 1   
    29   11   12 1   
    30   12   29 1   
    31   12   30 1   
    32   13   14 1   
    33   13   32 1   
@<TRIPOS>SUBSTRUCTURE
     1 1Y3         1 TEMP              0 ****  ****    0 ROOT
