@<TRIPOS>MOLECULE
1Y3
   32    32     1     0     0
SMALL
bcc


@<TRIPOS>ATOM
      1 C1          0.1790    2.3210    0.8250 c3        1 1Y3     -0.157100
      2 C2         -0.1070    0.8410    0.9130 c3        1 1Y3      0.156400
      3 O3         -0.1490    0.3820    2.2480 oh        1 1Y3     -0.648800
      4 C4          5.8840   -1.1610    1.5840 c2        1 1Y3     -0.294200
      5 C6          5.9390   -1.4800    3.0480 c3        1 1Y3     -0.032200
      6 C7          6.1140   -0.0790    3.7090 c3        1 1Y3      0.150500
      7 C9          4.9190    0.2350    4.6360 c3        1 1Y3      0.119800
      8 N10         4.7600    1.6390    4.9520 n3        1 1Y3     -0.757200
      9 C11         4.6420    2.4450    3.7450 c3        1 1Y3      0.019500
     10 C13         5.8110    2.2300    2.7480 c3        1 1Y3      0.164800
     11 N14         6.3060    0.8800    2.5940 nh        1 1Y3     -0.635400
     12 C15         6.0190    0.1780    1.3980 c2        1 1Y3      0.053000
     13 C16         3.3040    2.2910    2.9570 c         1 1Y3      0.930600
     14 O17         2.6390    1.2190    2.9990 o         1 1Y3     -0.841800
     15 H1          0.6810    0.6650    2.6720 ho        1 1Y3      0.459000
     16 H2          0.2450    2.6390   -0.2420 hc        1 1Y3      0.052700
     17 H3          1.1540    2.5540    1.3410 hc        1 1Y3      0.052700
     18 H4         -0.6290    2.9050    1.3250 hc        1 1Y3      0.052700
     19 H5          0.6710    0.2640    0.3410 h1        1 1Y3      0.008700
     20 H6         -1.1200    0.5940    0.4920 h1        1 1Y3      0.008700
     21 H7          5.7410   -1.9230    0.8260 ha        1 1Y3      0.131000
     22 H8          5.0050   -1.9830    3.3950 hc        1 1Y3      0.037200
     23 H9          6.8090   -2.1370    3.2930 hc        1 1Y3      0.037200
     24 H10         7.0670   -0.0530    4.3090 h1        1 1Y3      0.032700
     25 H11         5.0560   -0.3420    5.5900 h1        1 1Y3      0.074200
     26 H12         3.9580   -0.0940    4.1360 h1        1 1Y3      0.074200
     27 H13         4.6800    3.5280    4.0640 h1        1 1Y3      0.055700
     28 H14         6.6970    2.8350    3.1040 h1        1 1Y3      0.041700
     29 H16         5.4870    2.6430    1.7520 h1        1 1Y3      0.041700
     30 H17         5.9770    0.7380    0.4570 h4        1 1Y3      0.146000
     31 H18         5.5770    1.9520    5.4550 hn        1 1Y3      0.308800
     32 OXT         2.9710    3.2940    2.2630 o         1 1Y3     -0.841800
@<TRIPOS>BOND
     1    1    2 1   
     2    1   16 1   
     3    1   17 1   
     4    1   18 1   
     5    2    3 1   
     6    2   19 1   
     7    2   20 1   
     8    3   15 1   
     9    4    5 1   
    10    4   12 2   
    11    4   21 1   
    12    5    6 1   
    13    5   22 1   
    14    5   23 1   
    15    6    7 1   
    16    6   11 1   
    17    6   24 1   
    18    7    8 1   
    19    7   25 1   
    20    7   26 1   
    21    8    9 1   
    22    8   31 1   
    23    9   10 1   
    24    9   13 1   
    25    9   27 1   
    26   10   11 1   
    27   10   28 1   
    28   10   29 1   
    29   11   12 1   
    30   12   30 1   
    31   13   14 1   
    32   13   32 1   
@<TRIPOS>SUBSTRUCTURE
     1 1Y3         1 TEMP              0 ****  ****    0 ROOT
