@<TRIPOS>MOLECULE
1Y3
   32    32     1     0     0
SMALL
bcc


@<TRIPOS>ATOM
      1 C1          0.2910    2.0640    0.4540 c3        1 1Y3     -0.114100
      2 C2          1.6450    2.4520    1.0000 c3        1 1Y3      0.097400
      3 O3          2.6910    1.6630    0.4100 os        1 1Y3     -0.360900
      4 C4          2.7760    0.3900    0.9480 c2        1 1Y3     -0.094900
      5 C6          6.0090   -1.6030    2.6880 c3        1 1Y3     -0.089100
      6 C7          5.8690   -0.1200    3.0030 c3        1 1Y3      0.159500
      7 C9          5.5780    0.0400    4.5240 c3        1 1Y3      0.111800
      8 N10         5.4790    1.4190    4.9570 n3        1 1Y3     -0.756200
      9 C11         4.5190    2.1580    4.1440 c3        1 1Y3      0.000500
     10 C13         4.7760    2.0010    2.6220 c3        1 1Y3      0.157800
     11 N14         4.9350    0.6290    2.1520 nh        1 1Y3     -0.613400
     12 C15         3.7810   -0.0480    1.7400 c2        1 1Y3      0.048000
     13 C16         3.0170    1.8150    4.4210 c         1 1Y3      0.930600
     14 O17         2.6770    0.6570    4.7800 o         1 1Y3     -0.837300
     15 H1          1.6730    2.3710    2.1250 h1        1 1Y3      0.080200
     16 H2         -0.4820    2.7720    0.8360 hc        1 1Y3      0.027033
     17 H3          0.2890    2.0910   -0.6620 hc        1 1Y3      0.027033
     18 H4          0.0220    1.0310    0.7810 hc        1 1Y3      0.027033
     19 H5          1.9130    3.4980    0.6910 h1        1 1Y3      0.080200
     20 H6          1.9520   -0.2760    0.6570 h4        1 1Y3      0.112000
     21 H7          6.0480   -1.7840    1.5880 hc        1 1Y3      0.031367
     22 H8          6.9580   -1.9750    3.1440 hc        1 1Y3      0.031367
     23 H9          5.1630   -2.1890    3.1220 hc        1 1Y3      0.031367
     24 H10         6.8750    0.3610    2.7880 h1        1 1Y3      0.029700
     25 H11         6.4000   -0.4690    5.0960 h1        1 1Y3      0.069200
     26 H12         4.5890   -0.4500    4.7660 h1        1 1Y3      0.069200
     27 H13         4.6390    3.2520    4.3920 h1        1 1Y3      0.053700
     28 H14         3.9280    2.4950    2.0740 h1        1 1Y3      0.050700
     29 H16         5.7320    2.5360    2.3520 h1        1 1Y3      0.050700
     30 H17         3.7270   -1.1180    2.0280 h4        1 1Y3      0.122000
     31 H18         6.3820    1.8550    4.8390 hn        1 1Y3      0.302800
     32 OXT         2.2060    2.7640    4.2150 o         1 1Y3     -0.837300
@<TRIPOS>BOND
     1    1    2 1   
     2    1   16 1   
     3    1   17 1   
     4    1   18 1   
     5    2    3 1   
     6    2   15 1   
     7    2   19 1   
     8    3    4 1   
     9    4   12 2   
    10    4   20 1   
    11    5    6 1   
    12    5   21 1   
    13    5   22 1   
    14    5   23 1   
    15    6    7 1   
    16    6   11 1   
    17    6   24 1   
    18    7    8 1   
    19    7   25 1   
    20    7   26 1   
    21    8    9 1   
    22    8   31 1   
    23    9   10 1   
    24    9   13 1   
    25    9   27 1   
    26   10   11 1   
    27   10   28 1   
    28   10   29 1   
    29   11   12 1   
    30   12   30 1   
    31   13   14 1   
    32   13   32 1   
@<TRIPOS>SUBSTRUCTURE
     1 1Y3         1 TEMP              0 ****  ****    0 ROOT
