@<TRIPOS>MOLECULE
1Y3
   32    33     1     0     0
SMALL
bcc


@<TRIPOS>ATOM
      1 C1          5.0160   -1.2660    0.6180 c3        1 1Y3     -0.095100
      2 C2          4.1530   -0.4880   -0.3490 c3        1 1Y3      0.130400
      3 O3          3.1300    0.1370    0.4210 os        1 1Y3     -0.412600
      4 C4          2.1830    0.8400   -0.3760 c3        1 1Y3      0.129100
      5 C6          1.2930    1.6550    0.5850 c3        1 1Y3     -0.074400
      6 C7         -0.1180    1.4440    0.0170 c3        1 1Y3      0.171500
      7 C9         -1.2900    1.5370    1.0060 c3        1 1Y3      0.183800
      8 N10        -2.5580    1.2780    0.3410 n3        1 1Y3     -0.812200
      9 C11        -2.5920    0.1500   -0.5900 c3        1 1Y3      0.036500
     10 C13        -1.2810   -0.1690   -1.3550 c3        1 1Y3      0.193800
     11 N14        -0.1010    0.0970   -0.5700 n3        1 1Y3     -0.730600
     12 C15         1.2150   -0.1140   -1.1390 c3        1 1Y3      0.159800
     13 C16        -3.1760   -1.1730    0.0140 c         1 1Y3      0.901600
     14 O17        -3.7020   -1.1230    1.1620 o         1 1Y3     -0.840300
     15 H1          4.4030   -2.0300    1.1530 hc        1 1Y3      0.040367
     16 H2          5.8340   -1.7770    0.0570 hc        1 1Y3      0.040367
     17 H3          5.4640   -0.5820    1.3770 hc        1 1Y3      0.040367
     18 H4          4.7520    0.3010   -0.8800 h1        1 1Y3      0.019200
     19 H5          3.6960   -1.1690   -1.1150 h1        1 1Y3      0.019200
     20 H6          2.7240    1.5050   -1.1000 h1        1 1Y3      0.022700
     21 H7          1.3790    1.2580    1.6260 hc        1 1Y3      0.053200
     22 H8          1.5780    2.7320    0.5830 hc        1 1Y3      0.053200
     23 H9         -0.2780    2.2340   -0.7820 h1        1 1Y3      0.013700
     24 H10        -1.0930    0.8450    1.8750 h1        1 1Y3      0.022200
     25 H11        -1.3350    2.5880    1.4090 h1        1 1Y3      0.022200
     26 H12        -3.3390    0.4610   -1.3810 h1        1 1Y3      0.040700
     27 H13        -1.2940   -1.2660   -1.6150 h1        1 1Y3      0.034700
     28 H14        -1.2710    0.4220   -2.3190 h1        1 1Y3      0.034700
     29 H16         1.2660    0.1020   -2.2420 h1        1 1Y3      0.031200
     30 H17         1.4990   -1.1870   -0.9730 h1        1 1Y3      0.031200
     31 H18        -3.2460    1.0800    1.0560 hn        1 1Y3      0.380800
     32 OXT        -3.1370   -2.2050   -0.7110 o         1 1Y3     -0.840300
@<TRIPOS>BOND
     1    1    2 1   
     2    1   15 1   
     3    1   16 1   
     4    1   17 1   
     5    2    3 1   
     6    2   18 1   
     7    2   19 1   
     8    3    4 1   
     9    4    5 1   
    10    4   12 1   
    11    4   20 1   
    12    5    6 1   
    13    5   21 1   
    14    5   22 1   
    15    6    7 1   
    16    6   11 1   
    17    6   23 1   
    18    7    8 1   
    19    7   24 1   
    20    7   25 1   
    21    8    9 1   
    22    8   31 1   
    23    9   10 1   
    24    9   13 1   
    25    9   26 1   
    26   10   11 1   
    27   10   27 1   
    28   10   28 1   
    29   11   12 1   
    30   12   29 1   
    31   12   30 1   
    32   13   14 1   
    33   13   32 1   
@<TRIPOS>SUBSTRUCTURE
     1 1Y3         1 TEMP              0 ****  ****    0 ROOT
