@<TRIPOS>MOLECULE
1Y4
   25    26     1     0     0
SMALL
bcc


@<TRIPOS>ATOM
      1 N19         1.1090    1.2600   -0.6410 nh        1 1Y4     -0.258100
      2 C20         2.1490    0.3920   -0.0820 c3        1 1Y4      0.001300
      3 C21         2.0580    0.2400    1.4470 c3        1 1Y4      0.159500
      4 C23         3.3020   -0.2870    2.1830 c3        1 1Y4     -0.078400
      5 C24         3.1920    0.3310    3.5820 c3        1 1Y4     -0.084400
      6 C25         2.0720    1.3950    3.4860 c3        1 1Y4      0.178800
      7 N26         1.7590    1.5410    2.0750 n3        1 1Y4     -0.747600
      8 C27         0.4470    2.0370    1.6710 c3        1 1Y4      0.212500
      9 C28         0.0790    1.5390    0.3050 ce        1 1Y4     -0.373700
     10 C30        -1.2800    1.3080    0.0360 c         1 1Y4      0.585800
     11 O31        -1.7030    0.8380   -1.2050 oh        1 1Y4     -0.653100
     12 H23        -0.9330    0.6790   -1.7600 ho        1 1Y4      0.400000
     13 H24         3.1730    0.7600   -0.3680 h1        1 1Y4      0.008700
     14 H25         2.0160   -0.6290   -0.5360 h1        1 1Y4      0.008700
     15 H26         1.2150   -0.4930    1.6470 h1        1 1Y4      0.033700
     16 H27         4.2390    0.0430    1.6740 hc        1 1Y4      0.028700
     17 H28         3.3000   -1.4010    2.2230 hc        1 1Y4      0.028700
     18 H29         2.9260   -0.4420    4.3410 hc        1 1Y4      0.024700
     19 H30         4.1550    0.8010    3.8890 hc        1 1Y4      0.024700
     20 H31         1.1900    1.0800    4.1100 h1        1 1Y4      0.017200
     21 H33         2.4260    2.3870    3.8730 h1        1 1Y4      0.017200
     22 H34        -0.3650    1.7530    2.4030 h1        1 1Y4      0.007200
     23 H35         0.5350    3.1630    1.6880 h1        1 1Y4      0.007200
     24 OXT        -2.2760    1.4890    0.7830 o         1 1Y4     -0.702000
     25 H2          1.5500    2.1390   -0.8690 hn        1 1Y4      0.152700
@<TRIPOS>BOND
     1    1    2 1   
     2    1    9 2   
     3    1   25 1   
     4    2    3 1   
     5    2   13 1   
     6    2   14 1   
     7    3    4 1   
     8    3    7 1   
     9    3   15 1   
    10    4    5 1   
    11    4   16 1   
    12    4   17 1   
    13    5    6 1   
    14    5   18 1   
    15    5   19 1   
    16    6    7 1   
    17    6   20 1   
    18    6   21 1   
    19    7    8 1   
    20    8    9 1   
    21    8   22 1   
    22    8   23 1   
    23    9   10 1   
    24   10   11 1   
    25   10   24 2   
    26   11   12 1   
@<TRIPOS>SUBSTRUCTURE
     1 1Y4         1 TEMP              0 ****  ****    0 ROOT
