@<TRIPOS>MOLECULE
1Y4
   25    26     1     0     0
SMALL
bcc


@<TRIPOS>ATOM
      1 N19         0.5990    0.3480   -0.3050 nu        1 1Y4     -0.244100
      2 C20         1.9290    0.0150    0.2050 c3        1 1Y4     -0.047700
      3 C21         1.9280   -0.3590    1.7070 c3        1 1Y4      0.188500
      4 C23         3.3780   -0.2810    2.2410 c3        1 1Y4     -0.084400
      5 C24         3.4420    1.0110    3.0480 c3        1 1Y4     -0.084400
      6 C25         1.9880    1.5050    3.1580 c3        1 1Y4      0.161800
      7 N26         1.1090    0.4850    2.5880 n3        1 1Y4     -0.729600
      8 C27        -0.1130    0.9970    1.9680 c3        1 1Y4      0.220500
      9 C28        -0.0170    1.3400    0.5210 ce        1 1Y4     -0.367700
     10 C30        -0.4940    2.5830    0.0920 c         1 1Y4      0.549800
     11 O31        -0.5210    2.9170   -1.2720 oh        1 1Y4     -0.664100
     12 H23        -0.6010    2.1130   -1.7900 ho        1 1Y4      0.381000
     13 H24         2.3030   -0.8760   -0.3740 h1        1 1Y4     -0.001800
     14 H25         2.6740    0.8500    0.0540 h1        1 1Y4     -0.001800
     15 H26         1.5280   -1.4070    1.8070 h1        1 1Y4      0.046700
     16 H27         4.1190   -0.2830    1.4060 hc        1 1Y4      0.026700
     17 H28         3.5940   -1.1640    2.8910 hc        1 1Y4      0.026700
     18 H29         3.8790    0.8330    4.0590 hc        1 1Y4      0.025200
     19 H30         4.0720    1.7740    2.5310 hc        1 1Y4      0.025200
     20 H31         1.8820    2.5030    2.6490 h1        1 1Y4      0.032700
     21 H33         1.6960    1.6370    4.2350 h1        1 1Y4      0.032700
     22 H34        -0.4630    1.9010    2.5420 h1        1 1Y4      0.028200
     23 H35        -0.8710    0.1710    2.1190 h1        1 1Y4      0.028200
     24 OXT        -0.9580    3.5400    0.7630 o         1 1Y4     -0.694000
     25 H2          0.7370    0.7400   -1.2260 hn        1 1Y4      0.147700
@<TRIPOS>BOND
     1    1    2 1   
     2    1    9 2   
     3    1   25 1   
     4    2    3 1   
     5    2   13 1   
     6    2   14 1   
     7    3    4 1   
     8    3    7 1   
     9    3   15 1   
    10    4    5 1   
    11    4   16 1   
    12    4   17 1   
    13    5    6 1   
    14    5   18 1   
    15    5   19 1   
    16    6    7 1   
    17    6   20 1   
    18    6   21 1   
    19    7    8 1   
    20    8    9 1   
    21    8   22 1   
    22    8   23 1   
    23    9   10 1   
    24   10   11 1   
    25   10   24 2   
    26   11   12 1   
@<TRIPOS>SUBSTRUCTURE
     1 1Y4         1 TEMP              0 ****  ****    0 ROOT
