@<TRIPOS>MOLECULE
1Y4
   25    26     1     0     0
SMALL
bcc


@<TRIPOS>ATOM
      1 N19        -0.9620    1.5450   -0.6410 n3        1 1Y4     -0.811200
      2 C20         0.2260    1.7330    0.1770 c3        1 1Y4      0.182800
      3 C21         1.3510    0.7790   -0.2490 c3        1 1Y4      0.172500
      4 C23         2.6530    0.8230    0.5680 c3        1 1Y4     -0.077400
      5 C24         3.1880   -0.6120    0.4900 c3        1 1Y4     -0.084400
      6 C25         2.0420   -1.4610   -0.1110 c3        1 1Y4      0.186800
      7 N26         0.8720   -0.6050   -0.1280 n3        1 1Y4     -0.737600
      8 C27        -0.2270   -0.8830   -1.0170 c3        1 1Y4      0.196800
      9 C28        -1.3660    0.1630   -0.8970 c3        1 1Y4      0.036500
     10 C30        -2.4720   -0.3800    0.0710 c         1 1Y4      0.901600
     11 O31        -3.0230    0.4340    0.8650 o         1 1Y4     -0.841800
     12 H23         0.5760    2.7920    0.0170 h1        1 1Y4      0.020200
     13 H24         0.0300    1.6010    1.2800 h1        1 1Y4      0.020200
     14 H25         1.6210    1.0220   -1.3240 h1        1 1Y4      0.014700
     15 H26         3.3720    1.5560    0.1320 hc        1 1Y4      0.036700
     16 H27         2.4480    1.1160    1.6250 hc        1 1Y4      0.036700
     17 H28         4.0930   -0.6680   -0.1620 hc        1 1Y4      0.029200
     18 H29         3.4640   -0.9900    1.5020 hc        1 1Y4      0.029200
     19 H30         2.3360   -1.8340   -1.1330 h1        1 1Y4      0.022200
     20 H31         1.8170   -2.3540    0.5300 h1        1 1Y4      0.022200
     21 H33         0.1170   -0.9230   -2.0940 h1        1 1Y4      0.033700
     22 H34        -0.6570   -1.8900   -0.7470 h1        1 1Y4      0.033700
     23 H35        -1.8610    0.1970   -1.9150 h1        1 1Y4      0.040700
     24 OXT        -2.7900   -1.5970   -0.0400 o         1 1Y4     -0.841800
     25 H2         -1.7370    1.9850   -0.1610 hn        1 1Y4      0.377800
@<TRIPOS>BOND
     1    1    2 1   
     2    1    9 1   
     3    1   25 1   
     4    2    3 1   
     5    2   12 1   
     6    2   13 1   
     7    3    4 1   
     8    3    7 1   
     9    3   14 1   
    10    4    5 1   
    11    4   15 1   
    12    4   16 1   
    13    5    6 1   
    14    5   17 1   
    15    5   18 1   
    16    6    7 1   
    17    6   19 1   
    18    6   20 1   
    19    7    8 1   
    20    8    9 1   
    21    8   21 1   
    22    8   22 1   
    23    9   10 1   
    24    9   23 1   
    25   10   11 1   
    26   10   24 1   
@<TRIPOS>SUBSTRUCTURE
     1 1Y4         1 TEMP              0 ****  ****    0 ROOT
