@<TRIPOS>MOLECULE
1Y4
   25    26     1     0     0
SMALL
bcc


@<TRIPOS>ATOM
      1 N19         0.6060    0.3370   -0.3020 nh        1 1Y4     -0.244100
      2 C20         1.9360    0.0110    0.2110 c3        1 1Y4     -0.047700
      3 C21         1.9340   -0.3560    1.7150 c3        1 1Y4      0.188500
      4 C23         3.3830   -0.2700    2.2510 c3        1 1Y4     -0.084400
      5 C24         3.4390    1.0260    3.0530 c3        1 1Y4     -0.084400
      6 C25         1.9840    1.5150    3.1590 c3        1 1Y4      0.161800
      7 N26         1.1090    0.4880    2.5910 n3        1 1Y4     -0.729600
      8 C27        -0.1130    0.9920    1.9660 c3        1 1Y4      0.220500
      9 C28        -0.0160    1.3290    0.5190 ce        1 1Y4     -0.367700
     10 C30        -0.4980    2.5680    0.0830 c         1 1Y4      0.549800
     11 O31        -0.5260    2.8950   -1.2830 oh        1 1Y4     -0.664100
     12 H23        -0.6010    2.0880   -1.7970 ho        1 1Y4      0.381000
     13 H24         2.6770    0.8500    0.0580 h1        1 1Y4     -0.001800
     14 H25         2.3150   -0.8800   -0.3630 h1        1 1Y4     -0.001800
     15 H26         1.5380   -1.4050    1.8190 h1        1 1Y4      0.046700
     16 H27         4.1250   -0.2720    1.4180 hc        1 1Y4      0.026700
     17 H28         3.6010   -1.1490    2.9060 hc        1 1Y4      0.026700
     18 H29         3.8750    0.8540    4.0670 hc        1 1Y4      0.025200
     19 H30         4.0680    1.7900    2.5350 hc        1 1Y4      0.025200
     20 H31         1.8750    2.5100    2.6440 h1        1 1Y4      0.032700
     21 H33         1.6890    1.6510    4.2340 h1        1 1Y4      0.032700
     22 H34        -0.8680    0.1640    2.1210 h1        1 1Y4      0.028200
     23 H35        -0.4680    1.8970    2.5360 h1        1 1Y4      0.028200
     24 OXT        -0.9690    3.5260    0.7490 o         1 1Y4     -0.694000
     25 H2          0.7440    0.7250   -1.2240 hn        1 1Y4      0.147700
@<TRIPOS>BOND
     1    1    2 1   
     2    1    9 2   
     3    1   25 1   
     4    2    3 1   
     5    2   13 1   
     6    2   14 1   
     7    3    4 1   
     8    3    7 1   
     9    3   15 1   
    10    4    5 1   
    11    4   16 1   
    12    4   17 1   
    13    5    6 1   
    14    5   18 1   
    15    5   19 1   
    16    6    7 1   
    17    6   20 1   
    18    6   21 1   
    19    7    8 1   
    20    8    9 1   
    21    8   22 1   
    22    8   23 1   
    23    9   10 1   
    24   10   11 1   
    25   10   24 2   
    26   11   12 1   
@<TRIPOS>SUBSTRUCTURE
     1 1Y4         1 TEMP              0 ****  ****    0 ROOT
