@<TRIPOS>MOLECULE
1Y4
   25    26     1     0     0
SMALL
bcc


@<TRIPOS>ATOM
      1 N19        -1.4740   -0.9610   -1.3710 n3        1 1Y4     -0.791200
      2 C20        -0.0400   -0.9610   -1.3710 c3        1 1Y4      0.133800
      3 C21         0.5390   -0.9610    0.0080 c3        1 1Y4      0.178500
      4 C23         1.8830   -0.6970   -0.0570 c3        1 1Y4     -0.081400
      5 C24         2.2470    0.0620    1.2740 c3        1 1Y4     -0.085400
      6 C25         1.2220    0.8390    1.5470 c3        1 1Y4      0.143800
      7 N26        -0.0290    0.1250    0.8920 n3        1 1Y4     -0.723600
      8 C27        -1.4420    0.1300    0.9200 c3        1 1Y4      0.184800
      9 C28        -2.0860    0.1660   -0.5180 c3        1 1Y4     -0.000500
     10 C30        -1.9650    1.4890   -1.1590 c         1 1Y4      0.888600
     11 O31        -1.9300    1.5800   -2.4140 o         1 1Y4     -0.843800
     12 H23         0.2750   -0.1670   -1.8440 h1        1 1Y4      0.024700
     13 H24         0.2750   -1.7550   -1.8440 h1        1 1Y4      0.024700
     14 H25         0.3950   -1.8320    0.4240 h1        1 1Y4      0.045700
     15 H26         2.3860   -1.5310   -0.1160 hc        1 1Y4      0.030200
     16 H27         2.0760   -0.1320   -0.8290 hc        1 1Y4      0.030200
     17 H28         3.0510    0.6000    1.1430 hc        1 1Y4      0.032200
     18 H29         2.3850   -0.5780    1.9980 hc        1 1Y4      0.032200
     19 H30         1.1020    0.9140    2.5120 h1        1 1Y4      0.059200
     20 H31         1.3530    1.7220    1.1520 h1        1 1Y4      0.059200
     21 H33        -1.7490   -0.6730    1.3820 h1        1 1Y4      0.047700
     22 H34        -1.7430    0.9130    1.4190 h1        1 1Y4      0.047700
     23 H35        -3.0570    0.0720   -0.4660 h1        1 1Y4      0.044700
     24 OXT        -1.8970    2.5270   -0.4510 o         1 1Y4     -0.843800
     25 H2         -1.7780   -0.8930   -2.2280 hn        1 1Y4      0.362800
@<TRIPOS>BOND
     1    1    2 1   
     2    1    9 1   
     3    1   25 1   
     4    2    3 1   
     5    2   12 1   
     6    2   13 1   
     7    3    4 1   
     8    3    7 1   
     9    3   14 1   
    10    4    5 1   
    11    4   15 1   
    12    4   16 1   
    13    5    6 1   
    14    5   17 1   
    15    5   18 1   
    16    6    7 1   
    17    6   19 1   
    18    6   20 1   
    19    7    8 1   
    20    8    9 1   
    21    8   21 1   
    22    8   22 1   
    23    9   10 1   
    24    9   23 1   
    25   10   11 1   
    26   10   24 1   
@<TRIPOS>SUBSTRUCTURE
     1 1Y4         1 TEMP              0 ****  ****    0 ROOT
