@<TRIPOS>MOLECULE
1Y5
   24    25     1     0     0
SMALL
bcc


@<TRIPOS>ATOM
      1 N32        -1.5630    2.1980    0.4610 n3        1 1Y5     -0.909800
      2 C33        -1.3160    0.9480   -0.2480 c3        1 1Y5      0.221800
      3 C34        -2.3320   -0.1180    0.2000 c3        1 1Y5     -0.077400
      4 C35        -1.9760   -1.4680   -0.3750 c3        1 1Y5     -0.076400
      5 C36        -0.6510   -1.9370    0.1850 c3        1 1Y5     -0.036100
      6 C37         0.4080   -0.8960    0.0760 ca        1 1Y5     -0.066300
      7 C38         1.7440   -1.3090    0.1660 ca        1 1Y5     -0.132000
      8 C39         2.7840   -0.3900    0.0710 ca        1 1Y5     -0.128000
      9 C40         2.4920    0.9590   -0.1260 ca        1 1Y5     -0.133000
     10 C41         1.1670    1.3790   -0.2180 ca        1 1Y5     -0.121000
     11 C42         0.1110    0.4650   -0.1030 ca        1 1Y5     -0.061300
     12 H36        -0.9740    2.9260    0.1130 hn        1 1Y5      0.350800
     13 H37        -1.4660    1.0840   -1.3700 h1        1 1Y5      0.013700
     14 H38        -2.3530   -0.1810    1.3200 hc        1 1Y5      0.050200
     15 H39        -3.3550    0.1830   -0.1440 hc        1 1Y5      0.050200
     16 H40        -2.7760   -2.2110   -0.1190 hc        1 1Y5      0.043700
     17 H41        -1.9180   -1.4060   -1.4930 hc        1 1Y5      0.043700
     18 H42        -0.7760   -2.2060    1.2700 hc        1 1Y5      0.051700
     19 H43        -0.3250   -2.8670   -0.3530 hc        1 1Y5      0.051700
     20 H44         1.9690   -2.3770    0.3130 ha        1 1Y5      0.129000
     21 H45         3.8280   -0.7250    0.1480 ha        1 1Y5      0.130000
     22 H46         3.3070    1.6930   -0.2100 ha        1 1Y5      0.130000
     23 H47         0.9700    2.4470   -0.3890 ha        1 1Y5      0.125000
     24 H2         -2.5210    2.4650    0.3510 hn        1 1Y5      0.350800
@<TRIPOS>BOND
     1    1    2 1   
     2    1   12 1   
     3    1   24 1   
     4    2    3 1   
     5    2   11 1   
     6    2   13 1   
     7    3    4 1   
     8    3   14 1   
     9    3   15 1   
    10    4    5 1   
    11    4   16 1   
    12    4   17 1   
    13    5    6 1   
    14    5   18 1   
    15    5   19 1   
    16    6    7 ar  
    17    6   11 ar  
    18    7    8 ar  
    19    7   20 1   
    20    8    9 ar  
    21    8   21 1   
    22    9   10 ar  
    23    9   22 1   
    24   10   11 ar  
    25   10   23 1   
@<TRIPOS>SUBSTRUCTURE
     1 1Y5         1 TEMP              0 ****  ****    0 ROOT
