@<TRIPOS>MOLECULE
1Y5
   25    26     1     0     0
SMALL
bcc


@<TRIPOS>ATOM
      1 N32        -0.0870    0.1430    0.1650 nz        1 1Y5     -0.849600
      2 C33         1.4230    0.0440    0.0220 c3        1 1Y5      0.201800
      3 C34         2.0500   -0.1330    1.4100 c3        1 1Y5     -0.102400
      4 C35         3.5140    0.2480    1.3860 c3        1 1Y5     -0.074400
      5 C36         3.6690    1.7070    1.0160 c3        1 1Y5     -0.056100
      6 C37         2.9810    2.0190   -0.2660 ca        1 1Y5     -0.021300
      7 C38         3.4200    3.1140   -1.0260 ca        1 1Y5     -0.120000
      8 C39         2.8390    3.4030   -2.2560 ca        1 1Y5     -0.076000
      9 C40         1.8230    2.5830   -2.7570 ca        1 1Y5     -0.114000
     10 C41         1.3790    1.4970   -2.0130 ca        1 1Y5     -0.132000
     11 C42         1.9310    1.2260   -0.7490 ca        1 1Y5     -0.179300
     12 H36        -0.3260    0.9890    0.6920 hn        1 1Y5      0.455800
     13 H37         1.6090   -0.8930   -0.5900 hx        1 1Y5      0.110700
     14 H38         1.9400   -1.2020    1.7300 hc        1 1Y5      0.066700
     15 H39         1.5300    0.5100    2.1710 hc        1 1Y5      0.066700
     16 H40         4.0680   -0.3970    0.6530 hc        1 1Y5      0.075700
     17 H41         3.9570    0.0640    2.4000 hc        1 1Y5      0.075700
     18 H42         4.7620    1.9540    0.9310 hc        1 1Y5      0.078700
     19 H43         3.2470    2.3590    1.8300 hc        1 1Y5      0.078700
     20 H44         4.2410    3.7420   -0.6420 ha        1 1Y5      0.161000
     21 H45         3.1890    4.2680   -2.8430 ha        1 1Y5      0.163000
     22 H46         1.3830    2.7930   -3.7460 ha        1 1Y5      0.160000
     23 H47         0.6140    0.8370   -2.4480 ha        1 1Y5      0.120000
     24 H2         -0.4420   -0.6750    0.6640 hn        1 1Y5      0.455800
     25 H323       -0.5210    0.2000   -0.7610 hn        1 1Y5      0.455800
@<TRIPOS>BOND
     1    1    2 1   
     2    1   12 1   
     3    1   24 1   
     4    1   25 1   
     5    2    3 1   
     6    2   11 1   
     7    2   13 1   
     8    3    4 1   
     9    3   14 1   
    10    3   15 1   
    11    4    5 1   
    12    4   16 1   
    13    4   17 1   
    14    5    6 1   
    15    5   18 1   
    16    5   19 1   
    17    6    7 ar  
    18    6   11 ar  
    19    7    8 ar  
    20    7   20 1   
    21    8    9 ar  
    22    8   21 1   
    23    9   10 ar  
    24    9   22 1   
    25   10   11 ar  
    26   10   23 1   
@<TRIPOS>SUBSTRUCTURE
     1 1Y5         1 TEMP              0 ****  ****    0 ROOT
