@<TRIPOS>MOLECULE
1Y5
   24    23     1     0     0
SMALL
bcc


@<TRIPOS>ATOM
      1 N32        -2.6200   -0.8820    0.3280 n3        1 1Y5     -0.336000
      2 C33        -1.1350   -0.8820    0.3280 c3        1 1Y5      0.006000
      3 C34        -0.7050   -0.8820    1.6590 c3        1 1Y5     -0.192000
      4 C35         0.7310   -0.8820    1.8890 c3        1 1Y5     -0.151000
      5 C36         1.4900    0.1340    1.2270 c3        1 1Y5     -0.122000
      6 C37         1.0070    0.5390   -0.2280 c2        1 1Y5     -0.062000
      7 C38         1.6500    1.5060   -0.9760 c2        1 1Y5     -0.137000
      8 C39         1.1800    1.8280   -2.2630 c1        1 1Y5     -0.126000
      9 C40         0.0360    1.1560   -2.7980 c1        1 1Y5     -0.125000
     10 C41        -0.6230    0.1700   -2.0380 c1        1 1Y5     -0.125000
     11 C42        -0.2520   -0.0330   -0.7120 c1        1 1Y5     -0.072000
     12 H36        -2.9240   -1.7200    0.5210 hn        1 1Y5      0.143500
     13 H37        -0.9360   -1.7940    0.0430 h1        1 1Y5      0.107000
     14 H38        -1.0780   -0.0920    2.0950 hc        1 1Y5      0.081000
     15 H39        -1.0780   -1.6720    2.0950 hc        1 1Y5      0.081000
     16 H40         1.0750   -1.7450    1.5880 hc        1 1Y5      0.084000
     17 H41         0.8730   -0.7720    2.8490 hc        1 1Y5      0.084000
     18 H42         1.4520    0.9360    1.7820 hc        1 1Y5      0.090000
     19 H43         2.4080   -0.1890    1.1510 hc        1 1Y5      0.090000
     20 H44         2.4300    1.9650   -0.6120 ha        1 1Y5      0.129000
     21 H45         1.6350    2.5110   -2.7920 ha        1 1Y5      0.130000
     22 H46        -0.2880    1.3810   -3.6910 ha        1 1Y5      0.140000
     23 H47        -1.4030   -0.2880   -2.4040 ha        1 1Y5      0.140000
     24 H2         -2.9240   -0.2950    0.9560 hn        1 1Y5      0.143500
@<TRIPOS>BOND
     1    1    2 1   
     2    1   12 1   
     3    1   24 1   
     4    2    3 1   
     5    2   11 1   
     6    2   13 1   
     7    3    4 1   
     8    3   14 1   
     9    3   15 1   
    10    4    5 1   
    11    4   16 1   
    12    4   17 1   
    13    5    6 1   
    14    5   18 1   
    15    5   19 1   
    16    6    7 1   
    17    6   11 1   
    18    7    8 1   
    19    7   20 1   
    20    8   21 1   
    21    9   10 1   
    22    9   22 1   
    23   10   23 1   
@<TRIPOS>SUBSTRUCTURE
     1 1Y5         1 TEMP              0 ****  ****    0 ROOT
