@<TRIPOS>MOLECULE
1Y5
   25    26     1     0     0
SMALL
bcc


@<TRIPOS>ATOM
      1 N32        -0.0820    0.1280    0.1540 n4        1 1Y5     -0.849600
      2 C33         1.4290    0.0390    0.0170 c3        1 1Y5      0.201800
      3 C34         2.0520   -0.1360    1.4070 c3        1 1Y5     -0.102400
      4 C35         3.5130    0.2540    1.3900 c3        1 1Y5     -0.074400
      5 C36         3.6600    1.7150    1.0230 c3        1 1Y5     -0.056100
      6 C37         2.9760    2.0240   -0.2610 ca        1 1Y5     -0.021300
      7 C38         3.4110    3.1230   -1.0170 ca        1 1Y5     -0.120000
      8 C39         2.8330    3.4110   -2.2490 ca        1 1Y5     -0.076000
      9 C40         1.8250    2.5850   -2.7560 ca        1 1Y5     -0.114000
     10 C41         1.3850    1.4950   -2.0150 ca        1 1Y5     -0.132000
     11 C42         1.9330    1.2250   -0.7500 ca        1 1Y5     -0.179300
     12 H36        -0.5120    0.1840   -0.7730 hn        1 1Y5      0.455800
     13 H37         1.6240   -0.8960   -0.5960 hx        1 1Y5      0.110700
     14 H38         1.5240    0.5010    2.1680 hc        1 1Y5      0.066700
     15 H39         1.9480   -1.2080    1.7250 hc        1 1Y5      0.066700
     16 H40         3.9540    0.0710    2.4060 hc        1 1Y5      0.075700
     17 H41         4.0750   -0.3860    0.6590 hc        1 1Y5      0.075700
     18 H42         4.7530    1.9690    0.9430 hc        1 1Y5      0.078700
     19 H43         3.2310    2.3620    1.8360 hc        1 1Y5      0.078700
     20 H44         4.2260    3.7560   -0.6290 ha        1 1Y5      0.161000
     21 H45         3.1800    4.2780   -2.8340 ha        1 1Y5      0.163000
     22 H46         1.3880    2.7930   -3.7460 ha        1 1Y5      0.160000
     23 H47         0.6260    0.8300   -2.4540 ha        1 1Y5      0.120000
     24 H2         -0.3280    0.9710    0.6820 hn        1 1Y5      0.455800
     25 H323       -0.4340   -0.6930    0.6500 hn        1 1Y5      0.455800
@<TRIPOS>BOND
     1    1    2 1   
     2    1   12 1   
     3    1   24 1   
     4    1   25 1   
     5    2    3 1   
     6    2   11 1   
     7    2   13 1   
     8    3    4 1   
     9    3   14 1   
    10    3   15 1   
    11    4    5 1   
    12    4   16 1   
    13    4   17 1   
    14    5    6 1   
    15    5   18 1   
    16    5   19 1   
    17    6    7 ar  
    18    6   11 ar  
    19    7    8 ar  
    20    7   20 1   
    21    8    9 ar  
    22    8   21 1   
    23    9   10 ar  
    24    9   22 1   
    25   10   11 ar  
    26   10   23 1   
@<TRIPOS>SUBSTRUCTURE
     1 1Y5         1 TEMP              0 ****  ****    0 ROOT
