@<TRIPOS>MOLECULE
1Y5
   25    26     1     0     0
SMALL
bcc


@<TRIPOS>ATOM
      1 N32        -0.0850    0.1430    0.1770 n4        1 1Y5     -0.849600
      2 C33         1.4240    0.0440    0.0270 c3        1 1Y5      0.201800
      3 C34         2.0580   -0.1300    1.4130 c3        1 1Y5     -0.102400
      4 C35         3.5210    0.2510    1.3810 c3        1 1Y5     -0.074400
      5 C36         3.6740    1.7100    1.0080 c3        1 1Y5     -0.056100
      6 C37         2.9810    2.0190   -0.2710 ca        1 1Y5     -0.021300
      7 C38         3.4160    3.1130   -1.0350 ca        1 1Y5     -0.120000
      8 C39         2.8290    3.4000   -2.2620 ca        1 1Y5     -0.076000
      9 C40         1.8110    2.5790   -2.7580 ca        1 1Y5     -0.114000
     10 C41         1.3710    1.4940   -2.0100 ca        1 1Y5     -0.132000
     11 C42         1.9280    1.2250   -0.7480 ca        1 1Y5     -0.179300
     12 H36        -0.4380   -0.6750    0.6790 hn        1 1Y5      0.455800
     13 H37         1.6080   -0.8940   -0.5840 hx        1 1Y5      0.110700
     14 H38         1.9500   -1.1990    1.7350 hc        1 1Y5      0.066700
     15 H39         1.5410    0.5140    2.1750 hc        1 1Y5      0.066700
     16 H40         4.0720   -0.3950    0.6480 hc        1 1Y5      0.075700
     17 H41         3.9690    0.0690    2.3940 hc        1 1Y5      0.075700
     18 H42         4.7670    1.9560    0.9170 hc        1 1Y5      0.078700
     19 H43         3.2560    2.3630    1.8230 hc        1 1Y5      0.078700
     20 H44         4.2380    3.7420   -0.6560 ha        1 1Y5      0.161000
     21 H45         3.1760    4.2630   -2.8530 ha        1 1Y5      0.163000
     22 H46         1.3670    2.7860   -3.7450 ha        1 1Y5      0.160000
     23 H47         0.6040    0.8320   -2.4400 ha        1 1Y5      0.120000
     24 H2         -0.3220    0.9900    0.7030 hn        1 1Y5      0.455800
     25 H323       -0.5230    0.1980   -0.7470 hn        1 1Y5      0.455800
@<TRIPOS>BOND
     1    1    2 1   
     2    1   12 1   
     3    1   24 1   
     4    1   25 1   
     5    2    3 1   
     6    2   11 1   
     7    2   13 1   
     8    3    4 1   
     9    3   14 1   
    10    3   15 1   
    11    4    5 1   
    12    4   16 1   
    13    4   17 1   
    14    5    6 1   
    15    5   18 1   
    16    5   19 1   
    17    6    7 ar  
    18    6   11 ar  
    19    7    8 ar  
    20    7   20 1   
    21    8    9 ar  
    22    8   21 1   
    23    9   10 ar  
    24    9   22 1   
    25   10   11 ar  
    26   10   23 1   
@<TRIPOS>SUBSTRUCTURE
     1 1Y5         1 TEMP              0 ****  ****    0 ROOT
