@<TRIPOS>MOLECULE
1Y7
   33    32     1     0     0
SMALL
bcc


@<TRIPOS>ATOM
      1 O8          5.1740    1.2860    0.3250 o         1 1Y7     -0.913833
      2 P1          4.0190    0.7390   -0.4520 p5        1 1Y7      1.324900
      3 O9          2.9770    1.7370   -0.9270 o         1 1Y7     -0.913833
      4 O10         4.2770   -0.3850   -1.4120 o         1 1Y7     -0.913833
      5 O7          3.0400   -0.0470    0.7570 os        1 1Y7     -0.558200
      6 C7          1.9540   -0.6950    0.2390 c3        1 1Y7      0.205400
      7 C6          0.6360    0.0080    0.6550 c3        1 1Y7      0.095100
      8 O6          0.5510    1.3330    0.2010 oh        1 1Y7     -0.719800
      9 C5         -0.5700   -0.7900    0.1050 c3        1 1Y7      0.089100
     10 O5         -0.8820   -1.8840    0.9670 oh        1 1Y7     -0.641800
     11 C4         -1.8260    0.0900    0.0070 c3        1 1Y7      0.136100
     12 O4         -1.7620    0.9410   -1.1290 oh        1 1Y7     -0.676800
     13 C3         -3.1180   -0.7330   -0.1650 c3        1 1Y7      0.112100
     14 O3         -3.2730   -1.2280   -1.4810 oh        1 1Y7     -0.605800
     15 C2         -4.3470    0.1080    0.2250 c3        1 1Y7      0.080100
     16 O2         -4.6180    1.1430   -0.7110 oh        1 1Y7     -0.642800
     17 C1         -5.6020   -0.7690    0.2560 c3        1 1Y7      0.134400
     18 O1         -6.7690   -0.0190    0.5380 oh        1 1Y7     -0.625800
     19 H3          2.0060   -0.7460   -0.8860 h1        1 1Y7     -0.006800
     20 H4          1.8980   -1.7500    0.6490 h1        1 1Y7     -0.006800
     21 H5          0.5570    0.0290    1.7800 h1        1 1Y7      0.013700
     22 H6          1.4610    1.5950   -0.1660 ho        1 1Y7      0.525000
     23 H7         -0.3350   -1.2000   -0.9160 h1        1 1Y7      0.054700
     24 H8         -0.0410   -2.1900    1.3310 ho        1 1Y7      0.416000
     25 H9         -1.9000    0.7220    0.9350 h1        1 1Y7      0.048700
     26 H10        -0.8640    1.3190   -1.1690 ho        1 1Y7      0.480000
     27 H11        -3.0690   -1.6490    0.4890 h1        1 1Y7      0.096700
     28 H12        -3.0200   -0.5190   -2.0870 ho        1 1Y7      0.420000
     29 H13        -4.1800    0.5750    1.2360 h1        1 1Y7      0.043700
     30 H14        -3.7680    1.5340   -0.9610 ho        1 1Y7      0.443000
     31 H15        -5.7160   -1.2920   -0.7310 h1        1 1Y7      0.048200
     32 H16        -5.5260   -1.5220    1.0830 h1        1 1Y7      0.048200
     33 H17        -6.7430    0.7610   -0.0310 ho        1 1Y7      0.414000
@<TRIPOS>BOND
     1    1    2 1   
     2    2    3 1   
     3    2    4 1   
     4    2    5 1   
     5    5    6 1   
     6    6    7 1   
     7    6   19 1   
     8    6   20 1   
     9    7    8 1   
    10    7    9 1   
    11    7   21 1   
    12    8   22 1   
    13    9   10 1   
    14    9   11 1   
    15    9   23 1   
    16   10   24 1   
    17   11   12 1   
    18   11   13 1   
    19   11   25 1   
    20   12   26 1   
    21   13   14 1   
    22   13   15 1   
    23   13   27 1   
    24   14   28 1   
    25   15   16 1   
    26   15   17 1   
    27   15   29 1   
    28   16   30 1   
    29   17   18 1   
    30   17   31 1   
    31   17   32 1   
    32   18   33 1   
@<TRIPOS>SUBSTRUCTURE
     1 1Y7         1 TEMP              0 ****  ****    0 ROOT
