@<TRIPOS>MOLECULE
1Y7
   33    32     1     0     0
SMALL
bcc


@<TRIPOS>ATOM
      1 O8         -4.4730    2.9130    2.8300 o         1 1Y7     -0.916500
      2 P1         -3.5170    2.3130    3.7890 p5        1 1Y7      1.317900
      3 O9         -4.2790    1.7640    4.9850 o         1 1Y7     -0.916500
      4 O10        -2.5320    3.3780    4.2600 o         1 1Y7     -0.916500
      5 O7         -2.7130    1.1150    3.0670 os        1 1Y7     -0.553200
      6 C7         -1.8500    1.4310    1.9720 c3        1 1Y7      0.198400
      7 C6         -1.1950    0.1630    1.4540 c3        1 1Y7      0.100100
      8 O6         -2.1820   -0.7980    1.1870 oh        1 1Y7     -0.694800
      9 C5         -0.4240    0.4740    0.1760 c3        1 1Y7      0.075100
     10 O5          0.4730    1.5550    0.4160 oh        1 1Y7     -0.654800
     11 C4          0.3550   -0.7370   -0.2430 c3        1 1Y7      0.136100
     12 O4         -0.4960   -1.8680   -0.2570 oh        1 1Y7     -0.643800
     13 C3          0.9290   -0.5160   -1.6270 c3        1 1Y7      0.161100
     14 O3         -0.0310   -0.7900   -2.5720 oh        1 1Y7     -0.605800
     15 C2          2.1340   -1.4440   -1.8310 c3        1 1Y7      0.072100
     16 O2          1.7360   -2.5770   -2.4850 oh        1 1Y7     -0.599800
     17 C1          3.2090   -0.7150   -2.6680 c3        1 1Y7      0.091400
     18 O1          4.2620   -1.6240   -2.9880 oh        1 1Y7     -0.626800
     19 H3         -2.3550    1.8310    1.2770 h1        1 1Y7     -0.007800
     20 H4         -1.1480    2.0640    2.2770 h1        1 1Y7     -0.007800
     21 H5         -0.6070   -0.1680    2.0970 h1        1 1Y7      0.009700
     22 H6         -2.3940   -1.2090    1.9260 ho        1 1Y7      0.514000
     23 H7         -1.0310    0.7140   -0.5110 h1        1 1Y7      0.064700
     24 H8          0.2130    2.2730   -0.0580 ho        1 1Y7      0.423000
     25 H9          1.0690   -0.8850    0.3760 h1        1 1Y7      0.044700
     26 H10        -0.1200   -2.5260    0.1980 ho        1 1Y7      0.463000
     27 H11         1.2100    0.3980   -1.7140 h1        1 1Y7      0.077700
     28 H12        -0.1660   -0.0580   -3.0800 ho        1 1Y7      0.418000
     29 H13         2.5080   -1.6860   -0.9610 h1        1 1Y7      0.070700
     30 H14         2.1530   -3.2440   -2.1720 ho        1 1Y7      0.392000
     31 H15         2.8090   -0.3810   -3.4890 h1        1 1Y7      0.057700
     32 H16         3.5810    0.0540   -2.1390 h1        1 1Y7      0.057700
     33 H17         4.8700   -1.2100   -3.4930 ho        1 1Y7      0.397000
@<TRIPOS>BOND
     1    1    2 1   
     2    2    3 1   
     3    2    4 1   
     4    2    5 1   
     5    5    6 1   
     6    6    7 1   
     7    6   19 1   
     8    6   20 1   
     9    7    8 1   
    10    7    9 1   
    11    7   21 1   
    12    8   22 1   
    13    9   10 1   
    14    9   11 1   
    15    9   23 1   
    16   10   24 1   
    17   11   12 1   
    18   11   13 1   
    19   11   25 1   
    20   12   26 1   
    21   13   14 1   
    22   13   15 1   
    23   13   27 1   
    24   14   28 1   
    25   15   16 1   
    26   15   17 1   
    27   15   29 1   
    28   16   30 1   
    29   17   18 1   
    30   17   31 1   
    31   17   32 1   
    32   18   33 1   
@<TRIPOS>SUBSTRUCTURE
     1 1Y7         1 TEMP              0 ****  ****    0 ROOT
