@<TRIPOS>MOLECULE
1Y7
   33    32     1     0     0
SMALL
bcc


@<TRIPOS>ATOM
      1 O8          0.1110    0.4280   -0.1540 o         1 1Y7     -0.913833
      2 P1          1.4550    1.0100    0.1500 p5        1 1Y7      1.324900
      3 O9          1.5300    2.5210    0.2950 o         1 1Y7     -0.913833
      4 O10         2.3640    0.2570    1.0750 o         1 1Y7     -0.913833
      5 O7          2.3110    0.8890   -1.3640 os        1 1Y7     -0.558200
      6 C7          3.6110    1.3000   -1.2860 c3        1 1Y7      0.205400
      7 C6          3.8300    2.6090   -2.0870 c3        1 1Y7      0.095100
      8 O6          3.0550    3.6800   -1.6160 oh        1 1Y7     -0.719800
      9 C5          5.3250    3.0060   -2.0290 c3        1 1Y7      0.089100
     10 O5          6.0730    2.2840   -3.0060 oh        1 1Y7     -0.641800
     11 C4          5.5180    4.5040   -2.3170 c3        1 1Y7      0.136100
     12 O4          5.1770    5.2870   -1.1820 oh        1 1Y7     -0.676800
     13 C3          6.9810    4.8620   -2.6440 c3        1 1Y7      0.112100
     14 O3          7.7990    4.9040   -1.4910 oh        1 1Y7     -0.605800
     15 C2          7.0510    6.2120   -3.3830 c3        1 1Y7      0.080100
     16 O2          6.7360    7.3120   -2.5400 oh        1 1Y7     -0.642800
     17 C1          8.4730    6.4650   -3.8910 c3        1 1Y7      0.134400
     18 O1          8.5980    7.7310   -4.5120 oh        1 1Y7     -0.625800
     19 H3          3.9250    1.4660   -0.2160 h1        1 1Y7     -0.006800
     20 H4          4.2940    0.5230   -1.7490 h1        1 1Y7     -0.006800
     21 H5          3.5560    2.4420   -3.1690 h1        1 1Y7      0.013700
     22 H6          2.3890    3.3090   -0.9460 ho        1 1Y7      0.525000
     23 H7          5.7520    2.7750   -1.0140 h1        1 1Y7      0.054700
     24 H8          5.6580    1.4150   -3.0770 ho        1 1Y7      0.416000
     25 H9          4.8540    4.7960   -3.1770 h1        1 1Y7      0.048700
     26 H10         4.3450    4.9360   -0.8160 ho        1 1Y7      0.480000
     27 H11         7.4290    4.0580   -3.2920 h1        1 1Y7      0.096700
     28 H12         7.2940    5.3480   -0.7960 ho        1 1Y7      0.420000
     29 H13         6.3300    6.2070   -4.2480 h1        1 1Y7      0.043700
     30 H14         5.9820    7.0470   -1.9920 ho        1 1Y7      0.443000
     31 H15         9.1940    6.3910   -3.0330 h1        1 1Y7      0.048200
     32 H16         8.7390    5.7180   -4.6830 h1        1 1Y7      0.048200
     33 H17         8.1770    8.3730   -3.9260 ho        1 1Y7      0.414000
@<TRIPOS>BOND
     1    1    2 1   
     2    2    3 1   
     3    2    4 1   
     4    2    5 1   
     5    5    6 1   
     6    6    7 1   
     7    6   19 1   
     8    6   20 1   
     9    7    8 1   
    10    7    9 1   
    11    7   21 1   
    12    8   22 1   
    13    9   10 1   
    14    9   11 1   
    15    9   23 1   
    16   10   24 1   
    17   11   12 1   
    18   11   13 1   
    19   11   25 1   
    20   12   26 1   
    21   13   14 1   
    22   13   15 1   
    23   13   27 1   
    24   14   28 1   
    25   15   16 1   
    26   15   17 1   
    27   15   29 1   
    28   16   30 1   
    29   17   18 1   
    30   17   31 1   
    31   17   32 1   
    32   18   33 1   
@<TRIPOS>SUBSTRUCTURE
     1 1Y7         1 TEMP              0 ****  ****    0 ROOT
