@<TRIPOS>MOLECULE
1Y7
   33    32     1     0     0
SMALL
bcc


@<TRIPOS>ATOM
      1 O8          0.0790    0.4520   -0.1970 o         1 1Y7     -0.913833
      2 P1          1.4430    0.9890    0.1010 p5        1 1Y7      1.324900
      3 O9          1.5580    2.4880    0.3180 o         1 1Y7     -0.913833
      4 O10         2.3570    0.1700    0.9640 o         1 1Y7     -0.913833
      5 O7          2.2590    0.9230   -1.4390 os        1 1Y7     -0.558200
      6 C7          3.5700    1.3020   -1.3740 c3        1 1Y7      0.205400
      7 C6          3.8000    2.6440   -2.1160 c3        1 1Y7      0.095100
      8 O6          3.0620    3.7060   -1.5730 oh        1 1Y7     -0.719800
      9 C5          5.3040    3.0050   -2.0760 c3        1 1Y7      0.089100
     10 O5          6.0110    2.3150   -3.1060 oh        1 1Y7     -0.641800
     11 C4          5.5250    4.5100   -2.2960 c3        1 1Y7      0.136100
     12 O4          5.2300    5.2430   -1.1150 oh        1 1Y7     -0.676800
     13 C3          6.9870    4.8520   -2.6420 c3        1 1Y7      0.112100
     14 O3          7.8340    4.8190   -1.5100 oh        1 1Y7     -0.605800
     15 C2          7.0710    6.2340   -3.3160 c3        1 1Y7      0.080100
     16 O2          6.8010    7.2980   -2.4120 oh        1 1Y7     -0.642800
     17 C1          8.4850    6.4820   -3.8460 c3        1 1Y7      0.134400
     18 O1          8.6240    7.7740   -4.4080 oh        1 1Y7     -0.625800
     19 H3          3.9140    1.4080   -0.3050 h1        1 1Y7     -0.006800
     20 H4          4.2230    0.5340   -1.8920 h1        1 1Y7     -0.006800
     21 H5          3.4950    2.5360   -3.1970 h1        1 1Y7      0.013700
     22 H6          2.4030    3.3180   -0.9050 ho        1 1Y7      0.525000
     23 H7          5.7500    2.7140   -1.0850 h1        1 1Y7      0.054700
     24 H8          5.5740    1.4600   -3.2090 ho        1 1Y7      0.416000
     25 H9          4.8470    4.8590   -3.1230 h1        1 1Y7      0.048700
     26 H10         4.3990    4.8930   -0.7450 ho        1 1Y7      0.480000
     27 H11         7.4000    4.0710   -3.3400 h1        1 1Y7      0.096700
     28 H12         7.3560    5.2390   -0.7810 ho        1 1Y7      0.420000
     29 H13         6.3290    6.2880   -4.1610 h1        1 1Y7      0.043700
     30 H14         6.0550    7.0240   -1.8580 ho        1 1Y7      0.443000
     31 H15         9.2250    6.3490   -3.0120 h1        1 1Y7      0.048200
     32 H16         8.7140    5.7690   -4.6810 h1        1 1Y7      0.048200
     33 H17         8.2320    8.3950   -3.7800 ho        1 1Y7      0.414000
@<TRIPOS>BOND
     1    1    2 1   
     2    2    3 1   
     3    2    4 1   
     4    2    5 1   
     5    5    6 1   
     6    6    7 1   
     7    6   19 1   
     8    6   20 1   
     9    7    8 1   
    10    7    9 1   
    11    7   21 1   
    12    8   22 1   
    13    9   10 1   
    14    9   11 1   
    15    9   23 1   
    16   10   24 1   
    17   11   12 1   
    18   11   13 1   
    19   11   25 1   
    20   12   26 1   
    21   13   14 1   
    22   13   15 1   
    23   13   27 1   
    24   14   28 1   
    25   15   16 1   
    26   15   17 1   
    27   15   29 1   
    28   16   30 1   
    29   17   18 1   
    30   17   31 1   
    31   17   32 1   
    32   18   33 1   
@<TRIPOS>SUBSTRUCTURE
     1 1Y7         1 TEMP              0 ****  ****    0 ROOT
