@<TRIPOS>MOLECULE
1Y9
   33    33     1     0     0
SMALL
bcc


@<TRIPOS>ATOM
      1 O1          0.0060   -0.0910   -0.3820 oh        1 1Y9     -0.599800
      2 C2          1.3710    0.1370   -0.1050 c3        1 1Y9      0.160100
      3 C3          1.7230    0.0880    1.4220 c3        1 1Y9     -0.177800
      4 C4          0.5230   -0.2250    2.2860 c         1 1Y9      0.600900
      5 O5         -0.2420   -1.1620    2.0590 o         1 1Y9     -0.539100
      6 C6          2.7980   -0.9700    1.6710 c3        1 1Y9     -0.027200
      7 C7          3.2130   -1.0680    3.0890 c2        1 1Y9     -0.190200
      8 C8          3.9700   -2.0690    3.5660 c2        1 1Y9     -0.107400
      9 C9          4.3760   -2.1290    4.9910 c3        1 1Y9     -0.061400
     10 C10         4.4440   -3.1820    2.7090 c3        1 1Y9     -0.061400
     11 C11         2.2400    1.4740    1.7170 c2        1 1Y9     -0.143200
     12 C12         2.2230    2.2700    0.6330 c2        1 1Y9     -0.126400
     13 C13         2.6490    3.6830    0.5290 c3        1 1Y9      0.181600
     14 O14         3.1170    4.1250    1.7960 oh        1 1Y9     -0.598800
     15 C15         1.6870    1.5740   -0.5790 c3        1 1Y9     -0.050200
     16 H1         -0.2050   -0.9910   -0.0920 ho        1 1Y9      0.425000
     17 H2          1.9980   -0.6130   -0.6590 h1        1 1Y9      0.041700
     18 H3          0.3830    0.4460    3.1630 h4        1 1Y9      0.009200
     19 H6          2.4020   -1.9640    1.3220 hc        1 1Y9      0.059200
     20 H7          3.6970   -0.7260    1.0400 hc        1 1Y9      0.059200
     21 H8          2.8760   -0.2550    3.7530 ha        1 1Y9      0.124000
     22 H9          5.4910   -2.0860    5.0730 hc        1 1Y9      0.042867
     23 H10         4.0300   -3.0900    5.4470 hc        1 1Y9      0.042867
     24 H11         3.9460   -1.2830    5.5800 hc        1 1Y9      0.042867
     25 H12         4.9100   -2.7860    1.7720 hc        1 1Y9      0.042867
     26 H13         3.5830   -3.8350    2.4160 hc        1 1Y9      0.042867
     27 H14         5.1980   -3.8110    3.2410 hc        1 1Y9      0.042867
     28 H15         2.5860    1.7470    2.7170 ha        1 1Y9      0.157000
     29 H18         3.4720    3.7780   -0.2340 h1        1 1Y9      0.034200
     30 H19         1.7780    4.3190    0.2010 h1        1 1Y9      0.034200
     31 H20         3.3650    5.0510    1.6830 ho        1 1Y9      0.403000
     32 H21         2.4400    1.5560   -1.4050 hc        1 1Y9      0.068700
     33 H22         0.7570    2.0720   -0.9570 hc        1 1Y9      0.068700
@<TRIPOS>BOND
     1    1    2 1   
     2    1   16 1   
     3    2    3 1   
     4    2   15 1   
     5    2   17 1   
     6    3    4 1   
     7    3    6 1   
     8    3   11 1   
     9    4    5 2   
    10    4   18 1   
    11    6    7 1   
    12    6   19 1   
    13    6   20 1   
    14    7    8 2   
    15    7   21 1   
    16    8    9 1   
    17    8   10 1   
    18    9   22 1   
    19    9   23 1   
    20    9   24 1   
    21   10   25 1   
    22   10   26 1   
    23   10   27 1   
    24   11   12 2   
    25   11   28 1   
    26   12   13 1   
    27   12   15 1   
    28   13   14 1   
    29   13   29 1   
    30   13   30 1   
    31   14   31 1   
    32   15   32 1   
    33   15   33 1   
@<TRIPOS>SUBSTRUCTURE
     1 1Y9         1 TEMP              0 ****  ****    0 ROOT
