@<TRIPOS>MOLECULE
1Y9
   33    33     1     0     0
SMALL
bcc


@<TRIPOS>ATOM
      1 O1          1.3930    2.6190   -0.2970 oh        1 1Y9     -0.598800
      2 C2          1.1650    1.3880   -0.9620 c3        1 1Y9      0.150100
      3 C3          0.1110    0.5680   -0.1410 c3        1 1Y9     -0.133800
      4 C4         -0.3220    1.3620    1.0760 c         1 1Y9      0.610900
      5 O5         -1.3600    2.0180    1.1300 o         1 1Y9     -0.528100
      6 C6         -1.0750    0.2150   -1.0390 c3        1 1Y9     -0.027200
      7 C7         -1.9030   -0.8940   -0.5090 c2        1 1Y9     -0.196200
      8 C8         -3.2010   -0.8020   -0.1790 c2        1 1Y9     -0.095400
      9 C9         -3.9560   -1.9860    0.3040 c3        1 1Y9     -0.067900
     10 C10        -3.9760    0.4600   -0.2600 c3        1 1Y9     -0.067900
     11 C11         0.8720   -0.6620    0.2870 c2        1 1Y9     -0.130200
     12 C12         2.1300   -0.6830   -0.1880 c2        1 1Y9     -0.137400
     13 C13         3.1680   -1.7190    0.0090 c3        1 1Y9      0.183600
     14 O14         2.6290   -2.7760    0.7910 oh        1 1Y9     -0.596800
     15 C15         2.4520    0.5320   -1.0030 c3        1 1Y9     -0.084200
     16 H1          1.9850    3.1340   -0.8580 ho        1 1Y9      0.407000
     17 H2          0.7850    1.5860   -2.0000 h1        1 1Y9      0.047700
     18 H3          0.3960    1.3230    1.9240 h4        1 1Y9      0.008200
     19 H6         -1.6890    1.1450   -1.1820 hc        1 1Y9      0.057200
     20 H7         -0.6860   -0.0970   -2.0480 hc        1 1Y9      0.057200
     21 H8         -1.3780   -1.8610   -0.4230 ha        1 1Y9      0.122000
     22 H9         -3.3240   -2.9070    0.3110 hc        1 1Y9      0.045367
     23 H10        -4.3270   -1.8030    1.3430 hc        1 1Y9      0.045367
     24 H11        -4.8410   -2.1690   -0.3550 hc        1 1Y9      0.045367
     25 H12        -4.0950    0.7760   -1.3260 hc        1 1Y9      0.045367
     26 H13        -4.9950    0.3360    0.1830 hc        1 1Y9      0.045367
     27 H14        -3.4480    1.2800    0.2920 hc        1 1Y9      0.045367
     28 H15         0.4020   -1.4250    0.9130 ha        1 1Y9      0.163000
     29 H18         3.5040   -2.1180   -0.9890 h1        1 1Y9      0.031200
     30 H19         4.0570   -1.2710    0.5360 h1        1 1Y9      0.031200
     31 H20         3.3410   -3.4160    0.9060 ho        1 1Y9      0.403000
     32 H21         2.7100    0.2520   -2.0540 hc        1 1Y9      0.059200
     33 H22         3.3140    1.0930   -0.5640 hc        1 1Y9      0.059200
@<TRIPOS>BOND
     1    1    2 1   
     2    1   16 1   
     3    2    3 1   
     4    2   15 1   
     5    2   17 1   
     6    3    4 1   
     7    3    6 1   
     8    3   11 1   
     9    4    5 2   
    10    4   18 1   
    11    6    7 1   
    12    6   19 1   
    13    6   20 1   
    14    7    8 2   
    15    7   21 1   
    16    8    9 1   
    17    8   10 1   
    18    9   22 1   
    19    9   23 1   
    20    9   24 1   
    21   10   25 1   
    22   10   26 1   
    23   10   27 1   
    24   11   12 2   
    25   11   28 1   
    26   12   13 1   
    27   12   15 1   
    28   13   14 1   
    29   13   29 1   
    30   13   30 1   
    31   14   31 1   
    32   15   32 1   
    33   15   33 1   
@<TRIPOS>SUBSTRUCTURE
     1 1Y9         1 TEMP              0 ****  ****    0 ROOT
