@<TRIPOS>MOLECULE
1Y9
   33    33     1     0     0
SMALL
bcc


@<TRIPOS>ATOM
      1 O1         -0.0050   -0.0880   -0.3630 oh        1 1Y9     -0.599800
      2 C2          1.3610    0.1410   -0.0930 c3        1 1Y9      0.160100
      3 C3          1.7220    0.0860    1.4320 c3        1 1Y9     -0.177800
      4 C4          0.5270   -0.2320    2.3020 c         1 1Y9      0.600900
      5 O5         -0.2380   -1.1700    2.0750 o         1 1Y9     -0.539100
      6 C6          2.8000   -0.9720    1.6700 c3        1 1Y9     -0.027200
      7 C7          3.2220   -1.0750    3.0860 c2        1 1Y9     -0.190200
      8 C8          3.9810   -2.0790    3.5550 c2        1 1Y9     -0.107400
      9 C9          4.3950   -2.1450    4.9780 c3        1 1Y9     -0.061400
     10 C10         4.4500   -3.1890    2.6910 c3        1 1Y9     -0.061400
     11 C11         2.2390    1.4710    1.7300 c2        1 1Y9     -0.143200
     12 C12         2.2150    2.2720    0.6500 c2        1 1Y9     -0.126400
     13 C13         2.6390    3.6860    0.5490 c3        1 1Y9      0.181600
     14 O14         3.1140    4.1230    1.8150 oh        1 1Y9     -0.598800
     15 C15         1.6730    1.5800   -0.5630 c3        1 1Y9     -0.050200
     16 H1         -0.2130   -0.9890   -0.0760 ho        1 1Y9      0.425000
     17 H2          1.9860   -0.6060   -0.6540 h1        1 1Y9      0.041700
     18 H3          0.3920    0.4350    3.1820 h4        1 1Y9      0.009200
     19 H6          3.6950   -0.7240    1.0350 hc        1 1Y9      0.059200
     20 H7          2.4030   -1.9650    1.3190 hc        1 1Y9      0.059200
     21 H8          2.8900   -0.2650    3.7550 ha        1 1Y9      0.124000
     22 H9          5.5110   -2.1030    5.0530 hc        1 1Y9      0.042867
     23 H10         4.0510   -3.1080    5.4320 hc        1 1Y9      0.042867
     24 H11         3.9690   -1.3010    5.5730 hc        1 1Y9      0.042867
     25 H12         5.2080   -3.8200    3.2170 hc        1 1Y9      0.042867
     26 H13         4.9100   -2.7900    1.7530 hc        1 1Y9      0.042867
     27 H14         3.5870   -3.8420    2.4020 hc        1 1Y9      0.042867
     28 H15         2.5900    1.7400    2.7290 ha        1 1Y9      0.157000
     29 H18         1.7660    4.3210    0.2290 h1        1 1Y9      0.034200
     30 H19         3.4570    3.7850   -0.2180 h1        1 1Y9      0.034200
     31 H20         3.3590    5.0490    1.7050 ho        1 1Y9      0.403000
     32 H21         0.7410    2.0780   -0.9330 hc        1 1Y9      0.068700
     33 H22         2.4210    1.5670   -1.3930 hc        1 1Y9      0.068700
@<TRIPOS>BOND
     1    1    2 1   
     2    1   16 1   
     3    2    3 1   
     4    2   15 1   
     5    2   17 1   
     6    3    4 1   
     7    3    6 1   
     8    3   11 1   
     9    4    5 2   
    10    4   18 1   
    11    6    7 1   
    12    6   19 1   
    13    6   20 1   
    14    7    8 2   
    15    7   21 1   
    16    8    9 1   
    17    8   10 1   
    18    9   22 1   
    19    9   23 1   
    20    9   24 1   
    21   10   25 1   
    22   10   26 1   
    23   10   27 1   
    24   11   12 2   
    25   11   28 1   
    26   12   13 1   
    27   12   15 1   
    28   13   14 1   
    29   13   29 1   
    30   13   30 1   
    31   14   31 1   
    32   15   32 1   
    33   15   33 1   
@<TRIPOS>SUBSTRUCTURE
     1 1Y9         1 TEMP              0 ****  ****    0 ROOT
