@<TRIPOS>MOLECULE
1Y9
   33    31     1     0     0
SMALL
bcc


@<TRIPOS>ATOM
      1 O1         -2.5690   -0.5690   -1.9480 oh        1 1Y9     -0.333000
      2 C2         -1.4180   -0.1410   -1.9360 c3        1 1Y9      0.033000
      3 C3         -0.8010   -0.1100   -0.3190 c3        1 1Y9     -0.089000
      4 C4         -1.8010   -0.5130    0.8260 c2        1 1Y9      0.218000
      5 O5         -2.2920    0.3460    1.5340 o         1 1Y9     -0.295000
      6 C6          0.3480   -1.0440   -0.0050 c3        1 1Y9     -0.111000
      7 C7          0.7380   -0.8910    1.4470 c2        1 1Y9     -0.187000
      8 C8          1.6570   -1.7140    1.9870 c1        1 1Y9     -0.106000
      9 C9          2.2970   -2.7920    1.1410 c2        1 1Y9     -0.185000
     10 C10         2.0470   -1.5610    3.4420 c3        1 1Y9     -0.180000
     11 C11        -0.4340    1.1070   -0.2510 c2        1 1Y9     -0.146000
     12 C12        -1.0290    1.9890   -1.2850 c1        1 1Y9     -0.113000
     13 C13        -0.6830    3.4610   -1.3120 c3        1 1Y9      0.026000
     14 O14         0.3820    3.6770   -2.2100 oh        1 1Y9     -0.329000
     15 C15        -1.3830    1.3600   -2.4210 c2        1 1Y9     -0.156000
     16 H1         -2.8250   -0.7090   -2.7900 ho        1 1Y9      0.209000
     17 H2         -0.8450   -0.6930   -2.5060 h1        1 1Y9      0.083000
     18 H3         -2.0180   -1.4540    0.9770 h4        1 1Y9      0.116000
     19 H6          1.1130   -0.8220   -0.5740 hc        1 1Y9      0.096000
     20 H7          0.0730   -1.9670   -0.1740 hc        1 1Y9      0.096000
     21 H8          0.3250   -0.1960    1.9920 ha        1 1Y9      0.140000
     22 H9          2.7370   -2.3820    0.3660 ha        1 1Y9      0.080333
     23 H10         2.9620   -3.2750    1.6750 ha        1 1Y9      0.080333
     24 H11         1.6090   -3.4180    0.8330 ha        1 1Y9      0.080333
     25 H12         3.0160   -1.6820    3.5340 hc        1 1Y9      0.081667
     26 H13         1.7990   -0.6660    3.7540 hc        1 1Y9      0.081667
     27 H14         1.5810   -2.2360    3.9780 hc        1 1Y9      0.081667
     28 H15        -0.1420    1.4830    0.6040 ha        1 1Y9      0.156000
     29 H18        -1.4640    3.9750   -1.6040 h1        1 1Y9      0.075000
     30 H19        -0.4170    3.7510   -0.4150 h1        1 1Y9      0.075000
     31 H20         0.4570    4.5450   -2.3780 ho        1 1Y9      0.202000
     32 H21        -0.7970    1.4140   -3.2020 ha        1 1Y9      0.109000
     33 H22        -2.2240    1.7280   -2.7630 ha        1 1Y9      0.109000
@<TRIPOS>BOND
     1    1    2 1   
     2    1   16 1   
     3    2    3 1   
     4    2   15 1   
     5    2   17 1   
     6    3    4 1   
     7    3    6 1   
     8    3   11 1   
     9    4    5 1   
    10    4   18 1   
    11    6    7 1   
    12    6   19 1   
    13    6   20 1   
    14    7    8 1   
    15    7   21 1   
    16    8   10 1   
    17    9   22 1   
    18    9   23 1   
    19    9   24 1   
    20   10   25 1   
    21   10   26 1   
    22   10   27 1   
    23   11   12 1   
    24   11   28 1   
    25   12   13 1   
    26   13   14 1   
    27   13   29 1   
    28   13   30 1   
    29   14   31 1   
    30   15   32 1   
    31   15   33 1   
@<TRIPOS>SUBSTRUCTURE
     1 1Y9         1 TEMP              0 ****  ****    0 ROOT
