@<TRIPOS>MOLECULE
1YA
   55    57     1     0     0
SMALL
bcc


@<TRIPOS>ATOM
      1 N1         -6.2680   -2.3840   -0.6760 nc        1 1YA     -0.688300
      2 C2         -7.3750   -1.6570   -0.8750 cd        1 1YA      0.637800
      3 NA2        -8.4980   -2.2510   -1.5320 nh        1 1YA     -0.873800
      4 N3         -7.5240   -0.3340   -0.4320 n         1 1YA     -0.487400
      5 C4         -6.4890    0.3060    0.2810 c         1 1YA      0.707700
      6 O4         -6.6690    1.4980    0.6060 o         1 1YA     -0.654500
      7 C4A        -5.2920   -0.4860    0.5440 cd        1 1YA     -0.165200
      8 N5         -4.2580    0.0670    1.3390 nh        1 1YA     -0.653000
      9 C6         -2.9480   -0.4900    1.0190 c3        1 1YA      0.122500
     10 C7         -3.0000   -2.0380    1.0490 c3        1 1YA      0.199800
     11 N8         -4.1400   -2.6290    0.3890 nh        1 1YA     -0.727000
     12 C8A        -5.2320   -1.8190    0.0810 cc        1 1YA      0.370600
     13 C9         -2.3500   -0.0280   -0.3430 c3        1 1YA      0.061000
     14 N10        -1.7170    1.2680   -0.3070 n         1 1YA     -0.389000
     15 C11         2.3930    1.2100    0.6950 ca        1 1YA     -0.137600
     16 C12         1.5370    2.1110    1.3270 ca        1 1YA     -0.087000
     17 C13         0.1860    2.1610    0.9880 ca        1 1YA     -0.158000
     18 C14        -0.3230    1.2980   -0.0020 ca        1 1YA      0.012600
     19 C15         0.5630    0.4290   -0.6740 ca        1 1YA     -0.158000
     20 C16         1.9060    0.3730   -0.3150 ca        1 1YA     -0.087000
     21 N           4.7780    1.1640    0.1510 n         1 1YA     -0.485900
     22 CA          6.0250    0.4200    0.1800 c3        1 1YA     -0.039300
     23 CB          5.9010   -0.9530   -0.5100 c3        1 1YA     -0.078400
     24 CG          5.0230   -1.9380    0.2310 c3        1 1YA     -0.190400
     25 CD          4.1540   -2.7870   -0.7000 c         1 1YA      0.907600
     26 OE1         4.3550   -4.0370   -0.7590 o         1 1YA     -0.875300
     27 OE2         3.2200   -2.2280   -1.3600 o         1 1YA     -0.875300
     28 CT          7.1660    1.2160   -0.5420 c         1 1YA      0.919600
     29 O2          6.9080    1.8220   -1.6200 o         1 1YA     -0.849800
     30 O1          8.3060    1.1910    0.0030 o         1 1YA     -0.849800
     31 C18        -2.4910    2.4050   -0.4400 c         1 1YA      0.655900
     32 O5         -2.0750    3.5690   -0.3320 o         1 1YA     -0.595100
     33 O           4.0790    0.8820    2.3460 o         1 1YA     -0.649100
     34 H1         -8.3240   -3.1980   -1.8040 hn        1 1YA      0.397300
     35 H2         -8.8240   -1.7000   -2.3000 hn        1 1YA      0.397300
     36 H3         -8.3780    0.1590   -0.5690 hn        1 1YA      0.332500
     37 H5         -4.2610    1.0710    1.2890 hn        1 1YA      0.396800
     38 H7         -2.2540   -0.1670    1.8520 h1        1 1YA      0.102700
     39 H8         -2.0490   -2.4470    0.6030 h1        1 1YA      0.070700
     40 H9         -3.0430   -2.3620    2.1300 h1        1 1YA      0.070700
     41 H10        -1.5850   -0.7930   -0.6600 h1        1 1YA      0.064200
     42 H11        -3.1670   -0.0210   -1.1200 h1        1 1YA      0.064200
     43 H12         1.9310    2.7720    2.1140 ha        1 1YA      0.190000
     44 H13        -0.4750    2.8870    1.4840 ha        1 1YA      0.133000
     45 H14         0.2150   -0.2270   -1.4860 ha        1 1YA      0.133000
     46 H15         2.5760   -0.3780   -0.8070 ha        1 1YA      0.190000
     47 H16         4.4600    1.3490   -0.7770 hn        1 1YA      0.307500
     48 H17         6.3220    0.2730    1.2560 h1        1 1YA      0.066700
     49 H18         5.5080   -0.8050   -1.5510 hc        1 1YA      0.048200
     50 H19         6.9400   -1.3640   -0.6020 hc        1 1YA      0.048200
     51 H20         5.6610   -2.6190    0.8500 hc        1 1YA      0.023700
     52 H21         4.3330   -1.4010    0.9340 hc        1 1YA      0.023700
     53 H24        -3.5620    2.1850   -0.6780 h5        1 1YA      0.010200
     54 H4         -3.9510   -3.3900   -0.2250 hn        1 1YA      0.431800
     55 C17         3.8240    1.0520    1.1300 c         1 1YA      0.658700
@<TRIPOS>BOND
     1    1    2 2   
     2    1   12 1   
     3    2    3 1   
     4    2    4 1   
     5    3   34 1   
     6    3   35 1   
     7    4    5 1   
     8    4   36 1   
     9    5    6 2   
    10    5    7 1   
    11    7    8 1   
    12    7   12 2   
    13    8    9 1   
    14    8   37 1   
    15    9   10 1   
    16    9   13 1   
    17    9   38 1   
    18   10   11 1   
    19   10   39 1   
    20   10   40 1   
    21   11   12 1   
    22   11   54 1   
    23   13   14 1   
    24   13   41 1   
    25   13   42 1   
    26   14   18 1   
    27   14   31 1   
    28   15   16 ar  
    29   15   20 ar  
    30   15   55 1   
    31   16   17 ar  
    32   16   43 1   
    33   17   18 ar  
    34   17   44 1   
    35   18   19 ar  
    36   19   20 ar  
    37   19   45 1   
    38   20   46 1   
    39   21   22 1   
    40   21   47 1   
    41   21   55 1   
    42   22   23 1   
    43   22   28 1   
    44   22   48 1   
    45   23   24 1   
    46   23   49 1   
    47   23   50 1   
    48   24   25 1   
    49   24   51 1   
    50   24   52 1   
    51   25   26 1   
    52   25   27 1   
    53   28   29 1   
    54   28   30 1   
    55   31   32 2   
    56   31   53 1   
    57   33   55 2   
@<TRIPOS>SUBSTRUCTURE
     1 1YA         1 TEMP              0 ****  ****    0 ROOT
