@<TRIPOS>MOLECULE
1YA
   55    50     1     0     0
SMALL
bcc


@<TRIPOS>ATOM
      1 N1          4.5530    5.1880    0.2580 n1        1 1YA     -0.254000
      2 C2          5.7050    4.2520    0.2710 c1        1 1YA      0.187000
      3 NA2         6.9860    4.6740   -0.2830 n3        1 1YA     -0.311000
      4 N3          5.5290    2.8150    0.8100 n2        1 1YA     -0.325000
      5 C4          4.1980    2.2960    1.0790 c1        1 1YA      0.346000
      6 O4          4.0510    1.1150    1.4260 o         1 1YA     -0.382000
      7 C4A         3.0390    3.1530    0.9070 c1        1 1YA     -0.206000
      8 N5          1.7800    2.8670    1.3910 n2        1 1YA     -0.211000
      9 C6          0.6130    3.7190    0.8280 c3        1 1YA     -0.047000
     10 C7          0.8000    4.9170    0.8650 c3        1 1YA     -0.056000
     11 N8          2.0430    5.3790    0.1580 n3        1 1YA     -0.266000
     12 C8A         3.2480    4.7010    0.4840 c1        1 1YA      0.124000
     13 C9          0.3630    3.2790   -0.7670 c3        1 1YA     -0.041000
     14 N10        -0.9710    2.8030   -0.9310 n         1 1YA     -0.296000
     15 C11        -1.7570   -1.3890   -1.2060 c1        1 1YA     -0.113000
     16 C12        -1.9140   -0.7190    0.0200 c2        1 1YA     -0.086000
     17 C13        -1.6480    0.6520    0.1070 c1        1 1YA     -0.149000
     18 C14        -1.2300    1.3520   -1.0180 c1        1 1YA      0.024000
     19 C15        -1.0740    0.6870   -2.2380 c1        1 1YA     -0.180000
     20 C16        -1.3390   -0.6860   -2.3280 c1        1 1YA     -0.086000
     21 C17        -1.8560   -2.9330   -1.2610 c1        1 1YA      0.326000
     22 N          -2.0260   -3.6860   -0.0510 n3        1 1YA     -0.272000
     23 CA         -2.8380   -4.8560   -0.0500 c3        1 1YA     -0.082000
     24 CB         -2.0330   -6.0400    0.5070 c3        1 1YA     -0.129000
     25 CG         -2.9360   -7.2500    0.6350 c3        1 1YA     -0.211000
     26 CD         -2.0810   -8.5180    0.7070 c2        1 1YA      0.324000
     27 OE1        -1.7860   -9.1310   -0.3390 o         1 1YA     -0.609000
     28 OE2        -1.7260   -8.9840    1.8430 o         1 1YA     -0.609000
     29 CT         -4.0390   -4.6250    0.8090 c2        1 1YA      0.318000
     30 O2         -3.8960   -4.3860    2.0370 o         1 1YA     -0.590500
     31 O1         -5.1910   -4.6890    0.3120 o         1 1YA     -0.590500
     32 C18        -2.0520    3.7310   -1.0740 c2        1 1YA      0.264000
     33 O5         -3.1760    3.3250   -1.2650 o         1 1YA     -0.348000
     34 O          -1.7190   -3.5180   -2.3310 o         1 1YA     -0.390000
     35 H1          7.0360    5.4560   -0.8050 hn        1 1YA      0.192500
     36 H2          7.7630    4.2080   -0.0680 hn        1 1YA      0.192500
     37 H3          6.2600    2.2850    0.9410 hn        1 1YA      0.246000
     38 H5          1.6140    2.0720    1.7540 hn        1 1YA      0.192000
     39 H7         -0.1780    3.5190    1.3290 h1        1 1YA      0.146000
     40 H8          0.0210    5.3630    0.4500 h1        1 1YA      0.114000
     41 H9          0.8570    5.2030    1.8260 h1        1 1YA      0.114000
     42 H10         0.5040    4.0600   -1.3490 h1        1 1YA      0.083500
     43 H11         0.9970    2.5670   -1.0140 h1        1 1YA      0.083500
     44 H12        -2.2650   -1.1970    0.7960 ha        1 1YA      0.225000
     45 H13        -1.7560    1.1130    0.9520 ha        1 1YA      0.143000
     46 H14        -0.7870    1.1670   -3.0080 ha        1 1YA      0.116000
     47 H15        -1.2280   -1.1550   -3.1920 ha        1 1YA      0.143000
     48 H16        -1.5500   -3.4470    0.7180 hn        1 1YA      0.200000
     49 H17        -3.1330   -5.0620   -0.9890 h1        1 1YA      0.108000
     50 H18        -1.2770   -6.2510   -0.1120 hc        1 1YA      0.091500
     51 H19        -1.6770   -5.8070    1.3880 hc        1 1YA      0.091500
     52 H20        -3.4760   -7.1700    1.4580 hc        1 1YA      0.060000
     53 H21        -3.5390   -7.3000   -0.1530 hc        1 1YA      0.060000
     54 H24        -1.8780    4.7020   -1.0260 h5        1 1YA      0.104000
     55 H4          2.0710    6.1810   -0.2110 hn        1 1YA      0.219000
@<TRIPOS>BOND
     1    1    2 1   
     2    2    3 1   
     3    3   35 1   
     4    3   36 1   
     5    4    5 1   
     6    4   37 1   
     7    5    6 1   
     8    7   12 1   
     9    8    9 1   
    10    8   38 1   
    11    9   10 1   
    12    9   13 1   
    13    9   39 1   
    14   10   11 1   
    15   10   40 1   
    16   10   41 1   
    17   11   12 1   
    18   11   55 1   
    19   13   14 1   
    20   13   42 1   
    21   13   43 1   
    22   14   18 1   
    23   14   32 1   
    24   15   16 1   
    25   15   20 1   
    26   16   17 1   
    27   16   44 1   
    28   17   45 1   
    29   18   19 1   
    30   19   46 1   
    31   20   47 1   
    32   21   22 1   
    33   21   34 1   
    34   22   23 1   
    35   22   48 1   
    36   23   24 1   
    37   23   29 1   
    38   23   49 1   
    39   24   25 1   
    40   24   50 1   
    41   24   51 1   
    42   25   26 1   
    43   25   52 1   
    44   25   53 1   
    45   26   27 1   
    46   26   28 1   
    47   29   30 1   
    48   29   31 1   
    49   32   33 1   
    50   32   54 1   
@<TRIPOS>SUBSTRUCTURE
     1 1YA         1 TEMP              0 ****  ****    0 ROOT
