@<TRIPOS>MOLECULE
1YE
   34    36     1     0     0
SMALL
bcc


@<TRIPOS>ATOM
      1 OAD         1.1820   -3.4220   -0.3800 o         1 1YE     -0.581100
      2 CAQ         0.8250   -2.2440   -0.2020 c         1 1YE      0.608300
      3 CAS         1.7960   -1.1460   -0.0770 ca        1 1YE     -0.228600
      4 CAJ         3.1720   -1.3860   -0.2060 ca        1 1YE     -0.053000
      5 CAH         4.0800   -0.3450   -0.0970 ca        1 1YE     -0.183000
      6 CAN         3.6390    0.9680    0.1390 ca        1 1YE     -0.038300
      7 CAA         4.6280    2.0670    0.2410 c3        1 1YE     -0.053800
      8 CAO         2.2740    1.2420    0.2710 ca        1 1YE     -0.108300
      9 CAB         1.7890    2.6190    0.5140 c3        1 1YE     -0.050800
     10 CAT         1.3590    0.1650    0.1670 ca        1 1YE      0.174100
     11 OAL         0.0340    0.5040    0.3350 os        1 1YE     -0.207200
     12 CAU        -0.9170   -0.4940    0.1500 ca        1 1YE      0.122100
     13 CAR        -0.5760   -1.8330   -0.1020 ca        1 1YE     -0.230600
     14 CAI        -1.6090   -2.7710   -0.2620 ca        1 1YE     -0.080000
     15 CAF        -2.9340   -2.3690   -0.1740 ca        1 1YE     -0.172000
     16 CAG        -3.2570   -1.0330    0.0770 ca        1 1YE     -0.076000
     17 CAP        -2.2620   -0.0660    0.2490 ca        1 1YE     -0.034300
     18 CAK        -2.6040    1.3440    0.5450 c3        1 1YE     -0.174100
     19 CAM        -3.8270    1.8790   -0.2410 c         1 1YE      0.917600
     20 OAE        -3.6380    2.8700   -0.9950 o         1 1YE     -0.836800
     21 OAC        -4.9500    1.3260   -0.0550 o         1 1YE     -0.836800
     22 H1          3.5090   -2.4180   -0.3960 ha        1 1YE      0.149000
     23 H2          5.1570   -0.5430   -0.1980 ha        1 1YE      0.126000
     24 H3          4.5290    2.7530   -0.6390 hc        1 1YE      0.042700
     25 H4          4.4490    2.6670    1.1680 hc        1 1YE      0.042700
     26 H5          5.6730    1.6740    0.2670 hc        1 1YE      0.042700
     27 H6          2.2890    3.3370   -0.1840 hc        1 1YE      0.052367
     28 H7          0.6820    2.6950    0.3660 hc        1 1YE      0.052367
     29 H8          2.0270    2.9290    1.5630 hc        1 1YE      0.052367
     30 H9         -1.3400   -3.8200   -0.4590 ha        1 1YE      0.138000
     31 H10        -3.7400   -3.1040   -0.3080 ha        1 1YE      0.125000
     32 H11        -4.3140   -0.6950    0.1240 ha        1 1YE      0.206000
     33 H12        -2.8500    1.4300    1.6360 hc        1 1YE      0.048200
     34 H13        -1.7290    2.0110    0.3310 hc        1 1YE      0.048200
@<TRIPOS>BOND
     1    1    2 2   
     2    2    3 1   
     3    2   13 1   
     4    3    4 ar  
     5    3   10 ar  
     6    4    5 ar  
     7    4   22 1   
     8    5    6 ar  
     9    5   23 1   
    10    6    7 1   
    11    6    8 ar  
    12    7   24 1   
    13    7   25 1   
    14    7   26 1   
    15    8    9 1   
    16    8   10 ar  
    17    9   27 1   
    18    9   28 1   
    19    9   29 1   
    20   10   11 1   
    21   11   12 1   
    22   12   13 ar  
    23   12   17 ar  
    24   13   14 ar  
    25   14   15 ar  
    26   14   30 1   
    27   15   16 ar  
    28   15   31 1   
    29   16   17 ar  
    30   16   32 1   
    31   17   18 1   
    32   18   19 1   
    33   18   33 1   
    34   18   34 1   
    35   19   20 1   
    36   19   21 1   
@<TRIPOS>SUBSTRUCTURE
     1 1YE         1 TEMP              0 ****  ****    0 ROOT
