@<TRIPOS>MOLECULE
1YE
   34    36     1     0     0
SMALL
bcc


@<TRIPOS>ATOM
      1 OAD        -0.0270   -0.3730    0.0630 o         1 1YE     -0.581100
      2 CAQ         1.2070   -0.2240    0.0700 c         1 1YE      0.608300
      3 CAS         1.9700   -0.0870    1.3200 ca        1 1YE     -0.228600
      4 CAJ         1.3290   -0.1730    2.5650 ca        1 1YE     -0.053000
      5 CAH         2.0550   -0.0540    3.7390 ca        1 1YE     -0.183000
      6 CAN         3.4450    0.1500    3.7030 ca        1 1YE     -0.038300
      7 CAA         4.2030    0.2640    4.9720 c3        1 1YE     -0.053800
      8 CAO         4.1150    0.2380    2.4790 ca        1 1YE     -0.108300
      9 CAB         5.5800    0.4470    2.4210 c3        1 1YE     -0.050800
     10 CAT         3.3570    0.1240    1.2870 ca        1 1YE      0.174100
     11 OAL         4.0780    0.2490    0.1200 os        1 1YE     -0.207200
     12 CAU         3.4030    0.0520   -1.0810 ca        1 1YE      0.122100
     13 CAR         2.0180   -0.1700   -1.1480 ca        1 1YE     -0.230600
     14 CAI         1.4260   -0.3460   -2.4090 ca        1 1YE     -0.080000
     15 CAF         2.2050   -0.3020   -3.5560 ca        1 1YE     -0.172000
     16 CAG         3.5830   -0.0800   -3.4730 ca        1 1YE     -0.076000
     17 CAP         4.2140    0.1050   -2.2390 ca        1 1YE     -0.034300
     18 CAK         5.6680    0.3700   -2.1530 c3        1 1YE     -0.174100
     19 CAM         6.5240   -0.4580   -3.1430 c         1 1YE      0.917600
     20 OAE         7.3970   -1.2220   -2.6500 o         1 1YE     -0.836800
     21 OAC         6.3340   -0.2950   -4.3830 o         1 1YE     -0.836800
     22 H1          0.2400   -0.3380    2.5830 ha        1 1YE      0.149000
     23 H2          1.5440   -0.1200    4.7100 ha        1 1YE      0.126000
     24 H3          4.8670   -0.6290    5.1030 hc        1 1YE      0.042700
     25 H4          3.5170    0.3270    5.8510 hc        1 1YE      0.042700
     26 H5          4.8500    1.1770    4.9570 hc        1 1YE      0.042700
     27 H6          5.8290    1.4980    2.7150 hc        1 1YE      0.052367
     28 H7          6.1000   -0.2470    3.1270 hc        1 1YE      0.052367
     29 H8          5.9770    0.2650    1.3890 hc        1 1YE      0.052367
     30 H9          0.3400   -0.5190   -2.4600 ha        1 1YE      0.138000
     31 H10         1.7400   -0.4480   -4.5420 ha        1 1YE      0.125000
     32 H11         4.2200   -0.0680   -4.3820 ha        1 1YE      0.206000
     33 H12         5.8480    1.4530   -2.3870 hc        1 1YE      0.048200
     34 H13         6.0400    0.1710   -1.1140 hc        1 1YE      0.048200
@<TRIPOS>BOND
     1    1    2 2   
     2    2    3 1   
     3    2   13 1   
     4    3    4 ar  
     5    3   10 ar  
     6    4    5 ar  
     7    4   22 1   
     8    5    6 ar  
     9    5   23 1   
    10    6    7 1   
    11    6    8 ar  
    12    7   24 1   
    13    7   25 1   
    14    7   26 1   
    15    8    9 1   
    16    8   10 ar  
    17    9   27 1   
    18    9   28 1   
    19    9   29 1   
    20   10   11 1   
    21   11   12 1   
    22   12   13 ar  
    23   12   17 ar  
    24   13   14 ar  
    25   14   15 ar  
    26   14   30 1   
    27   15   16 ar  
    28   15   31 1   
    29   16   17 ar  
    30   16   32 1   
    31   17   18 1   
    32   18   19 1   
    33   18   33 1   
    34   18   34 1   
    35   19   20 1   
    36   19   21 1   
@<TRIPOS>SUBSTRUCTURE
     1 1YE         1 TEMP              0 ****  ****    0 ROOT
