@<TRIPOS>MOLECULE
1YE
   34    28     1     0     0
SMALL
bcc


@<TRIPOS>ATOM
      1 OAD        -3.4970   -0.0120   -0.2820 o         1 1YE     -0.342000
      2 CAQ        -2.2840    0.0600   -0.2900 c1        1 1YE      0.328000
      3 CAS        -1.5330    0.0560    0.9920 c2        1 1YE     -0.208000
      4 CAJ        -2.2220    0.0650    2.2140 c1        1 1YE     -0.053000
      5 CAH        -1.5160    0.0390    3.4100 c1        1 1YE     -0.183000
      6 CAN        -0.1240    0.0040    3.3970 c1        1 1YE     -0.031000
      7 CAA         0.4680    0.5960    4.6550 c3        1 1YE     -0.179000
      8 CAO         0.5590   -0.0040    2.1880 c1        1 1YE     -0.101000
      9 CAB         1.7300   -0.9500    2.3380 c2        1 1YE     -0.176000
     10 CAT        -0.1530    0.0220    0.9780 c1        1 1YE      0.129000
     11 OAL         0.5740    0.0830   -0.3050 o         1 1YE     -0.117000
     12 CAU        -0.1670    0.0010   -1.5790 c1        1 1YE      0.077000
     13 CAR        -1.5460    0.0310   -1.5780 c1        1 1YE     -0.210000
     14 CAI        -2.2480    0.0370   -2.7940 c1        1 1YE     -0.080000
     15 CAF        -1.5540    0.0120   -3.9970 c1        1 1YE     -0.124000
     16 CAG        -0.1620   -0.0180   -3.9980 c1        1 1YE     -0.124000
     17 CAP         0.5340   -0.0240   -2.7960 c1        1 1YE     -0.027000
     18 CAK         1.8680    0.6660   -2.9800 c3        1 1YE     -0.210000
     19 CAM         2.9580   -0.3740   -3.1200 c2        1 1YE      0.337000
     20 OAE         2.6580   -1.5750   -3.3500 o         1 1YE     -0.571500
     21 OAC         4.1670   -0.0370   -3.0130 o         1 1YE     -0.571500
     22 H1         -3.1980    0.0890    2.2240 ha        1 1YE      0.149000
     23 H2         -1.9950    0.0740    4.2600 ha        1 1YE      0.126000
     24 H3          1.2700    1.1120    4.4280 hc        1 1YE      0.082000
     25 H4          0.7080   -0.1250    5.2740 hc        1 1YE      0.082000
     26 H5         -0.1900    1.1860    5.0800 hc        1 1YE      0.082000
     27 H6          1.8000   -1.5130    1.5380 ha        1 1YE      0.091667
     28 H7          1.5920   -1.5170    3.1250 ha        1 1YE      0.091667
     29 H8          2.5550   -0.4330    2.4470 ha        1 1YE      0.091667
     30 H9         -3.2240    0.0180   -2.7940 ha        1 1YE      0.138000
     31 H10        -2.0420    0.0160   -4.8420 ha        1 1YE      0.165500
     32 H11         0.3250   -0.0350   -4.8440 ha        1 1YE      0.165500
     33 H12         1.8400    1.2200   -3.7850 hc        1 1YE      0.087500
     34 H13         2.0530    1.2300   -2.2020 hc        1 1YE      0.087500
@<TRIPOS>BOND
     1    1    2 1   
     2    2    3 1   
     3    3    4 1   
     4    3   10 1   
     5    4   22 1   
     6    5    6 1   
     7    5   23 1   
     8    6    7 1   
     9    7   24 1   
    10    7   25 1   
    11    7   26 1   
    12    8   10 1   
    13    9   27 1   
    14    9   28 1   
    15    9   29 1   
    16   11   12 1   
    17   12   17 1   
    18   13   14 1   
    19   14   30 1   
    20   15   16 1   
    21   15   31 1   
    22   16   32 1   
    23   17   18 1   
    24   18   19 1   
    25   18   33 1   
    26   18   34 1   
    27   19   20 1   
    28   19   21 1   
@<TRIPOS>SUBSTRUCTURE
     1 1YE         1 TEMP              0 ****  ****    0 ROOT
