@<TRIPOS>MOLECULE
1YE
   34    36     1     0     0
SMALL
bcc


@<TRIPOS>ATOM
      1 OAD        -0.0290   -0.3460    0.0530 o         1 1YE     -0.581100
      2 CAQ         1.2060   -0.2060    0.0630 c         1 1YE      0.608300
      3 CAS         1.9660   -0.0710    1.3150 ca        1 1YE     -0.228600
      4 CAJ         1.3210   -0.1470    2.5580 ca        1 1YE     -0.053000
      5 CAH         2.0440   -0.0290    3.7340 ca        1 1YE     -0.183000
      6 CAN         3.4360    0.1640    3.7020 ca        1 1YE     -0.038300
      7 CAA         4.1910    0.2770    4.9720 c3        1 1YE     -0.053800
      8 CAO         4.1100    0.2430    2.4790 ca        1 1YE     -0.108300
      9 CAB         5.5770    0.4410    2.4250 c3        1 1YE     -0.050800
     10 CAT         3.3540    0.1300    1.2860 ca        1 1YE      0.174100
     11 OAL         4.0800    0.2450    0.1200 os        1 1YE     -0.207200
     12 CAU         3.4080    0.0490   -1.0820 ca        1 1YE      0.122100
     13 CAR         2.0220   -0.1630   -1.1520 ca        1 1YE     -0.230600
     14 CAI         1.4310   -0.3390   -2.4140 ca        1 1YE     -0.080000
     15 CAF         2.2140   -0.3060   -3.5590 ca        1 1YE     -0.172000
     16 CAG         3.5940   -0.0940   -3.4720 ca        1 1YE     -0.076000
     17 CAP         4.2230    0.0920   -2.2380 ca        1 1YE     -0.034300
     18 CAK         5.6780    0.3460   -2.1480 c3        1 1YE     -0.174100
     19 CAM         6.5310   -0.4920   -3.1320 c         1 1YE      0.917600
     20 OAE         7.3970   -1.2600   -2.6330 o         1 1YE     -0.836800
     21 OAC         6.3460   -0.3340   -4.3730 o         1 1YE     -0.836800
     22 H1          0.2300   -0.3040    2.5740 ha        1 1YE      0.149000
     23 H2          1.5300   -0.0880    4.7040 ha        1 1YE      0.126000
     24 H3          4.8470   -0.6200    5.1080 hc        1 1YE      0.042700
     25 H4          3.5030    0.3480    5.8500 hc        1 1YE      0.042700
     26 H5          4.8450    1.1850    4.9570 hc        1 1YE      0.042700
     27 H6          5.8320    1.4900    2.7170 hc        1 1YE      0.052367
     28 H7          6.0900   -0.2550    3.1350 hc        1 1YE      0.052367
     29 H8          5.9760    0.2530    1.3950 hc        1 1YE      0.052367
     30 H9          0.3450   -0.5050   -2.4680 ha        1 1YE      0.138000
     31 H10         1.7520   -0.4520   -4.5460 ha        1 1YE      0.125000
     32 H11         4.2340   -0.0900   -4.3800 ha        1 1YE      0.206000
     33 H12         5.8670    1.4260   -2.3860 hc        1 1YE      0.048200
     34 H13         6.0460    0.1480   -1.1070 hc        1 1YE      0.048200
@<TRIPOS>BOND
     1    1    2 2   
     2    2    3 1   
     3    2   13 1   
     4    3    4 ar  
     5    3   10 ar  
     6    4    5 ar  
     7    4   22 1   
     8    5    6 ar  
     9    5   23 1   
    10    6    7 1   
    11    6    8 ar  
    12    7   24 1   
    13    7   25 1   
    14    7   26 1   
    15    8    9 1   
    16    8   10 ar  
    17    9   27 1   
    18    9   28 1   
    19    9   29 1   
    20   10   11 1   
    21   11   12 1   
    22   12   13 ar  
    23   12   17 ar  
    24   13   14 ar  
    25   14   15 ar  
    26   14   30 1   
    27   15   16 ar  
    28   15   31 1   
    29   16   17 ar  
    30   16   32 1   
    31   17   18 1   
    32   18   19 1   
    33   18   33 1   
    34   18   34 1   
    35   19   20 1   
    36   19   21 1   
@<TRIPOS>SUBSTRUCTURE
     1 1YE         1 TEMP              0 ****  ****    0 ROOT
