@<TRIPOS>MOLECULE
1YG
   50    52     1     0     0
SMALL
bcc


@<TRIPOS>ATOM
      1 C5         -5.3270    0.3730   -0.2510 cc        1 1YG      0.170700
      2 C7         -6.2280    1.3040    0.2550 cd        1 1YG      0.227900
      3 C8         -5.3840   -1.0740   -0.5770 c3        1 1YG     -0.076300
      4 C9         -1.0130    2.2740    1.0150 cc        1 1YG     -0.264500
      5 C10        -6.7730   -1.6090   -0.2520 c3        1 1YG     -0.089100
      6 C11        -5.0940   -1.2750   -2.0610 c3        1 1YG     -0.089100
      7 C12        -4.3430   -1.8240    0.2480 c3        1 1YG     -0.089100
      8 C14        -1.1130    0.8830    0.8870 cd        1 1YG      0.415200
      9 C15         1.1020    1.0850    0.8360 cc        1 1YG      0.488300
     10 N4         -5.6020    2.5520    0.3580 nd        1 1YG     -0.653000
     11 C1         -4.3510    2.3740   -0.0750 cc        1 1YG      0.483700
     12 O2         -4.1150    1.0400   -0.4740 os        1 1YG     -0.384800
     13 C3         -3.2180    3.3050   -0.2030 c3        1 1YG     -0.077600
     14 S6         -2.2180    3.3820    1.2550 ss        1 1YG     -0.081000
     15 N16         0.0630    0.1960    0.7750 nd        1 1YG     -0.702000
     16 N17         2.4320    0.6740    0.8030 n         1 1YG     -0.519400
     17 C18         3.5040    1.5530    0.7150 c         1 1YG      0.660100
     18 O20         3.3320    2.7860    0.7260 o         1 1YG     -0.583100
     19 C19         4.9060    0.9460    0.6510 c3        1 1YG     -0.079400
     20 C22         5.3300    0.5140    2.0410 c3        1 1YG     -0.094100
     21 C21         4.9930   -0.1470   -0.3630 ca        1 1YG     -0.102300
     22 C24         4.7380   -1.4830   -0.0330 ca        1 1YG     -0.123000
     23 C26         4.8360   -2.4800   -1.0020 ca        1 1YG     -0.124500
     24 C27         5.1890   -2.1530   -2.3110 ca        1 1YG     -0.120000
     25 C25         5.4470   -0.8240   -2.6470 ca        1 1YG     -0.124500
     26 C23         5.3510    0.1740   -1.6800 ca        1 1YG     -0.123000
     27 S13         0.6040    2.7220    0.9910 ss        1 1YG      0.063700
     28 H1         -7.2680    1.1690    0.5500 h4        1 1YG      0.052100
     29 H2         -7.5480   -1.0730   -0.8500 hc        1 1YG      0.043700
     30 H3         -6.8200   -2.6980   -0.4940 hc        1 1YG      0.043700
     31 H4         -6.9990   -1.4720    0.8330 hc        1 1YG      0.043700
     32 H5         -5.8640   -0.7570   -2.6810 hc        1 1YG      0.043700
     33 H6         -4.0900   -0.8590   -2.3140 hc        1 1YG      0.043700
     34 H7         -5.1090   -2.3640   -2.3050 hc        1 1YG      0.043700
     35 H8         -4.3640   -2.9090   -0.0120 hc        1 1YG      0.043700
     36 H9         -3.3230   -1.4200    0.0360 hc        1 1YG      0.043700
     37 H10        -4.5540   -1.7100    1.3380 hc        1 1YG      0.043700
     38 H11        -2.0580    0.3200    0.8490 h4        1 1YG      0.055100
     39 H12        -2.6110    3.0270   -1.1020 h1        1 1YG      0.106200
     40 H13        -3.6090    4.3480   -0.3410 h1        1 1YG      0.106200
     41 H14         2.6110   -0.3060    0.7200 hn        1 1YG      0.345500
     42 H15         5.5840    1.7910    0.3260 hc        1 1YG      0.096700
     43 H16         6.3330    0.0250    1.9940 hc        1 1YG      0.050700
     44 H17         5.3950    1.4060    2.7110 hc        1 1YG      0.050700
     45 H18         4.6030   -0.2070    2.4870 hc        1 1YG      0.050700
     46 H19         4.4690   -1.7580    0.9990 ha        1 1YG      0.136500
     47 H20         4.6330   -3.5270   -0.7320 ha        1 1YG      0.137500
     48 H21         5.2640   -2.9400   -3.0760 ha        1 1YG      0.137000
     49 H22         5.7260   -0.5610   -3.6790 ha        1 1YG      0.137500
     50 H23         5.5560    1.2210   -1.9520 ha        1 1YG      0.136500
@<TRIPOS>BOND
     1    1    2 2   
     2    1    3 1   
     3    1   12 1   
     4    2   10 1   
     5    2   28 1   
     6    3    5 1   
     7    3    6 1   
     8    3    7 1   
     9    4    8 2   
    10    4   14 1   
    11    4   27 1   
    12    5   29 1   
    13    5   30 1   
    14    5   31 1   
    15    6   32 1   
    16    6   33 1   
    17    6   34 1   
    18    7   35 1   
    19    7   36 1   
    20    7   37 1   
    21    8   15 1   
    22    8   38 1   
    23    9   15 2   
    24    9   16 1   
    25    9   27 1   
    26   10   11 2   
    27   11   12 1   
    28   11   13 1   
    29   13   14 1   
    30   13   39 1   
    31   13   40 1   
    32   16   17 1   
    33   16   41 1   
    34   17   18 2   
    35   17   19 1   
    36   19   20 1   
    37   19   21 1   
    38   19   42 1   
    39   20   43 1   
    40   20   44 1   
    41   20   45 1   
    42   21   22 ar  
    43   21   26 ar  
    44   22   23 ar  
    45   22   46 1   
    46   23   24 ar  
    47   23   47 1   
    48   24   25 ar  
    49   24   48 1   
    50   25   26 ar  
    51   25   49 1   
    52   26   50 1   
@<TRIPOS>SUBSTRUCTURE
     1 1YG         1 TEMP              0 ****  ****    0 ROOT
