@<TRIPOS>MOLECULE
1YG
   50    43     1     0     0
SMALL
bcc


@<TRIPOS>ATOM
      1 C5          0.6550   -0.9640   -6.3230 c1        1 1YG     -0.053000
      2 C7          0.4470    0.3930   -6.2290 c1        1 1YG     -0.173000
      3 C8          1.0200   -1.7370   -7.6040 c2        1 1YG      0.019000
      4 C9         -0.5780    0.8510   -0.2620 c1        1 1YG     -0.702000
      5 C10         2.4060   -1.2910   -8.0950 c3        1 1YG     -0.206667
      6 C11         1.0430   -3.2430   -7.3030 c3        1 1YG     -0.206667
      7 C12        -0.0270   -1.4480   -8.6930 c3        1 1YG     -0.206667
      8 C14        -0.3070    2.1350    0.3480 c1        1 1YG     -0.023000
      9 C15        -0.7220    0.6060    2.2030 c1        1 1YG     -0.161000
     10 N4          0.1340    0.6790   -4.9470 n2        1 1YG     -0.139000
     11 C1          0.1440   -0.4850   -4.2410 c1        1 1YG      0.001000
     12 O2          0.4680   -1.4990   -5.1010 os        1 1YG     -0.120000
     13 C3         -0.1600   -0.6350   -2.7450 c2        1 1YG     -0.247000
     14 S6         -0.5430    0.9670   -2.0510 s         1 1YG      0.323000
     15 N16        -0.4010    1.9690    1.9100 n2        1 1YG     -0.182000
     16 N17        -0.9150    0.0000    3.4910 n2        1 1YG     -0.287000
     17 C18        -0.3360    0.6010    4.6600 c1        1 1YG      0.305000
     18 O20         0.3180    1.6250    4.5600 o         1 1YG     -0.344000
     19 C19        -0.5560   -0.0290    6.0250 c2        1 1YG     -0.077000
     20 C22         0.6640   -0.8430    6.4100 c3        1 1YG     -0.212000
     21 C21        -0.7820    1.0630    7.0560 c2        1 1YG     -0.094000
     22 C24        -2.0730    1.3620    7.4810 c2        1 1YG     -0.115000
     23 C26        -2.2820    2.3730    8.4150 c1        1 1YG     -0.125000
     24 C27        -1.1990    3.0840    8.9240 c1        1 1YG     -0.122000
     25 C25         0.0920    2.7840    8.4990 c1        1 1YG     -0.122000
     26 C23         0.3000    1.7740    7.5650 c1        1 1YG     -0.131000
     27 S13        -0.8470   -0.1530    0.8590 ss        1 1YG      0.634000
     28 H1          0.5150    1.0390   -6.9640 DU        1 1YG      0.194000
     29 H2          2.3730   -0.3430   -8.3510 hc        1 1YG      0.082556
     30 H3          3.0640   -1.4130   -7.3740 hc        1 1YG      0.082556
     31 H4          2.6680   -1.8330   -8.8730 hc        1 1YG      0.082556
     32 H5          0.1540   -3.5310   -6.9970 hc        1 1YG      0.082556
     33 H6          1.7070   -3.4270   -6.6010 hc        1 1YG      0.082556
     34 H7          1.2850   -3.7370   -8.1190 hc        1 1YG      0.082556
     35 H8         -0.9290   -1.5880   -8.3260 hc        1 1YG      0.082556
     36 H9          0.0630   -0.5170   -8.9950 hc        1 1YG      0.082556
     37 H10         0.1160   -2.0560   -9.4540 hc        1 1YG      0.082556
     38 H11        -0.1000    2.9650   -0.1300 DU        1 1YG      0.194000
     39 H12         0.6230   -1.0100   -2.2880 h4        1 1YG      0.142500
     40 H13        -0.9270   -1.2360   -2.6250 h4        1 1YG      0.142500
     41 H14        -1.3850   -0.7840    3.5630 hn        1 1YG      0.260000
     42 H15        -1.3440   -0.6150    5.9920 ha        1 1YG      0.136000
     43 H16         0.5650   -1.1260    5.4740 hc        1 1YG      0.090000
     44 H17         0.1030   -1.0010    7.2030 hc        1 1YG      0.090000
     45 H18         0.7960   -1.8140    6.5150 hc        1 1YG      0.090000
     46 H19        -2.8360    0.8610    7.1220 ha        1 1YG      0.139000
     47 H20        -3.1930    2.5840    8.7140 ha        1 1YG      0.137000
     48 H21        -1.3460    3.7960    9.5820 ha        1 1YG      0.137000
     49 H22         0.8550    3.2860    8.8580 ha        1 1YG      0.137000
     50 H23         1.2110    1.5630    7.2650 ha        1 1YG      0.134000
@<TRIPOS>BOND
     1    1    2 1   
     2    1   12 1   
     3    2   10 1   
     4    3    5 1   
     5    3    6 1   
     6    3    7 1   
     7    4    8 1   
     8    4   27 1   
     9    5   29 1   
    10    5   30 1   
    11    5   31 1   
    12    6   32 1   
    13    6   33 1   
    14    6   34 1   
    15    7   35 1   
    16    7   36 1   
    17    7   37 1   
    18    8   15 1   
    19    9   15 1   
    20    9   27 1   
    21   10   11 1   
    22   11   12 1   
    23   13   14 1   
    24   13   39 1   
    25   13   40 1   
    26   16   17 1   
    27   16   41 1   
    28   17   18 1   
    29   19   20 1   
    30   19   21 1   
    31   19   42 1   
    32   20   43 1   
    33   20   44 1   
    34   20   45 1   
    35   21   22 1   
    36   21   26 1   
    37   22   23 1   
    38   22   46 1   
    39   23   47 1   
    40   24   25 1   
    41   24   48 1   
    42   25   49 1   
    43   26   50 1   
@<TRIPOS>SUBSTRUCTURE
     1 1YG         1 TEMP              0 ****  ****    0 ROOT
