@<TRIPOS>MOLECULE
1YG
   51    53     1     0     0
SMALL
bcc


@<TRIPOS>ATOM
      1 C5         -0.2380    0.2950    1.4460 cc        1 1YG      0.217700
      2 C7          0.5770    0.5790    2.5420 cd        1 1YG      0.225900
      3 C8         -0.0990    0.4260   -0.0280 c3        1 1YG     -0.084300
      4 C9         -1.7280    0.4690    6.5020 cc        1 1YG     -0.198500
      5 C10        -0.2350   -0.9500   -0.6740 c3        1 1YG     -0.092100
      6 C11        -1.1900    1.3490   -0.5610 c3        1 1YG     -0.092100
      7 C12         1.2700    1.0100   -0.3520 c3        1 1YG     -0.092100
      8 C14        -2.0920    0.8340    7.8370 cd        1 1YG      0.349200
      9 C15         0.1090    0.8550    8.0150 cc        1 1YG      0.230300
     10 N4         -0.0990    0.2370    3.7170 nd        1 1YG     -0.723000
     11 C1         -1.2900   -0.2380    3.3350 cc        1 1YG      0.464700
     12 O2         -1.4390   -0.2270    1.9420 os        1 1YG     -0.346800
     13 C3         -2.4100   -0.7660    4.1280 c3        1 1YG     -0.109600
     14 S6         -2.9660    0.2830    5.4230 ss        1 1YG      0.056000
     15 N16        -1.0700    1.0630    8.6870 nd        1 1YG     -0.594000
     16 N17         1.3820    0.9920    8.6940 n4        1 1YG     -0.611500
     17 C18         1.5880   -0.1300    9.7150 c         1 1YG      0.564100
     18 O20         2.0870   -1.1480    9.2700 o         1 1YG     -0.420100
     19 C19         1.1520    0.1980   11.1280 c3        1 1YG     -0.059400
     20 C22         1.5230   -0.9510   12.0450 c3        1 1YG     -0.099100
     21 C21         1.7340    1.5070   11.5580 ca        1 1YG     -0.165300
     22 C24         3.0580    1.6030   12.0020 ca        1 1YG     -0.123000
     23 C26         3.5640    2.8290   12.4330 ca        1 1YG     -0.121000
     24 C27         2.7530    3.9640   12.4260 ca        1 1YG     -0.096000
     25 C25         1.4320    3.8720   11.9850 ca        1 1YG     -0.121000
     26 C23         0.9220    2.6500   11.5530 ca        1 1YG     -0.123000
     27 S13        -0.0800    0.4350    6.3820 ss        1 1YG      0.289700
     28 H1          1.5840    0.9960    2.5600 h4        1 1YG      0.061100
     29 H2          0.5720   -1.6310   -0.3160 hc        1 1YG      0.049922
     30 H3         -0.1560   -0.8510   -1.7830 hc        1 1YG      0.049922
     31 H4         -1.2260   -1.3970   -0.4210 hc        1 1YG      0.049922
     32 H5         -2.1980    0.9430   -0.3060 hc        1 1YG      0.049922
     33 H6         -1.0890    2.3690   -0.1190 hc        1 1YG      0.049922
     34 H7         -1.1030    1.4290   -1.6710 hc        1 1YG      0.049922
     35 H8          2.0810    0.3440    0.0280 hc        1 1YG      0.049922
     36 H9          1.3780    1.1090   -1.4600 hc        1 1YG      0.049922
     37 H10         1.3850    2.0190    0.1100 hc        1 1YG      0.049922
     38 H11        -3.1290    0.9330    8.1930 h4        1 1YG      0.080100
     39 H12        -3.3180   -0.8820    3.4690 h1        1 1YG      0.126700
     40 H13        -2.1380   -1.7860    4.5090 h1        1 1YG      0.126700
     41 H14         2.1270    0.9630    7.9900 hn        1 1YG      0.465300
     42 H15         0.0210    0.2820   11.1040 hc        1 1YG      0.125700
     43 H16         2.6170   -1.1710   12.0020 hc        1 1YG      0.070033
     44 H17         0.9670   -1.8740   11.7500 hc        1 1YG      0.070033
     45 H18         1.2510   -0.6820   13.0950 hc        1 1YG      0.070033
     46 H19         3.7010    0.7100   12.0310 ha        1 1YG      0.147500
     47 H20         4.6040    2.8960   12.7900 ha        1 1YG      0.155500
     48 H21         3.1520    4.9290   12.7760 ha        1 1YG      0.157000
     49 H22         0.7850    4.7640   11.9910 ha        1 1YG      0.155500
     50 H23        -0.1310    2.5790   11.2310 ha        1 1YG      0.147500
     51 H172        1.4120    1.8970    9.1920 hn        1 1YG      0.465300
@<TRIPOS>BOND
     1    1    2 2   
     2    1    3 1   
     3    1   12 1   
     4    2   10 1   
     5    2   28 1   
     6    3    5 1   
     7    3    6 1   
     8    3    7 1   
     9    4    8 2   
    10    4   14 1   
    11    4   27 1   
    12    5   29 1   
    13    5   30 1   
    14    5   31 1   
    15    6   32 1   
    16    6   33 1   
    17    6   34 1   
    18    7   35 1   
    19    7   36 1   
    20    7   37 1   
    21    8   15 1   
    22    8   38 1   
    23    9   15 2   
    24    9   16 1   
    25    9   27 1   
    26   10   11 2   
    27   11   12 1   
    28   11   13 1   
    29   13   14 1   
    30   13   39 1   
    31   13   40 1   
    32   16   17 1   
    33   16   41 1   
    34   16   51 1   
    35   17   18 2   
    36   17   19 1   
    37   19   20 1   
    38   19   21 1   
    39   19   42 1   
    40   20   43 1   
    41   20   44 1   
    42   20   45 1   
    43   21   22 ar  
    44   21   26 ar  
    45   22   23 ar  
    46   22   46 1   
    47   23   24 ar  
    48   23   47 1   
    49   24   25 ar  
    50   24   48 1   
    51   25   26 ar  
    52   25   49 1   
    53   26   50 1   
@<TRIPOS>SUBSTRUCTURE
     1 1YG         1 TEMP              0 ****  ****    0 ROOT
