@<TRIPOS>MOLECULE
1YG
   50    52     1     0     0
SMALL
bcc


@<TRIPOS>ATOM
      1 C5         -0.1140   -0.1550    1.3290 cc        1 1YG      0.170700
      2 C7          0.4960   -1.0690    0.4770 cd        1 1YG      0.227900
      3 C8         -0.7560    1.1730    1.1610 c3        1 1YG     -0.076300
      4 C9          1.9520   -1.1750    5.6320 cc        1 1YG     -0.264500
      5 C10        -0.6930    1.5800   -0.3060 c3        1 1YG     -0.089100
      6 C11        -2.2130    1.0950    1.6060 c3        1 1YG     -0.089100
      7 C12        -0.0210    2.2060    2.0090 c3        1 1YG     -0.089100
      8 C14         1.5130    0.1340    5.4010 cd        1 1YG      0.415200
      9 C15         1.7200    0.2140    7.6150 cc        1 1YG      0.488300
     10 N4          0.9330   -2.1760    1.2140 nd        1 1YG     -0.653000
     11 C1          0.5940   -1.9310    2.4820 cc        1 1YG      0.483700
     12 O2         -0.0660   -0.6910    2.6230 os        1 1YG     -0.384800
     13 C3          0.7850   -2.7150    3.7140 c3        1 1YG     -0.077600
     14 S6          2.3130   -2.3570    4.5300 ss        1 1YG     -0.081000
     15 N16         1.3660    0.9290    6.5030 nd        1 1YG     -0.703000
     16 N17         1.7250    0.7790    8.8870 ns        1 1YG     -0.519400
     17 C18         1.9360    0.0470   10.0500 c         1 1YG      0.660100
     18 O20         2.2010   -1.1680   10.0090 o         1 1YG     -0.583100
     19 C19         1.8750    0.8050   11.3770 c3        1 1YG     -0.079400
     20 C22         3.1710    1.5650   11.5800 c3        1 1YG     -0.094100
     21 C21         0.6590    1.6670   11.4700 ca        1 1YG     -0.102300
     22 C24         0.6630    2.9980   11.0360 ca        1 1YG     -0.123000
     23 C26        -0.4880    3.7780   11.1440 ca        1 1YG     -0.124500
     24 C27        -1.6530    3.2360   11.6860 ca        1 1YG     -0.120000
     25 C25        -1.6640    1.9120   12.1220 ca        1 1YG     -0.124500
     26 C23        -0.5150    1.1300   12.0160 ca        1 1YG     -0.123000
     27 S13         2.1830   -1.4060    7.2770 ss        1 1YG      0.063700
     28 H1          0.6520   -1.0110   -0.6000 h4        1 1YG      0.052100
     29 H2         -1.1740    2.5790   -0.4380 hc        1 1YG      0.043700
     30 H3          0.3680    1.6440   -0.6470 hc        1 1YG      0.043700
     31 H4         -1.2290    0.8360   -0.9410 hc        1 1YG      0.043700
     32 H5         -2.6920    2.0990    1.5070 hc        1 1YG      0.043700
     33 H6         -2.7740    0.3650    0.9760 hc        1 1YG      0.043700
     34 H7         -2.2710    0.7690    2.6720 hc        1 1YG      0.043700
     35 H8          1.0410    2.2960    1.6790 hc        1 1YG      0.043700
     36 H9         -0.5160    3.2010    1.9060 hc        1 1YG      0.043700
     37 H10        -0.0400    1.9020    3.0840 hc        1 1YG      0.043700
     38 H11         1.2610    0.5490    4.4130 h4        1 1YG      0.055100
     39 H12         0.8440   -3.8050    3.4550 h1        1 1YG      0.106200
     40 H13        -0.0900   -2.5540    4.3930 h1        1 1YG      0.106200
     41 H14         1.4470    1.7350    8.9700 hn        1 1YG      0.345500
     42 H15         1.8100    0.0060   12.1750 hc        1 1YG      0.096700
     43 H16         4.0230    0.8460   11.6580 hc        1 1YG      0.050700
     44 H17         3.3760    2.2620   10.7330 hc        1 1YG      0.050700
     45 H18         3.1140    2.1590   12.5240 hc        1 1YG      0.050700
     46 H19         1.5790    3.4420   10.6160 ha        1 1YG      0.136500
     47 H20        -0.4740    4.8230   10.8000 ha        1 1YG      0.137500
     48 H21        -2.5610    3.8520   11.7700 ha        1 1YG      0.137000
     49 H22        -2.5800    1.4800   12.5510 ha        1 1YG      0.137500
     50 H23        -0.5300    0.0860   12.3630 ha        1 1YG      0.136500
@<TRIPOS>BOND
     1    1    2 2   
     2    1    3 1   
     3    1   12 1   
     4    2   10 1   
     5    2   28 1   
     6    3    5 1   
     7    3    6 1   
     8    3    7 1   
     9    4    8 2   
    10    4   14 1   
    11    4   27 1   
    12    5   29 1   
    13    5   30 1   
    14    5   31 1   
    15    6   32 1   
    16    6   33 1   
    17    6   34 1   
    18    7   35 1   
    19    7   36 1   
    20    7   37 1   
    21    8   15 1   
    22    8   38 1   
    23    9   15 2   
    24    9   16 1   
    25    9   27 1   
    26   10   11 2   
    27   11   12 1   
    28   11   13 1   
    29   13   14 1   
    30   13   39 1   
    31   13   40 1   
    32   16   17 1   
    33   16   41 1   
    34   17   18 2   
    35   17   19 1   
    36   19   20 1   
    37   19   21 1   
    38   19   42 1   
    39   20   43 1   
    40   20   44 1   
    41   20   45 1   
    42   21   22 ar  
    43   21   26 ar  
    44   22   23 ar  
    45   22   46 1   
    46   23   24 ar  
    47   23   47 1   
    48   24   25 ar  
    49   24   48 1   
    50   25   26 ar  
    51   25   49 1   
    52   26   50 1   
@<TRIPOS>SUBSTRUCTURE
     1 1YG         1 TEMP              0 ****  ****    0 ROOT
