@<TRIPOS>MOLECULE
1YH
   81    83     1     0     0
SMALL
bcc


@<TRIPOS>ATOM
      1 N2         -3.6270   -2.5910    3.8760 n3        1 1YH     -0.306000
      2 C1         -5.0410   -2.3710    4.1230 c3        1 1YH     -0.125000
      3 C3         -3.0140   -1.3670    3.5330 c3        1 1YH     -0.044000
      4 C5         -3.0080   -0.4500    4.7430 c3        1 1YH     -0.238000
      5 C6         -1.5670   -1.6250    3.0780 c2        1 1YH      0.300000
      6 O7         -0.7220   -1.8860    3.8880 o         1 1YH     -0.362000
      7 N8         -1.2380   -1.6350    1.6450 n         1 1YH     -0.355000
      8 C9          0.1110   -1.8720    1.2190 c3        1 1YH      0.016000
      9 C17         0.1320   -2.1610   -0.2870 c2        1 1YH      0.305000
     10 O18        -0.0950   -3.3000   -0.6970 o         1 1YH     -0.372000
     11 C11         0.6790   -3.0590    1.9740 c3        1 1YH     -0.123000
     12 C12         0.1560   -4.3460    1.3400 c3        1 1YH     -0.158000
     13 C13         0.8120   -5.5880    1.9220 c3        1 1YH     -0.153500
     14 C14         2.3430   -5.5050    1.9040 c3        1 1YH     -0.156000
     15 C15         2.8640   -4.2210    2.5370 c3        1 1YH     -0.153500
     16 C16         2.2080   -2.9770    1.9540 c3        1 1YH     -0.158000
     17 N19         0.5510   -1.0950   -1.2430 n         1 1YH     -0.325000
     18 C20         0.7070   -1.3490   -2.6740 c3        1 1YH     -0.016000
     19 C21         2.1040   -0.9850   -3.2420 c3        1 1YH     -0.044000
     20 C23         2.1030   -0.9400   -4.5400 c3        1 1YH     -0.152000
     21 C24         2.9930    0.2970   -4.9010 c3        1 1YH     -0.165000
     22 C25         3.2020    1.0610   -3.5650 c3        1 1YH     -0.058000
     23 N26         2.3430    0.5210   -2.7240 n3        1 1YH     -0.287000
     24 C27         2.1510    0.7070   -1.3060 c3        1 1YH     -0.057000
     25 C28         0.8330    0.2650   -0.8110 c3        1 1YH      0.012000
     26 C30        -0.3450    1.2820   -1.2310 c2        1 1YH      0.278000
     27 O31        -1.4680    0.8680   -1.3940 o         1 1YH     -0.373000
     28 N32        -0.0680    2.7090   -1.3650 n         1 1YH     -0.349000
     29 C33        -1.2080    3.6850   -1.7150 c3        1 1YH      0.065000
     30 C35        -1.2630    3.7980   -3.0610 c3        1 1YH     -0.200000
     31 C36        -0.3940    4.8170   -3.6790 c3        1 1YH     -0.024000
     32 O37        -0.4850    6.0820   -3.1840 os        1 1YH     -0.210000
     33 C38        -0.7020    6.2350   -1.6820 c2        1 1YH      0.091000
     34 C39        -0.6510    7.4710   -1.0400 c2        1 1YH     -0.162000
     35 C40        -0.8570    7.5530    0.3430 c1        1 1YH     -0.097000
     36 C41        -1.1200    6.3650    1.1020 c1        1 1YH     -0.125000
     37 C42        -1.1720    5.1070    0.4560 c1        1 1YH     -0.125000
     38 C43        -0.9700    5.0230   -0.9090 c1        1 1YH     -0.177000
     39 H1         -3.2340   -2.9270    4.6300 hn        1 1YH      0.162000
     40 H3         -5.4080   -1.7910    3.4250 h1        1 1YH      0.073000
     41 H4         -5.1580   -1.9410    5.0000 h1        1 1YH      0.073000
     42 H5         -5.5160   -3.2370    4.1160 h1        1 1YH      0.073000
     43 H6         -3.5180   -0.9400    2.8000 h1        1 1YH      0.115000
     44 H7         -2.2050    0.1200    4.7190 hc        1 1YH      0.089667
     45 H8         -3.0020   -0.9920    5.5650 hc        1 1YH      0.089667
     46 H9         -3.8110    0.1140    4.7290 hc        1 1YH      0.089667
     47 H14        -1.9020   -1.4940    1.0170 hn        1 1YH      0.248000
     48 H15         0.6420   -1.0970    1.4010 h1        1 1YH      0.144000
     49 H16         0.3790   -3.0190    2.8850 hc        1 1YH      0.116000
     50 H17         0.3300   -4.3190    0.3790 hc        1 1YH      0.086500
     51 H18        -0.8090   -4.4010    1.4860 hc        1 1YH      0.086500
     52 H10         0.5330   -6.3650    1.4030 hc        1 1YH      0.079750
     53 H11         0.5090   -5.7010    2.8540 hc        1 1YH      0.079750
     54 H19         2.7070   -6.2680    2.3950 hc        1 1YH      0.078500
     55 H20         2.6490   -5.5480    0.9840 hc        1 1YH      0.078500
     56 H12         2.6890   -4.2490    3.5000 hc        1 1YH      0.079750
     57 H13         3.8320   -4.1660    2.3910 hc        1 1YH      0.079750
     58 H21         2.4870   -2.2040    2.4700 hc        1 1YH      0.086500
     59 H22         2.5110   -2.8640    1.0150 hc        1 1YH      0.086500
     60 H23         0.5450   -2.3000   -2.8390 h1        1 1YH      0.103500
     61 H24         0.0280   -0.8290   -3.1590 h1        1 1YH      0.103500
     62 H25         2.7990   -1.5940   -2.9030 h1        1 1YH      0.076000
     63 H26         2.4940   -1.7610   -4.9100 hc        1 1YH      0.093000
     64 H27         1.1880   -0.8140   -4.8780 hc        1 1YH      0.093000
     65 H28         3.8610   -0.0020   -5.2620 hc        1 1YH      0.091500
     66 H29         2.5290    0.8740   -5.5570 hc        1 1YH      0.091500
     67 H30         3.0100    2.0170   -3.6850 h1        1 1YH      0.081500
     68 H31         4.1280    0.9340   -3.2390 h1        1 1YH      0.081500
     69 H33         2.2590    1.6590   -1.0990 h1        1 1YH      0.091000
     70 H34         2.8510    0.2010   -0.8260 h1        1 1YH      0.091000
     71 H35         0.7960    0.3300    0.1710 h1        1 1YH      0.136000
     72 H36         0.8000    3.0230   -1.2740 hn        1 1YH      0.238000
     73 H37        -2.0500    3.2930   -1.4100 h1        1 1YH      0.137000
     74 H38        -2.1920    4.0000   -3.3100 hc        1 1YH      0.109000
     75 H39        -1.0280    2.9310   -3.4450 hc        1 1YH      0.109000
     76 H40         0.5330    4.5230   -3.5610 h1        1 1YH      0.094500
     77 H41        -0.6250    4.8590   -4.6320 h1        1 1YH      0.094500
     78 H42        -0.4730    8.2790   -1.5540 ha        1 1YH      0.148000
     79 H43        -0.8210    8.4150    0.7880 ha        1 1YH      0.132000
     80 H44        -1.2630    6.4240    2.0630 ha        1 1YH      0.144500
     81 H45        -1.3500    4.3040    0.9710 ha        1 1YH      0.144500
@<TRIPOS>BOND
     1    1    2 1   
     2    1    3 1   
     3    1   39 1   
     4    2   40 1   
     5    2   41 1   
     6    2   42 1   
     7    3    4 1   
     8    3    5 1   
     9    3   43 1   
    10    4   44 1   
    11    4   45 1   
    12    4   46 1   
    13    5    6 1   
    14    5    7 1   
    15    7    8 1   
    16    7   47 1   
    17    8    9 1   
    18    8   11 1   
    19    8   48 1   
    20    9   10 1   
    21    9   17 1   
    22   11   12 1   
    23   11   16 1   
    24   11   49 1   
    25   12   13 1   
    26   12   50 1   
    27   12   51 1   
    28   13   14 1   
    29   13   52 1   
    30   13   53 1   
    31   14   15 1   
    32   14   54 1   
    33   14   55 1   
    34   15   16 1   
    35   15   56 1   
    36   15   57 1   
    37   16   58 1   
    38   16   59 1   
    39   17   18 1   
    40   17   25 1   
    41   18   19 1   
    42   18   60 1   
    43   18   61 1   
    44   19   20 1   
    45   19   23 1   
    46   19   62 1   
    47   20   21 1   
    48   20   63 1   
    49   20   64 1   
    50   21   22 1   
    51   21   65 1   
    52   21   66 1   
    53   22   23 1   
    54   22   67 1   
    55   22   68 1   
    56   23   24 1   
    57   24   25 1   
    58   24   69 1   
    59   24   70 1   
    60   25   26 1   
    61   25   71 1   
    62   26   27 1   
    63   26   28 1   
    64   28   29 1   
    65   28   72 1   
    66   29   30 1   
    67   29   38 1   
    68   29   73 1   
    69   30   31 1   
    70   30   74 1   
    71   30   75 1   
    72   31   32 1   
    73   31   76 1   
    74   31   77 1   
    75   32   33 1   
    76   33   34 1   
    77   33   38 1   
    78   34   35 1   
    79   34   78 1   
    80   35   79 1   
    81   36   37 1   
    82   36   80 1   
    83   37   81 1   
@<TRIPOS>SUBSTRUCTURE
     1 1YH         1 TEMP              0 ****  ****    0 ROOT
