@<TRIPOS>MOLECULE
1YH
   81    85     1     0     0
SMALL
bcc


@<TRIPOS>ATOM
      1 N2          6.8800   -1.0340    1.6330 n3        1 1YH     -0.819200
      2 C1          7.7560   -1.7720    2.5020 c3        1 1YH      0.153100
      3 C3          5.4750   -1.0830    2.0030 c3        1 1YH      0.116500
      4 C5          5.1200   -0.6450    3.4250 c3        1 1YH     -0.134100
      5 C6          4.6690   -0.1640    1.0560 c         1 1YH      0.664100
      6 O7          4.9870    1.0320    0.9010 o         1 1YH     -0.615100
      7 N8          3.6070   -0.7330    0.3810 n         1 1YH     -0.540900
      8 C9          2.6730    0.0570   -0.3790 c3        1 1YH      0.045700
      9 C17         1.3160    0.1850    0.3640 c         1 1YH      0.641100
     10 O18         0.9450   -0.7110    1.1540 o         1 1YH     -0.631100
     11 C11         2.3740   -0.5110   -1.7840 c3        1 1YH     -0.068700
     12 C12         3.5840   -0.3650   -2.6960 c3        1 1YH     -0.076400
     13 C13         3.2500   -0.8380   -4.0980 c3        1 1YH     -0.076900
     14 C14         2.7310   -2.2610   -4.0980 c3        1 1YH     -0.078400
     15 C15         1.5550   -2.4220   -3.1550 c3        1 1YH     -0.076900
     16 C16         1.9120   -1.9600   -1.7560 c3        1 1YH     -0.076400
     17 N19         0.5280    1.3130    0.1860 n         1 1YH     -0.445800
     18 C20         0.7430    2.2840   -0.8750 c3        1 1YH      0.095000
     19 C21         0.3560    3.6960   -0.3870 c3        1 1YH      0.165500
     20 C23         0.4070    4.8170   -1.4370 c3        1 1YH     -0.074400
     21 C24        -0.6850    5.7950   -0.9870 c3        1 1YH     -0.083400
     22 C25        -1.5020    5.0600    0.1020 c3        1 1YH      0.186800
     23 N26        -1.0340    3.6860    0.0890 n3        1 1YH     -0.759600
     24 C27        -1.2150    2.8140    1.2150 c3        1 1YH      0.195800
     25 C28        -0.7680    1.3620    0.8450 c3        1 1YH      0.037700
     26 C30        -1.8900    0.7170   -0.0090 c         1 1YH      0.653100
     27 O31        -1.8180    0.6130   -1.2470 o         1 1YH     -0.600100
     28 N32        -3.0010    0.2790    0.6870 n         1 1YH     -0.568900
     29 C33        -4.0870   -0.4310    0.0490 c3        1 1YH      0.156000
     30 C35        -5.3780    0.4110    0.0390 c3        1 1YH     -0.125400
     31 C36        -6.5240   -0.4300   -0.4740 c3        1 1YH      0.128400
     32 O37        -6.8000   -1.5380    0.3890 os        1 1YH     -0.327900
     33 C38        -5.6860   -2.2510    0.7900 ca        1 1YH      0.134100
     34 C39        -5.9600   -3.5070    1.3610 ca        1 1YH     -0.157000
     35 C40        -4.9050   -4.2930    1.8090 ca        1 1YH     -0.099000
     36 C41        -3.5890   -3.8440    1.6810 ca        1 1YH     -0.163000
     37 C42        -3.3250   -2.5990    1.1160 ca        1 1YH     -0.090000
     38 C43        -4.3680   -1.7760    0.6750 ca        1 1YH     -0.174300
     39 H1          7.1810   -0.0800    1.5370 hn        1 1YH      0.380800
     40 H3          8.7820   -1.7620    2.0470 h1        1 1YH      0.032033
     41 H4          7.8260   -1.3540    3.5440 h1        1 1YH      0.032033
     42 H5          7.4040   -2.8340    2.5750 h1        1 1YH      0.032033
     43 H6          5.1560   -2.1610    1.8800 h1        1 1YH      0.067700
     44 H7          4.0190   -0.7370    3.5820 hc        1 1YH      0.050367
     45 H8          5.6400   -1.2920    4.1710 hc        1 1YH      0.050367
     46 H9          5.4180    0.4170    3.5960 hc        1 1YH      0.050367
     47 H14         3.2930   -1.6390    0.6480 hn        1 1YH      0.323500
     48 H15         3.1400    1.0830   -0.5020 h1        1 1YH      0.105700
     49 H16         1.5370    0.1160   -2.2090 hc        1 1YH      0.064700
     50 H17         3.9070    0.7080   -2.7270 hc        1 1YH      0.048950
     51 H18         4.4390   -0.9650   -2.2900 hc        1 1YH      0.048950
     52 H10         2.4780   -0.1590   -4.5460 hc        1 1YH      0.042200
     53 H11         4.1680   -0.7730   -4.7380 hc        1 1YH      0.042200
     54 H19         2.4200   -2.5460   -5.1360 hc        1 1YH      0.039700
     55 H20         3.5540   -2.9570   -3.7880 hc        1 1YH      0.039700
     56 H12         0.6820   -1.8300   -3.5350 hc        1 1YH      0.042200
     57 H13         1.2440   -3.4990   -3.1230 hc        1 1YH      0.042200
     58 H21         2.7250   -2.6190   -1.3530 hc        1 1YH      0.048950
     59 H22         1.0250   -2.0570   -1.0770 hc        1 1YH      0.048950
     60 H23         1.8230    2.3060   -1.1800 h1        1 1YH      0.069200
     61 H24         0.1150    2.0030   -1.7700 h1        1 1YH      0.069200
     62 H25         1.0680    3.9750    0.4510 h1        1 1YH      0.032700
     63 H26         1.4130    5.2990   -1.4510 hc        1 1YH      0.054200
     64 H27         0.1910    4.4170   -2.4570 hc        1 1YH      0.054200
     65 H28        -0.2390    6.7280   -0.5670 hc        1 1YH      0.050200
     66 H29        -1.3430    6.0760   -1.8430 hc        1 1YH      0.050200
     67 H30        -1.3620    5.5610    1.1000 h1        1 1YH      0.036700
     68 H31        -2.5990    5.0610   -0.1400 h1        1 1YH      0.036700
     69 H33        -0.6220    3.1350    2.1220 h1        1 1YH      0.043700
     70 H34        -2.3030    2.8020    1.4970 h1        1 1YH      0.043700
     71 H35        -0.6720    0.7850    1.8150 h1        1 1YH      0.095700
     72 H36        -2.9850    0.2740    1.6780 hn        1 1YH      0.310500
     73 H37        -3.7870   -0.6150   -1.0320 h1        1 1YH      0.097700
     74 H38        -5.6150    0.7750    1.0720 hc        1 1YH      0.063700
     75 H39        -5.2410    1.3040   -0.6230 hc        1 1YH      0.063700
     76 H40        -7.4890    0.1440   -0.4760 h1        1 1YH      0.059700
     77 H41        -6.3090   -0.8230   -1.5030 h1        1 1YH      0.059700
     78 H42        -7.0020   -3.8450    1.4440 ha        1 1YH      0.149000
     79 H43        -5.1100   -5.2760    2.2590 ha        1 1YH      0.134000
     80 H44        -2.7570   -4.4750    2.0250 ha        1 1YH      0.135000
     81 H45        -2.2800   -2.2680    1.0110 ha        1 1YH      0.144000
@<TRIPOS>BOND
     1    1    2 1   
     2    1    3 1   
     3    1   39 1   
     4    2   40 1   
     5    2   41 1   
     6    2   42 1   
     7    3    4 1   
     8    3    5 1   
     9    3   43 1   
    10    4   44 1   
    11    4   45 1   
    12    4   46 1   
    13    5    6 2   
    14    5    7 1   
    15    7    8 1   
    16    7   47 1   
    17    8    9 1   
    18    8   11 1   
    19    8   48 1   
    20    9   10 2   
    21    9   17 1   
    22   11   12 1   
    23   11   16 1   
    24   11   49 1   
    25   12   13 1   
    26   12   50 1   
    27   12   51 1   
    28   13   14 1   
    29   13   52 1   
    30   13   53 1   
    31   14   15 1   
    32   14   54 1   
    33   14   55 1   
    34   15   16 1   
    35   15   56 1   
    36   15   57 1   
    37   16   58 1   
    38   16   59 1   
    39   17   18 1   
    40   17   25 1   
    41   18   19 1   
    42   18   60 1   
    43   18   61 1   
    44   19   20 1   
    45   19   23 1   
    46   19   62 1   
    47   20   21 1   
    48   20   63 1   
    49   20   64 1   
    50   21   22 1   
    51   21   65 1   
    52   21   66 1   
    53   22   23 1   
    54   22   67 1   
    55   22   68 1   
    56   23   24 1   
    57   24   25 1   
    58   24   69 1   
    59   24   70 1   
    60   25   26 1   
    61   25   71 1   
    62   26   27 2   
    63   26   28 1   
    64   28   29 1   
    65   28   72 1   
    66   29   30 1   
    67   29   38 1   
    68   29   73 1   
    69   30   31 1   
    70   30   74 1   
    71   30   75 1   
    72   31   32 1   
    73   31   76 1   
    74   31   77 1   
    75   32   33 1   
    76   33   34 ar  
    77   33   38 ar  
    78   34   35 ar  
    79   34   78 1   
    80   35   36 ar  
    81   35   79 1   
    82   36   37 ar  
    83   36   80 1   
    84   37   38 ar  
    85   37   81 1   
@<TRIPOS>SUBSTRUCTURE
     1 1YH         1 TEMP              0 ****  ****    0 ROOT
