@<TRIPOS>MOLECULE
1YJ
   53    55     1     0     0
SMALL
bcc


@<TRIPOS>ATOM
      1 N3         -1.7260    3.3420    1.4820 n         1 1YJ     -0.465400
      2 C2         -0.5210    3.5310    0.7800 cc        1 1YJ      0.718800
      3 N1          0.6010    2.7840    1.0100 nd        1 1YJ     -0.763300
      4 C8A         0.5280    1.7960    1.9760 cd        1 1YJ      0.389600
      5 C4A        -0.6420    1.5370    2.7130 cc        1 1YJ     -0.238200
      6 C4         -1.8340    2.3450    2.4600 c         1 1YJ      0.718700
      7 N8          1.6880    1.0130    2.1980 nh        1 1YJ     -0.720000
      8 C7          1.7310    0.1860    3.3810 c3        1 1YJ      0.203800
      9 C6          0.5770    0.3710    4.4040 c3        1 1YJ      0.127500
     10 N5         -0.6910    0.5160    3.7030 nh        1 1YJ     -0.641000
     11 C9          1.0030    1.4840    5.3990 c3        1 1YJ      0.135800
     12 N10        -0.0120    1.9830    6.3050 nh        1 1YJ     -0.709600
     13 C4'        -0.3780    3.3450    6.0870 ca        1 1YJ      0.083600
     14 C3'         0.5490    4.3700    6.3750 ca        1 1YJ     -0.171500
     15 C2'         0.2180    5.6990    6.1390 ca        1 1YJ     -0.076500
     16 C1'        -1.0310    6.0490    5.6100 ca        1 1YJ     -0.135600
     17 C6'        -1.9660    5.0410    5.3620 ca        1 1YJ     -0.076500
     18 C5'        -1.6500    3.7050    5.6010 ca        1 1YJ     -0.171500
     19 C11        -1.2500    7.4810    5.2100 c         1 1YJ      0.661700
     20 N          -2.5310    7.9180    5.0160 n         1 1YJ     -0.498900
     21 CA         -2.8840    9.0300    4.1550 c3        1 1YJ     -0.032300
     22 C          -4.2420    9.6710    4.6100 c         1 1YJ      0.917600
     23 OX2        -4.3540   10.9200    4.4630 o         1 1YJ     -0.848300
     24 OX1        -5.1450    8.9260    5.0860 o         1 1YJ     -0.848300
     25 CB         -3.0280    8.6170    2.6770 c3        1 1YJ     -0.082400
     26 CG         -1.7010    8.3920    1.9880 c3        1 1YJ     -0.171400
     27 CD         -1.6660    7.2100    1.0370 c         1 1YJ      0.906600
     28 OE1        -2.3610    6.1600    1.2380 o         1 1YJ     -0.894800
     29 OE2        -0.8740    7.2380    0.0380 o         1 1YJ     -0.894800
     30 O11        -0.2500    8.2360    5.1110 o         1 1YJ     -0.662100
     31 O4         -2.9200    2.1960    3.0680 o         1 1YJ     -0.692500
     32 N2         -0.5200    4.4510   -0.2680 nh        1 1YJ     -0.870800
     33 H3          2.7070    0.3380    3.9230 h1        1 1YJ      0.032200
     34 H4          1.7000   -0.8840    3.0220 h1        1 1YJ      0.032200
     35 H5          0.4880   -0.5900    4.9930 h1        1 1YJ      0.046700
     36 H6         -1.4490    0.7040    4.3390 hn        1 1YJ      0.376800
     37 H8          1.4550    2.3360    4.8150 h1        1 1YJ      0.045700
     38 H9          1.5440    4.1180    6.7680 ha        1 1YJ      0.133500
     39 H10         0.9520    6.4990    6.3320 ha        1 1YJ      0.155000
     40 H11        -2.9530    5.2680    4.9230 ha        1 1YJ      0.155000
     41 H12        -2.3930    2.9310    5.3460 ha        1 1YJ      0.133500
     42 H13        -3.2890    7.2920    5.1810 hn        1 1YJ      0.314500
     43 H14        -2.0770    9.8120    4.2430 h1        1 1YJ      0.066700
     44 H16        -3.6570    7.6910    2.5990 hc        1 1YJ      0.053200
     45 H17        -3.5860    9.4430    2.1630 hc        1 1YJ      0.053200
     46 H18        -0.8930    8.2070    2.7460 hc        1 1YJ      0.041200
     47 H19        -1.4070    9.3110    1.4180 hc        1 1YJ      0.041200
     48 H21        -1.1990    5.2130   -0.1980 hn        1 1YJ      0.457300
     49 H22         0.3840    4.7780   -0.5350 hn        1 1YJ      0.457300
     50 H23        -2.4400    4.0570    1.4310 hn        1 1YJ      0.396500
     51 H1          2.5420    1.4980    2.0150 hn        1 1YJ      0.400800
     52 H2          1.8180    1.0460    6.0460 h1        1 1YJ      0.045700
     53 H7         -0.8270    1.3980    6.3080 hn        1 1YJ      0.364800
@<TRIPOS>BOND
     1    1    2 1   
     2    1    6 1   
     3    1   50 1   
     4    2    3 2   
     5    2   32 1   
     6    3    4 1   
     7    4    5 2   
     8    4    7 1   
     9    5    6 1   
    10    5   10 1   
    11    6   31 2   
    12    7    8 1   
    13    7   51 1   
    14    8    9 1   
    15    8   33 1   
    16    8   34 1   
    17    9   10 1   
    18    9   11 1   
    19    9   35 1   
    20   10   36 1   
    21   11   12 1   
    22   11   37 1   
    23   11   52 1   
    24   12   13 1   
    25   12   53 1   
    26   13   14 ar  
    27   13   18 ar  
    28   14   15 ar  
    29   14   38 1   
    30   15   16 ar  
    31   15   39 1   
    32   16   17 ar  
    33   16   19 1   
    34   17   18 ar  
    35   17   40 1   
    36   18   41 1   
    37   19   20 1   
    38   19   30 2   
    39   20   21 1   
    40   20   42 1   
    41   21   22 1   
    42   21   25 1   
    43   21   43 1   
    44   22   23 1   
    45   22   24 1   
    46   25   26 1   
    47   25   44 1   
    48   25   45 1   
    49   26   27 1   
    50   26   46 1   
    51   26   47 1   
    52   27   28 1   
    53   27   29 1   
    54   32   48 1   
    55   32   49 1   
@<TRIPOS>SUBSTRUCTURE
     1 1YJ         1 TEMP              0 ****  ****    0 ROOT
