@<TRIPOS>MOLECULE
1YJ
   55    57     1     0     0
SMALL
bcc


@<TRIPOS>ATOM
      1 N3         -1.2320    3.7720    1.6650 ns        1 1YJ     -0.456400
      2 C2          0.1520    3.9080    1.5510 cc        1 1YJ      0.531800
      3 N1          1.0650    3.0110    1.9120 nd        1 1YJ     -0.591300
      4 C8A         0.6100    1.8650    2.5760 cd        1 1YJ      0.275600
      5 C4A        -0.7500    1.7120    2.9080 cc        1 1YJ     -0.027200
      6 C4         -1.7460    2.6640    2.3720 c         1 1YJ      0.703700
      7 N8          1.5520    0.8580    2.8780 nu        1 1YJ     -0.692000
      8 C7          1.0810   -0.2550    3.6730 c3        1 1YJ      0.182800
      9 C6         -0.1920    0.0150    4.5240 c3        1 1YJ      0.135500
     10 N5         -1.1940    0.6600    3.7050 nu        1 1YJ     -0.694000
     11 C9          0.2440    0.7280    5.8430 c3        1 1YJ      0.157800
     12 N10        -0.6750    1.6460    6.4560 nu        1 1YJ     -0.724600
     13 C4'        -0.7100    2.9780    5.9950 ca        1 1YJ      0.145600
     14 C3'         0.4790    3.7060    5.7590 ca        1 1YJ     -0.190000
     15 C2'         0.4250    4.9790    5.2070 ca        1 1YJ     -0.060000
     16 C1'        -0.8060    5.5680    4.8940 ca        1 1YJ     -0.184600
     17 C6'        -1.9880    4.9190    5.2640 ca        1 1YJ     -0.060000
     18 C5'        -1.9470    3.6380    5.8030 ca        1 1YJ     -0.190000
     19 C11        -0.8140    6.8240    4.0880 c         1 1YJ      0.676700
     20 N          -1.8320    7.7110    4.2630 ns        1 1YJ     -0.487900
     21 CA         -1.8420    9.0370    3.6730 c3        1 1YJ     -0.105300
     22 C          -2.1830   10.1480    4.7700 c         1 1YJ      0.925600
     23 OX2        -2.0000   11.3270    4.3930 o         1 1YJ     -0.793300
     24 OX1        -2.6120    9.7430    5.8800 o         1 1YJ     -0.793300
     25 CB         -2.8840    9.2060    2.5650 c3        1 1YJ     -0.087400
     26 CG         -2.4860    8.6350    1.2230 c3        1 1YJ     -0.169400
     27 CD         -2.3870    7.1490    1.1590 c         1 1YJ      0.689100
     28 OE1        -1.6030    6.4940    0.4440 o         1 1YJ     -0.656000
     29 OE2        -3.1870    6.3210    1.8810 oh        1 1YJ     -0.599100
     30 O11         0.0590    6.9680    3.1780 o         1 1YJ     -0.754100
     31 O4         -2.9760    2.5570    2.4970 o         1 1YJ     -0.589500
     32 N2          0.6650    5.1920    0.9940 nz        1 1YJ     -0.799600
     33 H3          0.8460   -1.0900    2.9500 h1        1 1YJ      0.071200
     34 H4          1.9020   -0.6040    4.3590 h1        1 1YJ      0.071200
     35 H5         -0.6320   -0.9870    4.8120 h1        1 1YJ      0.081700
     36 H6         -2.0950    0.7890    4.1150 hn        1 1YJ      0.437800
     37 H8          0.4350   -0.0900    6.5970 h1        1 1YJ      0.064700
     38 H9          1.4600    3.2750    6.0120 ha        1 1YJ      0.141500
     39 H10         1.3550    5.5320    4.9970 ha        1 1YJ      0.151500
     40 H11        -2.9670    5.3960    5.1000 ha        1 1YJ      0.151500
     41 H12        -2.8930    3.1400    6.0670 ha        1 1YJ      0.141500
     42 H13        -3.7550    6.8300    2.4820 ho        1 1YJ      0.467000
     43 H14        -0.8210    9.2770    3.2630 h1        1 1YJ      0.076700
     44 H16        -3.8790    8.8050    2.8890 hc        1 1YJ      0.076700
     45 H17        -3.0070   10.3210    2.4360 hc        1 1YJ      0.076700
     46 H18        -1.4900    9.0590    0.9180 hc        1 1YJ      0.089200
     47 H19        -3.2400    8.9440    0.4450 hc        1 1YJ      0.089200
     48 H21         0.3040    5.3220    0.0410 hn        1 1YJ      0.492800
     49 H22         0.3010    5.9790    1.5860 hn        1 1YJ      0.492800
     50 H23        -1.8630    4.5060    1.3770 hn        1 1YJ      0.389500
     51 H1          2.4520    1.2060    3.1440 hn        1 1YJ      0.414800
     52 H2          1.2210    1.2580    5.6650 h1        1 1YJ      0.064700
     53 H7         -1.5840    1.2590    6.6060 hn        1 1YJ      0.399800
     54 HN3        -2.3200    7.6870    5.1470 hn        1 1YJ      0.347500
     55 H231        1.6880    5.2020    0.9990 hn        1 1YJ      0.492800
@<TRIPOS>BOND
     1    1    2 1   
     2    1    6 1   
     3    1   50 1   
     4    2    3 2   
     5    2   32 1   
     6    3    4 1   
     7    4    5 2   
     8    4    7 1   
     9    5    6 1   
    10    5   10 1   
    11    6   31 2   
    12    7    8 1   
    13    7   51 1   
    14    8    9 1   
    15    8   33 1   
    16    8   34 1   
    17    9   10 1   
    18    9   11 1   
    19    9   35 1   
    20   10   36 1   
    21   11   12 1   
    22   11   37 1   
    23   11   52 1   
    24   12   13 1   
    25   12   53 1   
    26   13   14 ar  
    27   13   18 ar  
    28   14   15 ar  
    29   14   38 1   
    30   15   16 ar  
    31   15   39 1   
    32   16   17 ar  
    33   16   19 1   
    34   17   18 ar  
    35   17   40 1   
    36   18   41 1   
    37   19   20 1   
    38   19   30 2   
    39   20   21 1   
    40   20   54 1   
    41   21   22 1   
    42   21   25 1   
    43   21   43 1   
    44   22   23 1   
    45   22   24 1   
    46   25   26 1   
    47   25   44 1   
    48   25   45 1   
    49   26   27 1   
    50   26   46 1   
    51   26   47 1   
    52   27   28 2   
    53   27   29 1   
    54   29   42 1   
    55   32   48 1   
    56   32   49 1   
    57   32   55 1   
@<TRIPOS>SUBSTRUCTURE
     1 1YJ         1 TEMP              0 ****  ****    0 ROOT
