@<TRIPOS>MOLECULE
1YJ
   53    55     1     0     0
SMALL
bcc


@<TRIPOS>ATOM
      1 N3          1.8050   -2.0790    0.4030 n         1 1YJ     -0.465400
      2 C2          2.1880   -2.2290   -0.9420 cc        1 1YJ      0.718800
      3 N1          3.2120   -1.5200   -1.5090 nd        1 1YJ     -0.763300
      4 C8A         3.8960   -0.6250   -0.7060 cd        1 1YJ      0.389600
      5 C4A         3.5810   -0.4260    0.6510 cc        1 1YJ     -0.238200
      6 C4          2.4820   -1.1870    1.2440 c         1 1YJ      0.718700
      7 N8          4.9670    0.0930   -1.2920 nh        1 1YJ     -0.720000
      8 C7          5.4980    1.2260   -0.5720 c3        1 1YJ      0.203800
      9 C6          4.7240    1.6710    0.6990 c3        1 1YJ      0.127500
     10 N5          4.2980    0.5030    1.4560 nh        1 1YJ     -0.641000
     11 C9          3.6470    2.6990    0.2580 c3        1 1YJ      0.135800
     12 N10         2.6560    3.0800    1.2440 nh        1 1YJ     -0.709600
     13 C4'         1.3260    2.6650    0.9330 ca        1 1YJ      0.083600
     14 C3'         0.6460    3.2620   -0.1500 ca        1 1YJ     -0.171500
     15 C2'        -0.6380    2.8480   -0.4830 ca        1 1YJ     -0.076500
     16 C1'        -1.2790    1.8330    0.2390 ca        1 1YJ     -0.135600
     17 C6'        -0.6260    1.2690    1.3380 ca        1 1YJ     -0.076500
     18 C5'         0.6580    1.6810    1.6870 ca        1 1YJ     -0.171500
     19 C11        -2.5860    1.3110   -0.2890 c         1 1YJ      0.661700
     20 N          -3.3870    0.5850    0.5470 n         1 1YJ     -0.498900
     21 CA         -4.3520   -0.3970    0.0920 c3        1 1YJ     -0.032300
     22 C          -5.4990   -0.5740    1.1480 c         1 1YJ      0.917600
     23 OX2        -6.6520   -0.8140    0.6940 o         1 1YJ     -0.848300
     24 OX1        -5.2240   -0.4790    2.3770 o         1 1YJ     -0.848300
     25 CB         -3.7220   -1.7810   -0.1590 c3        1 1YJ     -0.082400
     26 CG         -2.9190   -1.8490   -1.4380 c3        1 1YJ     -0.171400
     27 CD         -1.6300   -2.6430   -1.3430 c         1 1YJ      0.906600
     28 OE1        -0.9470   -2.6980   -0.2670 o         1 1YJ     -0.894800
     29 OE2        -1.1790   -3.2250   -2.3840 o         1 1YJ     -0.894800
     30 O11        -2.9140    1.5980   -1.4680 o         1 1YJ     -0.662100
     31 O4          2.1220   -1.0760    2.4400 o         1 1YJ     -0.692500
     32 N2          1.5600   -3.2250   -1.6880 nh        1 1YJ     -0.870800
     33 H3          6.5420    0.9380   -0.2510 h1        1 1YJ      0.032200
     34 H4          5.5840    2.1150   -1.2600 h1        1 1YJ      0.032200
     35 H5          5.4540    2.2160    1.3680 h1        1 1YJ      0.046700
     36 H6          3.7360    0.7590    2.2520 hn        1 1YJ      0.376800
     37 H8          4.1960    3.6440   -0.0210 h1        1 1YJ      0.045700
     38 H9          1.1390    4.0420   -0.7470 ha        1 1YJ      0.133500
     39 H10        -1.1580    3.2880   -1.3500 ha        1 1YJ      0.155000
     40 H11        -1.0840    0.4520    1.9200 ha        1 1YJ      0.155000
     41 H12         1.1640    1.1780    2.5290 ha        1 1YJ      0.133500
     42 H13        -3.1070    0.4510    1.4950 hn        1 1YJ      0.314500
     43 H14        -4.8090   -0.0210   -0.8670 h1        1 1YJ      0.066700
     44 H16        -3.0730   -2.0670    0.7110 hc        1 1YJ      0.053200
     45 H17        -4.5660   -2.5180   -0.2010 hc        1 1YJ      0.053200
     46 H18        -3.5440   -2.2890   -2.2570 hc        1 1YJ      0.041200
     47 H19        -2.6270   -0.8160   -1.7720 hc        1 1YJ      0.041200
     48 H21         0.6140   -3.4780   -1.3920 hn        1 1YJ      0.457300
     49 H22         1.6250   -3.1100   -2.6770 hn        1 1YJ      0.457300
     50 H23         0.9150   -2.4550    0.7040 hn        1 1YJ      0.396500
     51 H1          4.8530    0.2570   -2.2710 hn        1 1YJ      0.400800
     52 H2          3.1400    2.3140   -0.6720 h1        1 1YJ      0.045700
     53 H7          2.9120    2.7740    2.1650 hn        1 1YJ      0.364800
@<TRIPOS>BOND
     1    1    2 1   
     2    1    6 1   
     3    1   50 1   
     4    2    3 2   
     5    2   32 1   
     6    3    4 1   
     7    4    5 2   
     8    4    7 1   
     9    5    6 1   
    10    5   10 1   
    11    6   31 2   
    12    7    8 1   
    13    7   51 1   
    14    8    9 1   
    15    8   33 1   
    16    8   34 1   
    17    9   10 1   
    18    9   11 1   
    19    9   35 1   
    20   10   36 1   
    21   11   12 1   
    22   11   37 1   
    23   11   52 1   
    24   12   13 1   
    25   12   53 1   
    26   13   14 ar  
    27   13   18 ar  
    28   14   15 ar  
    29   14   38 1   
    30   15   16 ar  
    31   15   39 1   
    32   16   17 ar  
    33   16   19 1   
    34   17   18 ar  
    35   17   40 1   
    36   18   41 1   
    37   19   20 1   
    38   19   30 2   
    39   20   21 1   
    40   20   42 1   
    41   21   22 1   
    42   21   25 1   
    43   21   43 1   
    44   22   23 1   
    45   22   24 1   
    46   25   26 1   
    47   25   44 1   
    48   25   45 1   
    49   26   27 1   
    50   26   46 1   
    51   26   47 1   
    52   27   28 1   
    53   27   29 1   
    54   32   48 1   
    55   32   49 1   
@<TRIPOS>SUBSTRUCTURE
     1 1YJ         1 TEMP              0 ****  ****    0 ROOT
