@<TRIPOS>MOLECULE
1YJ
   53    50     1     0     0
SMALL
bcc


@<TRIPOS>ATOM
      1 N3          2.8830   -4.9370    3.3310 n         1 1YJ     -0.326000
      2 C2          1.7010   -4.7500    4.3810 c2        1 1YJ      0.189000
      3 N1          0.3050   -4.3850    3.9030 n1        1 1YJ     -0.251000
      4 C8A        -0.0190   -4.4940    2.5240 c1        1 1YJ      0.108000
      5 C4A         1.2380   -4.9150    1.3850 c1        1 1YJ     -0.185000
      6 C4          2.5730   -5.1460    1.8710 c2        1 1YJ      0.349000
      7 N8         -0.3250   -4.7010    2.4530 n2        1 1YJ     -0.266000
      8 C7         -0.8190   -4.6060    1.0050 c3        1 1YJ     -0.048000
      9 C6          0.4030   -4.6880   -0.1430 c3        1 1YJ     -0.048000
     10 N5          0.7050   -5.0170   -0.0690 n2        1 1YJ     -0.212000
     11 C9          1.3520   -2.9940   -0.1340 c3        1 1YJ     -0.104000
     12 N10         1.1510   -2.3290   -1.3870 n3        1 1YJ     -0.258000
     13 C4'         0.9650   -0.8900   -1.4240 c2        1 1YJ     -0.004000
     14 C3'         2.0740   -0.0430   -1.4160 c2        1 1YJ     -0.162000
     15 C2'         1.8990    1.3360   -1.5250 c1        1 1YJ     -0.077000
     16 C1'         0.6070    1.8730   -1.6440 c1        1 1YJ     -0.100000
     17 C6'        -0.4970    1.0300   -1.6530 c1        1 1YJ     -0.081000
     18 C5'        -0.3220   -0.3550   -1.5430 c1        1 1YJ     -0.184000
     19 C11         0.4140    3.3950   -1.7650 c2        1 1YJ      0.324000
     20 N          -0.9280    3.9560   -1.8890 n         1 1YJ     -0.287000
     21 CA         -1.1570    5.3580   -1.5870 c3        1 1YJ     -0.072000
     22 C          -0.9440    5.5970   -0.1080 c2        1 1YJ      0.322000
     23 OX2        -1.5770    4.9200    0.7310 o         1 1YJ     -0.587000
     24 OX1        -0.0730    6.4220    0.2770 o         1 1YJ     -0.587000
     25 CB         -2.5600    5.7310   -1.9560 c3        1 1YJ     -0.132000
     26 CG         -2.6740    7.3030   -2.0600 c3        1 1YJ     -0.211000
     27 CD         -4.1380    7.7210   -1.9170 c2        1 1YJ      0.324000
     28 OE1        -4.5400    8.2770   -0.8330 o         1 1YJ     -0.609500
     29 OE2        -4.9100    7.6410   -2.9050 o         1 1YJ     -0.609500
     30 O11         1.3920    4.1410   -1.7580 o         1 1YJ     -0.415000
     31 O4          3.4000   -5.6390    1.1460 o         1 1YJ     -0.362000
     32 N2          1.9430   -4.9760    5.7780 n3        1 1YJ     -0.312000
     33 H3         -1.4390   -5.3350    0.8430 h1        1 1YJ      0.095500
     34 H4         -1.2980   -3.7550    0.8920 h1        1 1YJ      0.095500
     35 H5         -0.0040   -4.8220   -1.0340 h1        1 1YJ      0.108000
     36 H6          1.3450   -5.1250   -0.6940 hn        1 1YJ      0.212000
     37 H8          2.3270   -3.1610    0.0010 h1        1 1YJ      0.084500
     38 H9          2.9880   -0.4200   -1.2820 ha        1 1YJ      0.120000
     39 H10         2.6750    1.9290   -1.5190 ha        1 1YJ      0.150000
     40 H11        -1.3880    1.4010   -1.7350 ha        1 1YJ      0.164000
     41 H12        -1.1090   -0.9560   -1.5490 ha        1 1YJ      0.119000
     42 H13        -1.6480    3.4030   -2.1280 hn        1 1YJ      0.227000
     43 H14        -0.5360    5.9010   -2.0940 h1        1 1YJ      0.109000
     44 H16        -3.1820    5.4010   -1.2650 hc        1 1YJ      0.090000
     45 H17        -2.7890    5.3260   -2.8250 hc        1 1YJ      0.090000
     46 H18        -2.3280    7.6010   -2.9390 hc        1 1YJ      0.058000
     47 H19        -2.1510    7.7130   -1.3510 hc        1 1YJ      0.058000
     48 H21         2.7770   -5.2720    6.0630 hn        1 1YJ      0.194000
     49 H22         1.2920   -4.7750    6.3940 hn        1 1YJ      0.194000
     50 H23         3.7250   -4.9580    3.6120 hn        1 1YJ      0.248000
     51 H1         -0.9750   -4.6970    3.1150 hn        1 1YJ      0.209000
     52 H2          1.0060   -2.4210    0.6070 h1        1 1YJ      0.084500
     53 H7          1.1870   -2.8140   -2.1820 hn        1 1YJ      0.157000
@<TRIPOS>BOND
     1    1    2 1   
     2    1    6 1   
     3    1   50 1   
     4    2    3 1   
     5    2   32 1   
     6    4    5 1   
     7    5    6 1   
     8    6   31 1   
     9    7    8 1   
    10    7   51 1   
    11    8    9 1   
    12    8   33 1   
    13    8   34 1   
    14    9   10 1   
    15    9   11 1   
    16    9   35 1   
    17   10   36 1   
    18   11   12 1   
    19   11   37 1   
    20   11   52 1   
    21   12   13 1   
    22   12   53 1   
    23   13   14 1   
    24   13   18 1   
    25   14   15 1   
    26   14   38 1   
    27   15   39 1   
    28   16   17 1   
    29   16   19 1   
    30   17   40 1   
    31   18   41 1   
    32   19   20 1   
    33   19   30 1   
    34   20   21 1   
    35   20   42 1   
    36   21   22 1   
    37   21   25 1   
    38   21   43 1   
    39   22   23 1   
    40   22   24 1   
    41   25   26 1   
    42   25   44 1   
    43   25   45 1   
    44   26   27 1   
    45   26   46 1   
    46   26   47 1   
    47   27   28 1   
    48   27   29 1   
    49   32   48 1   
    50   32   49 1   
@<TRIPOS>SUBSTRUCTURE
     1 1YJ         1 TEMP              0 ****  ****    0 ROOT
