@<TRIPOS>MOLECULE
1YK
   72    76     1     0     0
SMALL
bcc


@<TRIPOS>ATOM
      1 C26         1.7920    0.4030   -0.1160 c3        1 1YK     -0.119100
      2 C14         0.2910    0.1520   -0.0230 c3        1 1YK      0.166800
      3 C15        -0.1570    0.0560    1.4370 c3        1 1YK     -0.079400
      4 C16        -0.2180    1.4190    2.0900 c3        1 1YK     -0.104400
      5 C17        -1.1340    2.4030    1.3560 c3        1 1YK      0.189800
      6 C18        -0.6900    2.5530   -0.1410 c3        1 1YK     -0.180000
      7 C13        -0.6140    1.1510   -0.8070 c3        1 1YK      0.157800
      8 C12        -0.1660    1.1770   -2.2800 c3        1 1YK     -0.042200
      9 C11        -0.0170   -0.2150   -2.7720 cc        1 1YK     -0.321400
     10 C10         0.0590   -1.2860   -1.9180 cd        1 1YK      0.243100
     11 C9          0.1250   -2.6280   -2.4330 cd        1 1YK     -0.254000
     12 C8          0.1180   -2.8120   -3.7840 cc        1 1YK      0.213900
     13 O6          0.0820   -1.7650   -4.6740 os        1 1YK     -0.333200
     14 C7          0.0140   -0.4470   -4.1960 c         1 1YK      0.744800
     15 O7         -0.0000    0.3430   -5.1400 o         1 1YK     -0.581500
     16 C1          0.1700   -4.1150   -4.4530 ca        1 1YK     -0.022800
     17 C6          0.6640   -4.2050   -5.7580 ca        1 1YK     -0.188000
     18 C5          0.7300   -5.4510   -6.3930 ca        1 1YK      0.127600
     19 C4          0.2780   -6.6150   -5.7340 ca        1 1YK      0.066100
     20 C3         -0.2100   -6.5040   -4.4130 ca        1 1YK      0.127600
     21 C2         -0.2680   -5.2600   -3.7760 ca        1 1YK     -0.188000
     22 O3         -0.5850   -7.6920   -3.8190 os        1 1YK     -0.312900
     23 C27        -1.3090   -7.5820   -2.5970 c3        1 1YK      0.110200
     24 O4          0.2180   -7.8040   -6.4330 os        1 1YK     -0.309900
     25 C28         1.1610   -8.7840   -5.9930 c3        1 1YK      0.115700
     26 O5          1.2340   -5.6460   -7.6600 os        1 1YK     -0.312900
     27 C29         1.4620   -4.4690   -8.4300 c3        1 1YK      0.110200
     28 O8          0.0590   -1.1880   -0.5530 os        1 1YK     -0.302900
     29 O9         -1.9090    0.5440   -0.7480 oh        1 1YK     -0.613800
     30 C19        -1.7580    3.4330   -0.7950 c         1 1YK      0.595300
     31 O1         -2.3750    3.1150   -1.8160 o         1 1YK     -0.540100
     32 C20        -1.9750    4.7120   -0.0980 ce        1 1YK     -0.247200
     33 C21        -1.7080    4.8620    1.2030 c2        1 1YK     -0.082200
     34 C22        -1.2180    3.7730    2.1110 c3        1 1YK     -0.019800
     35 C24        -2.2340    3.6610    3.2560 c3        1 1YK     -0.085100
     36 C23         0.1080    4.1880    2.7380 c3        1 1YK     -0.085100
     37 C25         0.6280    3.2990   -0.2930 c3        1 1YK     -0.096100
     38 O2         -2.4820    1.9330    1.3840 oh        1 1YK     -0.609800
     39 H1          2.3240   -0.5810   -0.1520 hc        1 1YK      0.054700
     40 H2          2.1570    0.9530    0.7840 hc        1 1YK      0.054700
     41 H3          2.0640    0.9820   -1.0280 hc        1 1YK      0.054700
     42 H4         -1.1590   -0.4500    1.4690 hc        1 1YK      0.067700
     43 H5          0.5630   -0.5970    1.9960 hc        1 1YK      0.067700
     44 H6         -0.6040    1.2950    3.1380 hc        1 1YK      0.059700
     45 H7          0.8150    1.8490    2.1550 hc        1 1YK      0.059700
     46 H8          0.8030    1.7240   -2.4100 hc        1 1YK      0.082200
     47 H9         -0.9360    1.7180   -2.8980 hc        1 1YK      0.082200
     48 H10         0.1780   -3.4650   -1.7260 ha        1 1YK      0.170000
     49 H11         0.9900   -3.2890   -6.2750 ha        1 1YK      0.156500
     50 H12        -0.6700   -5.1750   -2.7560 ha        1 1YK      0.156500
     51 H13        -0.6470   -7.1890   -1.7870 h1        1 1YK      0.048367
     52 H14        -1.6100   -8.6390   -2.3810 h1        1 1YK      0.048367
     53 H15        -2.2080   -6.9330   -2.7220 h1        1 1YK      0.048367
     54 H16         2.2040   -8.4120   -6.1410 h1        1 1YK      0.044033
     55 H17         0.9530   -9.6600   -6.6560 h1        1 1YK      0.044033
     56 H18         0.9830   -9.0420   -4.9210 h1        1 1YK      0.044033
     57 H19         2.3030   -3.8760   -7.9940 h1        1 1YK      0.048367
     58 H20         0.5360   -3.8490   -8.4970 h1        1 1YK      0.048367
     59 H21         1.7440   -4.8720   -9.4360 h1        1 1YK      0.048367
     60 H22        -2.4770    1.0030   -1.3830 ho        1 1YK      0.440000
     61 H23        -2.3900    5.5270   -0.7120 ha        1 1YK      0.155000
     62 H24        -1.8800    5.8290    1.7060 ha        1 1YK      0.133000
     63 H25        -3.2660    3.5240    2.8500 hc        1 1YK      0.043867
     64 H26        -1.9880    2.7830    3.8990 hc        1 1YK      0.043867
     65 H27        -2.2080    4.5880    3.8770 hc        1 1YK      0.043867
     66 H28         0.9580    4.1310    2.0210 hc        1 1YK      0.043867
     67 H29         0.0320    5.2410    3.1080 hc        1 1YK      0.043867
     68 H30         0.3390    3.5300    3.6120 hc        1 1YK      0.043867
     69 H31         1.4380    2.8150    0.3010 hc        1 1YK      0.050700
     70 H32         0.9410    3.3360   -1.3640 hc        1 1YK      0.050700
     71 H33         0.5190    4.3570    0.0540 hc        1 1YK      0.050700
     72 H34        -2.4950    1.0050    1.1160 ho        1 1YK      0.431000
@<TRIPOS>BOND
     1    1    2 1   
     2    1   39 1   
     3    1   40 1   
     4    1   41 1   
     5    2    3 1   
     6    2    7 1   
     7    2   28 1   
     8    3    4 1   
     9    3   42 1   
    10    3   43 1   
    11    4    5 1   
    12    4   44 1   
    13    4   45 1   
    14    5    6 1   
    15    5   34 1   
    16    5   38 1   
    17    6    7 1   
    18    6   30 1   
    19    6   37 1   
    20    7    8 1   
    21    7   29 1   
    22    8    9 1   
    23    8   46 1   
    24    8   47 1   
    25    9   10 2   
    26    9   14 1   
    27   10   11 1   
    28   10   28 1   
    29   11   12 2   
    30   11   48 1   
    31   12   13 1   
    32   12   16 1   
    33   13   14 1   
    34   14   15 2   
    35   16   17 ar  
    36   16   21 ar  
    37   17   18 ar  
    38   17   49 1   
    39   18   19 ar  
    40   18   26 1   
    41   19   20 ar  
    42   19   24 1   
    43   20   21 ar  
    44   20   22 1   
    45   21   50 1   
    46   22   23 1   
    47   23   51 1   
    48   23   52 1   
    49   23   53 1   
    50   24   25 1   
    51   25   54 1   
    52   25   55 1   
    53   25   56 1   
    54   26   27 1   
    55   27   57 1   
    56   27   58 1   
    57   27   59 1   
    58   29   60 1   
    59   30   31 2   
    60   30   32 1   
    61   32   33 2   
    62   32   61 1   
    63   33   34 1   
    64   33   62 1   
    65   34   35 1   
    66   34   36 1   
    67   35   63 1   
    68   35   64 1   
    69   35   65 1   
    70   36   66 1   
    71   36   67 1   
    72   36   68 1   
    73   37   69 1   
    74   37   70 1   
    75   37   71 1   
    76   38   72 1   
@<TRIPOS>SUBSTRUCTURE
     1 1YK         1 TEMP              0 ****  ****    0 ROOT
