@<TRIPOS>MOLECULE
1YK
   72    76     1     0     0
SMALL
bcc


@<TRIPOS>ATOM
      1 C26         2.0650    0.5530    2.3270 c3        1 1YK     -0.116100
      2 C14         2.1870    0.9460    0.8610 c3        1 1YK      0.128800
      3 C15         3.0260    2.2150    0.7020 c3        1 1YK     -0.075400
      4 C16         4.5000    1.9260    0.8760 c3        1 1YK     -0.106400
      5 C17         5.0270    0.8690   -0.1020 c3        1 1YK      0.190800
      6 C18         4.2070   -0.4600    0.0390 c3        1 1YK     -0.144000
      7 C13         2.6870   -0.1680   -0.1100 c3        1 1YK      0.163800
      8 C12         1.7810   -1.4030    0.0420 c3        1 1YK     -0.052200
      9 C11         0.3550   -0.9910    0.0800 cc        1 1YK     -0.320400
     10 C10        -0.0310    0.3120    0.2590 cd        1 1YK      0.214100
     11 C9         -1.4210    0.6780    0.2350 cd        1 1YK     -0.258000
     12 C8         -2.3520   -0.3010    0.0450 cc        1 1YK      0.218900
     13 O6         -2.0130   -1.6250   -0.0990 os        1 1YK     -0.332200
     14 C7         -0.6610   -2.0070   -0.0770 c         1 1YK      0.742800
     15 O7         -0.5660   -3.2270   -0.2000 o         1 1YK     -0.570500
     16 C1         -3.8000   -0.0840   -0.0080 ca        1 1YK     -0.026800
     17 C6         -4.6690   -1.1390    0.2880 ca        1 1YK     -0.187000
     18 C5         -6.0530   -0.9290    0.2540 ca        1 1YK      0.128100
     19 C4         -6.5780    0.3330   -0.1020 ca        1 1YK      0.068100
     20 C3         -5.6830    1.3860   -0.3890 ca        1 1YK      0.128100
     21 C2         -4.3000    1.1800   -0.3460 ca        1 1YK     -0.187000
     22 O3         -6.2720    2.6010   -0.6780 os        1 1YK     -0.311900
     23 C27        -5.4130    3.6060   -1.2070 c3        1 1YK      0.109700
     24 O4         -7.9410    0.4700   -0.2700 os        1 1YK     -0.308900
     25 C28        -8.5690    1.2890    0.7200 c3        1 1YK      0.114700
     26 O5         -6.9870   -1.8930    0.5640 os        1 1YK     -0.311900
     27 C29        -6.4960   -3.2250    0.6860 c3        1 1YK      0.109700
     28 O8          0.8520    1.3490    0.4160 os        1 1YK     -0.320900
     29 O9          2.5440    0.3340   -1.4420 oh        1 1YK     -0.596800
     30 C19         4.7100   -1.3990   -1.0610 c         1 1YK      0.595300
     31 O1          3.9730   -2.0290   -1.8210 o         1 1YK     -0.513100
     32 C20         6.1770   -1.5420   -1.0840 ce        1 1YK     -0.244200
     33 C21         7.0000   -0.6380   -0.5450 c2        1 1YK     -0.089200
     34 C22         6.5700    0.6600    0.0690 c3        1 1YK     -0.017800
     35 C24         7.3220    1.7700   -0.6820 c3        1 1YK     -0.084600
     36 C23         7.0300    0.7300    1.5210 c3        1 1YK     -0.084600
     37 C25         4.4860   -1.1780    1.3530 c3        1 1YK     -0.099100
     38 O2          4.9250    1.3570   -1.4390 oh        1 1YK     -0.600800
     39 H1          1.1640    1.0500    2.7680 hc        1 1YK      0.054700
     40 H2          1.9550   -0.5500    2.4520 hc        1 1YK      0.054700
     41 H3          2.9580    0.8940    2.9050 hc        1 1YK      0.054700
     42 H4          2.8240    2.6520   -0.3120 hc        1 1YK      0.064200
     43 H5          2.6960    2.9690    1.4620 hc        1 1YK      0.064200
     44 H6          5.0710    2.8780    0.7060 hc        1 1YK      0.059200
     45 H7          4.6970    1.5940    1.9270 hc        1 1YK      0.059200
     46 H8          1.9560   -2.0870   -0.8370 hc        1 1YK      0.093200
     47 H9          2.0190   -1.9840    0.9690 hc        1 1YK      0.093200
     48 H10        -1.6940    1.7310    0.3760 ha        1 1YK      0.172000
     49 H11        -4.2530   -2.1270    0.5400 ha        1 1YK      0.156000
     50 H12        -3.6080    1.9980   -0.5920 ha        1 1YK      0.156000
     51 H13        -6.1200    4.4320   -1.4760 h1        1 1YK      0.048700
     52 H14        -4.6880    3.9470   -0.4290 h1        1 1YK      0.048700
     53 H15        -4.8750    3.2360   -2.1120 h1        1 1YK      0.048700
     54 H16        -8.1460    2.3220    0.6950 h1        1 1YK      0.044367
     55 H17        -9.6440    1.2890    0.4110 h1        1 1YK      0.044367
     56 H18        -8.4470    0.8360    1.7320 h1        1 1YK      0.044367
     57 H19        -5.8390   -3.3160    1.5850 h1        1 1YK      0.048700
     58 H20        -7.4290   -3.8300    0.8160 h1        1 1YK      0.048700
     59 H21        -5.9470   -3.5350   -0.2360 h1        1 1YK      0.048700
     60 H22         1.6060    0.3230   -1.6680 ho        1 1YK      0.420000
     61 H23         6.5530   -2.4500   -1.5820 ha        1 1YK      0.151000
     62 H24         8.0940   -0.7900   -0.5660 ha        1 1YK      0.130000
     63 H25         6.9450    2.7690   -0.3620 hc        1 1YK      0.042867
     64 H26         8.4140    1.7030   -0.4590 hc        1 1YK      0.042867
     65 H27         7.1690    1.6700   -1.7830 hc        1 1YK      0.042867
     66 H28         6.4190    0.0930    2.2000 hc        1 1YK      0.042867
     67 H29         8.0940    0.3930    1.5910 hc        1 1YK      0.042867
     68 H30         6.9750    1.7850    1.8860 hc        1 1YK      0.042867
     69 H31         4.2980   -0.5150    2.2290 hc        1 1YK      0.050367
     70 H32         3.8510   -2.0920    1.4510 hc        1 1YK      0.050367
     71 H33         5.5510   -1.5190    1.3860 hc        1 1YK      0.050367
     72 H34         4.0220    1.6510   -1.6030 ho        1 1YK      0.427000
@<TRIPOS>BOND
     1    1    2 1   
     2    1   39 1   
     3    1   40 1   
     4    1   41 1   
     5    2    3 1   
     6    2    7 1   
     7    2   28 1   
     8    3    4 1   
     9    3   42 1   
    10    3   43 1   
    11    4    5 1   
    12    4   44 1   
    13    4   45 1   
    14    5    6 1   
    15    5   34 1   
    16    5   38 1   
    17    6    7 1   
    18    6   30 1   
    19    6   37 1   
    20    7    8 1   
    21    7   29 1   
    22    8    9 1   
    23    8   46 1   
    24    8   47 1   
    25    9   10 2   
    26    9   14 1   
    27   10   11 1   
    28   10   28 1   
    29   11   12 2   
    30   11   48 1   
    31   12   13 1   
    32   12   16 1   
    33   13   14 1   
    34   14   15 2   
    35   16   17 ar  
    36   16   21 ar  
    37   17   18 ar  
    38   17   49 1   
    39   18   19 ar  
    40   18   26 1   
    41   19   20 ar  
    42   19   24 1   
    43   20   21 ar  
    44   20   22 1   
    45   21   50 1   
    46   22   23 1   
    47   23   51 1   
    48   23   52 1   
    49   23   53 1   
    50   24   25 1   
    51   25   54 1   
    52   25   55 1   
    53   25   56 1   
    54   26   27 1   
    55   27   57 1   
    56   27   58 1   
    57   27   59 1   
    58   29   60 1   
    59   30   31 2   
    60   30   32 1   
    61   32   33 2   
    62   32   61 1   
    63   33   34 1   
    64   33   62 1   
    65   34   35 1   
    66   34   36 1   
    67   35   63 1   
    68   35   64 1   
    69   35   65 1   
    70   36   66 1   
    71   36   67 1   
    72   36   68 1   
    73   37   69 1   
    74   37   70 1   
    75   37   71 1   
    76   38   72 1   
@<TRIPOS>SUBSTRUCTURE
     1 1YK         1 TEMP              0 ****  ****    0 ROOT
