@<TRIPOS>MOLECULE
1YK
   72    69     1     0     0
SMALL
bcc


@<TRIPOS>ATOM
      1 C26         1.7590    1.0410    1.7650 c3        1 1YK     -0.234000
      2 C14         0.1960    1.0950    1.7750 c3        1 1YK      0.056000
      3 C15        -0.3060    1.1300    3.3970 c3        1 1YK     -0.155000
      4 C16         0.0420    2.2030    3.9920 c3        1 1YK     -0.185000
      5 C17        -0.3160    3.2660    3.3170 c3        1 1YK      0.119000
      6 C18         0.2060    3.1950    1.7490 c3        1 1YK     -0.094000
      7 C13        -0.1380    2.0940    1.1610 c3        1 1YK      0.092000
      8 C12         0.1160    2.1390    0.2740 c3        1 1YK     -0.135000
      9 C11        -0.2500    0.8210   -0.5230 c1        1 1YK     -0.297000
     10 C10        -0.1710   -0.3690    0.2380 c1        1 1YK      0.170000
     11 C9         -0.1150   -1.7010   -0.4600 c1        1 1YK     -0.256000
     12 C8         -0.2020   -1.7650   -1.9600 c1        1 1YK      0.161000
     13 O6         -0.2920   -0.5430   -2.7300 o         1 1YK     -0.246000
     14 C7         -0.3670    0.7500   -2.0480 c1        1 1YK      0.358000
     15 O7         -0.5900    1.7650   -2.6870 o         1 1YK     -0.246000
     16 C1         -0.2520   -3.1840   -2.6980 c2        1 1YK     -0.056000
     17 C6          0.9390   -3.7800   -3.1540 c2        1 1YK     -0.090000
     18 C5          0.8870   -4.9500   -3.9240 c1        1 1YK      0.031000
     19 C4         -0.3430   -5.5240   -4.2380 c1        1 1YK      0.025000
     20 C3         -1.5320   -4.9310   -3.7840 c1        1 1YK      0.050000
     21 C2         -1.4820   -3.7590   -3.0130 c2        1 1YK     -0.113000
     22 O3         -2.7690   -5.5400   -4.0500 o         1 1YK     -0.224500
     23 C27        -3.4090   -5.0620   -5.2370 c3        1 1YK     -0.075500
     24 O4         -0.3990   -6.6670   -5.0640 o         1 1YK     -0.224500
     25 C28        -0.3390   -7.8840   -4.3570 c3        1 1YK     -0.075500
     26 O5          2.0640   -5.5540   -4.3510 os        1 1YK     -0.224000
     27 C29         2.5310   -5.0800   -5.6150 c3        1 1YK     -0.079000
     28 O8         -0.3200   -0.2360    1.1730 os        1 1YK     -0.204000
     29 O9         -1.5420    2.0780    1.1530 oh        1 1YK     -0.324000
     30 C19        -0.1980    4.4060    0.8390 c2        1 1YK      0.287000
     31 O1         -0.0070    4.3680   -0.3190 o         1 1YK     -0.274000
     32 C20        -0.5130    5.8540    1.5850 c2        1 1YK     -0.225000
     33 C21        -0.3570    5.9160    3.3640 c1        1 1YK     -0.086000
     34 C22         0.0800    4.5460    4.1280 c2        1 1YK     -0.022000
     35 C24        -0.5650    4.4960    5.5700 c3        1 1YK     -0.202500
     36 C23         1.5880    4.5490    4.4840 c3        1 1YK     -0.202500
     37 C25         1.7030    3.1980    1.8070 c3        1 1YK     -0.217000
     38 O2         -1.7890    3.2550    3.2640 oh        1 1YK     -0.328000
     39 H1          2.0610    0.1030    1.9320 hc        1 1YK      0.094333
     40 H2          2.1050    1.3520    0.8660 hc        1 1YK      0.094333
     41 H3          2.1010    1.6130    2.4530 hc        1 1YK      0.094333
     42 H4         -1.3070    1.0550    3.4280 hc        1 1YK      0.104500
     43 H5          0.1050    0.3220    3.8950 hc        1 1YK      0.104500
     44 H6         -0.3880    2.2290    4.8820 hc        1 1YK      0.098500
     45 H7          0.9970    2.2050    4.1040 hc        1 1YK      0.098500
     46 H8          1.0040    2.4030    0.0620 hc        1 1YK      0.132500
     47 H9         -0.4030    2.9390   -0.1080 hc        1 1YK      0.132500
     48 H10        -0.0550   -2.5200    0.0610 ha        1 1YK      0.175000
     49 H11         1.8340   -3.3640   -2.9240 ha        1 1YK      0.175000
     50 H12        -2.3440   -3.3280   -2.6840 ha        1 1YK      0.157000
     51 H13        -4.3760   -4.9280   -5.0590 h1        1 1YK      0.088500
     52 H14        -2.9970   -4.2000   -5.5120 h1        1 1YK      0.088500
     53 H15        -3.3000   -5.7100   -5.9460 h1        1 1YK      0.088500
     54 H16        -0.1800   -7.7140   -3.4690 h1        1 1YK      0.088500
     55 H17         0.3580   -8.4140   -4.7030 h1        1 1YK      0.088500
     56 H18        -1.2180   -8.3760   -4.4570 h1        1 1YK      0.088500
     57 H19         3.2400   -4.3700   -5.4690 h1        1 1YK      0.087667
     58 H20         2.9250   -5.8440   -6.1330 h1        1 1YK      0.087667
     59 H21         1.7910   -4.6990   -6.1110 h1        1 1YK      0.087667
     60 H22        -1.8400    1.2230    1.3270 ho        1 1YK      0.219000
     61 H23        -1.0110    6.5440    1.1160 ha        1 1YK      0.151000
     62 H24        -0.2720    6.7200    3.7860 ha        1 1YK      0.130000
     63 H25        -0.4560    5.3880    6.0190 hc        1 1YK      0.082167
     64 H26        -0.1150    3.7970    6.1120 hc        1 1YK      0.082167
     65 H27        -1.5210    4.2830    5.4910 hc        1 1YK      0.082167
     66 H28         1.7670    5.2400    5.2010 hc        1 1YK      0.082167
     67 H29         2.1110    4.7660    3.6840 hc        1 1YK      0.082167
     68 H30         1.8520    3.6480    4.8190 hc        1 1YK      0.082167
     69 H31         2.0690    2.6900    1.0300 hc        1 1YK      0.089667
     70 H32         1.9800    2.8000    2.5960 hc        1 1YK      0.089667
     71 H33         2.0200    4.1000    1.7760 hc        1 1YK      0.089667
     72 H34        -2.0800    2.4110    3.1090 ho        1 1YK      0.226000
@<TRIPOS>BOND
     1    1    2 1   
     2    1   39 1   
     3    1   40 1   
     4    1   41 1   
     5    2    3 1   
     6    2    7 1   
     7    2   28 1   
     8    3    4 1   
     9    3   42 1   
    10    3   43 1   
    11    4    5 1   
    12    4   44 1   
    13    4   45 1   
    14    5    6 1   
    15    5   34 1   
    16    5   38 1   
    17    6    7 1   
    18    6   30 1   
    19    6   37 1   
    20    7    8 1   
    21    7   29 1   
    22    8    9 1   
    23    8   46 1   
    24    8   47 1   
    25    9   10 1   
    26   10   28 1   
    27   11   12 1   
    28   11   48 1   
    29   12   16 1   
    30   13   14 1   
    31   14   15 1   
    32   16   17 1   
    33   16   21 1   
    34   17   18 1   
    35   17   49 1   
    36   18   26 1   
    37   19   20 1   
    38   20   21 1   
    39   21   50 1   
    40   22   23 1   
    41   23   51 1   
    42   23   52 1   
    43   23   53 1   
    44   24   25 1   
    45   25   54 1   
    46   25   55 1   
    47   25   56 1   
    48   26   27 1   
    49   27   57 1   
    50   27   58 1   
    51   27   59 1   
    52   29   60 1   
    53   30   31 1   
    54   30   32 1   
    55   32   33 1   
    56   32   61 1   
    57   33   62 1   
    58   34   35 1   
    59   34   36 1   
    60   35   63 1   
    61   35   64 1   
    62   35   65 1   
    63   36   66 1   
    64   36   67 1   
    65   36   68 1   
    66   37   69 1   
    67   37   70 1   
    68   37   71 1   
    69   38   72 1   
@<TRIPOS>SUBSTRUCTURE
     1 1YK         1 TEMP              0 ****  ****    0 ROOT
