@<TRIPOS>MOLECULE
1YK
   72    76     1     0     0
SMALL
bcc


@<TRIPOS>ATOM
      1 C26         1.7900    0.3940   -0.1000 c3        1 1YK     -0.119100
      2 C14         0.2870    0.1480   -0.0170 c3        1 1YK      0.166800
      3 C15        -0.1690    0.0510    1.4400 c3        1 1YK     -0.079400
      4 C16        -0.2300    1.4130    2.0950 c3        1 1YK     -0.104400
      5 C17        -1.1390    2.4010    1.3570 c3        1 1YK      0.189800
      6 C18        -0.6850    2.5510   -0.1370 c3        1 1YK     -0.180000
      7 C13        -0.6100    1.1500   -0.8050 c3        1 1YK      0.157800
      8 C12        -0.1530    1.1770   -2.2760 c3        1 1YK     -0.042200
      9 C11        -0.0060   -0.2150   -2.7680 cc        1 1YK     -0.321400
     10 C10         0.0630   -1.2870   -1.9150 cd        1 1YK      0.243100
     11 C9          0.1270   -2.6290   -2.4320 cd        1 1YK     -0.254000
     12 C8          0.1270   -2.8110   -3.7830 cc        1 1YK      0.213900
     13 O6          0.1000   -1.7630   -4.6720 os        1 1YK     -0.333200
     14 C7          0.0340   -0.4450   -4.1920 c         1 1YK      0.744800
     15 O7          0.0270    0.3460   -5.1350 o         1 1YK     -0.581500
     16 C1          0.1790   -4.1140   -4.4530 ca        1 1YK     -0.022800
     17 C6          0.6790   -4.2020   -5.7560 ca        1 1YK     -0.188000
     18 C5          0.7440   -5.4480   -6.3920 ca        1 1YK      0.127600
     19 C4          0.2860   -6.6120   -5.7370 ca        1 1YK      0.066100
     20 C3         -0.2070   -6.5010   -4.4180 ca        1 1YK      0.127600
     21 C2         -0.2650   -5.2580   -3.7790 ca        1 1YK     -0.188000
     22 O3         -0.5880   -7.6890   -3.8280 os        1 1YK     -0.312900
     23 C27        -1.3160   -7.5800   -2.6080 c3        1 1YK      0.110200
     24 O4          0.2270   -7.7990   -6.4390 os        1 1YK     -0.309900
     25 C28         1.1660   -8.7830   -5.9950 c3        1 1YK      0.115700
     26 O5          1.2540   -5.6430   -7.6570 os        1 1YK     -0.312900
     27 C29         1.4880   -4.4650   -8.4250 c3        1 1YK      0.110200
     28 O8          0.0540   -1.1920   -0.5500 os        1 1YK     -0.302900
     29 O9         -1.9070    0.5470   -0.7540 oh        1 1YK     -0.613800
     30 C19        -1.7470    3.4360   -0.7960 c         1 1YK      0.595300
     31 O1         -2.3580    3.1200   -1.8210 o         1 1YK     -0.540100
     32 C20        -1.9650    4.7140   -0.0990 ce        1 1YK     -0.247200
     33 C21        -1.7050    4.8610    1.2040 c2        1 1YK     -0.082200
     34 C22        -1.2230    3.7700    2.1130 c3        1 1YK     -0.019800
     35 C24        -2.2470    3.6590    3.2520 c3        1 1YK     -0.085100
     36 C23         0.1010    4.1810    2.7490 c3        1 1YK     -0.085100
     37 C25         0.6360    3.2940   -0.2800 c3        1 1YK     -0.096100
     38 O2         -2.4880    1.9350    1.3760 oh        1 1YK     -0.609800
     39 H1          2.1510    0.9420    0.8030 hc        1 1YK      0.054700
     40 H2          2.0690    0.9740   -1.0100 hc        1 1YK      0.054700
     41 H3          2.3190   -0.5920   -0.1350 hc        1 1YK      0.054700
     42 H4         -1.1730   -0.4520    1.4660 hc        1 1YK      0.067700
     43 H5          0.5450   -0.6050    2.0030 hc        1 1YK      0.067700
     44 H6          0.8030    1.8400    2.1670 hc        1 1YK      0.059700
     45 H7         -0.6220    1.2890    3.1400 hc        1 1YK      0.059700
     46 H8         -0.9180    1.7210   -2.8960 hc        1 1YK      0.082200
     47 H9          0.8180    1.7210   -2.3980 hc        1 1YK      0.082200
     48 H10         0.1740   -3.4660   -1.7250 ha        1 1YK      0.170000
     49 H11         1.0100   -3.2870   -6.2710 ha        1 1YK      0.156500
     50 H12        -0.6710   -5.1740   -2.7610 ha        1 1YK      0.156500
     51 H13        -0.6570   -7.1890   -1.7950 h1        1 1YK      0.048367
     52 H14        -1.6200   -8.6360   -2.3950 h1        1 1YK      0.048367
     53 H15        -2.2130   -6.9280   -2.7360 h1        1 1YK      0.048367
     54 H16         2.2090   -8.4130   -6.1390 h1        1 1YK      0.044033
     55 H17         0.9580   -9.6570   -6.6610 h1        1 1YK      0.044033
     56 H18         0.9820   -9.0410   -4.9250 h1        1 1YK      0.044033
     57 H19         2.3280   -3.8740   -7.9840 h1        1 1YK      0.048367
     58 H20         0.5640   -3.8420   -8.4950 h1        1 1YK      0.048367
     59 H21         1.7740   -4.8680   -9.4300 h1        1 1YK      0.048367
     60 H22        -2.4700    1.0080   -1.3920 ho        1 1YK      0.440000
     61 H23        -2.3730    5.5310   -0.7140 ha        1 1YK      0.155000
     62 H24        -1.8770    5.8290    1.7070 ha        1 1YK      0.133000
     63 H25        -2.2210    4.5850    3.8740 hc        1 1YK      0.043867
     64 H26        -3.2760    3.5260    2.8400 hc        1 1YK      0.043867
     65 H27        -2.0070    2.7800    3.8950 hc        1 1YK      0.043867
     66 H28         0.9550    4.1220    2.0370 hc        1 1YK      0.043867
     67 H29         0.0250    5.2330    3.1190 hc        1 1YK      0.043867
     68 H30         0.3240    3.5210    3.6230 hc        1 1YK      0.043867
     69 H31         0.5280    4.3520    0.0670 hc        1 1YK      0.050700
     70 H32         0.9550    3.3310   -1.3500 hc        1 1YK      0.050700
     71 H33         1.4410    2.8070    0.3180 hc        1 1YK      0.050700
     72 H34        -2.5030    1.0070    1.1070 ho        1 1YK      0.431000
@<TRIPOS>BOND
     1    1    2 1   
     2    1   39 1   
     3    1   40 1   
     4    1   41 1   
     5    2    3 1   
     6    2    7 1   
     7    2   28 1   
     8    3    4 1   
     9    3   42 1   
    10    3   43 1   
    11    4    5 1   
    12    4   44 1   
    13    4   45 1   
    14    5    6 1   
    15    5   34 1   
    16    5   38 1   
    17    6    7 1   
    18    6   30 1   
    19    6   37 1   
    20    7    8 1   
    21    7   29 1   
    22    8    9 1   
    23    8   46 1   
    24    8   47 1   
    25    9   10 2   
    26    9   14 1   
    27   10   11 1   
    28   10   28 1   
    29   11   12 2   
    30   11   48 1   
    31   12   13 1   
    32   12   16 1   
    33   13   14 1   
    34   14   15 2   
    35   16   17 ar  
    36   16   21 ar  
    37   17   18 ar  
    38   17   49 1   
    39   18   19 ar  
    40   18   26 1   
    41   19   20 ar  
    42   19   24 1   
    43   20   21 ar  
    44   20   22 1   
    45   21   50 1   
    46   22   23 1   
    47   23   51 1   
    48   23   52 1   
    49   23   53 1   
    50   24   25 1   
    51   25   54 1   
    52   25   55 1   
    53   25   56 1   
    54   26   27 1   
    55   27   57 1   
    56   27   58 1   
    57   27   59 1   
    58   29   60 1   
    59   30   31 2   
    60   30   32 1   
    61   32   33 2   
    62   32   61 1   
    63   33   34 1   
    64   33   62 1   
    65   34   35 1   
    66   34   36 1   
    67   35   63 1   
    68   35   64 1   
    69   35   65 1   
    70   36   66 1   
    71   36   67 1   
    72   36   68 1   
    73   37   69 1   
    74   37   70 1   
    75   37   71 1   
    76   38   72 1   
@<TRIPOS>SUBSTRUCTURE
     1 1YK         1 TEMP              0 ****  ****    0 ROOT
