@<TRIPOS>MOLECULE
1YL
   35    31     1     0     0
SMALL
bcc


@<TRIPOS>ATOM
      1 C18        -4.4500    0.7110    2.4170 c3        1 1YL     -0.183000
      2 C4         -2.9380    0.7110    2.4170 c1        1 1YL     -0.063000
      3 C3         -2.4840    0.7110    3.7310 c1        1 1YL     -0.117500
      4 C2         -1.1260    0.5540    4.0000 c1        1 1YL     -0.117500
      5 C1         -0.2240    0.3970    2.9540 c1        1 1YL     -0.117000
      6 C10        -0.6820    0.3970    1.6230 c1        1 1YL     -0.001000
      7 C5         -2.0260    0.5520    1.3580 c1        1 1YL     -0.029000
      8 C6         -2.4920    0.5320    0.0170 c1        1 1YL     -0.095000
      9 C7         -1.5910    0.3550   -1.0330 c1        1 1YL     -0.111000
     10 C8         -0.2220    0.1970   -0.7650 c1        1 1YL     -0.015000
     11 C9          0.2370    0.2170    0.5530 c1        1 1YL     -0.095000
     12 C11         1.7070   -0.0310    0.8490 c1        1 1YL      0.221000
     13 O21         2.1290    0.1020    1.9780 o         1 1YL     -0.233000
     14 C12         2.6380   -0.3430   -0.2550 c1        1 1YL      0.263000
     15 O20         3.8180   -0.5270   -0.0230 o         1 1YL     -0.245000
     16 C13         2.1390   -0.3580   -1.6790 c2        1 1YL     -0.294000
     17 C14         0.7900   -0.0690   -1.9540 c2        1 1YL      0.147000
     18 O19         0.4740   -0.2310   -3.1920 os        1 1YL     -0.199000
     19 C16         1.8790   -0.1410   -3.9670 c3        1 1YL     -0.036000
     20 C15         2.9610   -0.4570   -2.8640 c3        1 1YL     -0.060000
     21 C17         3.5660   -1.8150   -2.9530 c3        1 1YL     -0.212000
     22 H1         -4.7760    1.3070    1.7170 hc        1 1YL      0.087333
     23 H2         -4.7760    1.0190    3.2850 hc        1 1YL      0.087333
     24 H3         -4.7760   -0.1940    2.2510 hc        1 1YL      0.087333
     25 H4         -3.1170    0.8210    4.4660 ha        1 1YL      0.138500
     26 H5         -0.8080    0.5540    4.9220 ha        1 1YL      0.138500
     27 H6          0.7280    0.2870    3.1420 ha        1 1YL      0.163000
     28 H7         -3.4420    0.6560   -0.1720 ha        1 1YL      0.143000
     29 H8         -1.9110    0.3530   -1.9550 ha        1 1YL      0.157000
     30 H11         2.0120    0.7570   -4.3270 h1        1 1YL      0.107500
     31 H12         1.9170   -0.8050   -4.6820 h1        1 1YL      0.107500
     32 H13         3.7460    0.1180   -2.9430 hc        1 1YL      0.113000
     33 H14         4.3280   -1.8730   -2.3450 hc        1 1YL      0.087667
     34 H15         2.9010   -2.4850   -2.7050 hc        1 1YL      0.087667
     35 H16         3.8670   -1.9780   -3.8670 hc        1 1YL      0.087667
@<TRIPOS>BOND
     1    1    2 1   
     2    1   22 1   
     3    1   23 1   
     4    1   24 1   
     5    2    7 1   
     6    3    4 1   
     7    3   25 1   
     8    4   26 1   
     9    5    6 1   
    10    5   27 1   
    11    6   11 1   
    12    7    8 1   
    13    8   28 1   
    14    9   10 1   
    15    9   29 1   
    16   10   17 1   
    17   12   13 1   
    18   14   15 1   
    19   14   16 1   
    20   16   17 1   
    21   16   20 1   
    22   17   18 1   
    23   18   19 1   
    24   19   20 1   
    25   19   30 1   
    26   19   31 1   
    27   20   21 1   
    28   20   32 1   
    29   21   33 1   
    30   21   34 1   
    31   21   35 1   
@<TRIPOS>SUBSTRUCTURE
     1 1YL         1 TEMP              0 ****  ****    0 ROOT
