@<TRIPOS>MOLECULE
1YL
   35    38     1     0     0
SMALL
bcc


@<TRIPOS>ATOM
      1 C18         0.0100   -0.0240    0.0240 c3        1 1YL     -0.057800
      2 C4          1.4930   -0.0470    0.0200 ca        1 1YL     -0.070300
      3 C3          2.1870   -0.1640    1.2040 ca        1 1YL     -0.118000
      4 C2          3.5990   -0.1950    1.2110 ca        1 1YL     -0.117000
      5 C1          4.3050   -0.0990    0.0380 ca        1 1YL     -0.117000
      6 C10         3.6320    0.0360   -1.2100 ca        1 1YL     -0.001000
      7 C5          2.2070    0.0490   -1.2160 ca        1 1YL     -0.029000
      8 C6          1.5160    0.1550   -2.4520 ca        1 1YL     -0.095000
      9 C7          2.2000    0.2150   -3.6400 ca        1 1YL     -0.111000
     10 C8          3.6130    0.1890   -3.6420 ca        1 1YL     -0.026800
     11 C9          4.3340    0.1360   -2.4480 ca        1 1YL     -0.115600
     12 C11         5.8160    0.2380   -2.5020 c         1 1YL      0.480700
     13 O21         6.4950    0.7290   -1.5970 o         1 1YL     -0.472100
     14 C12         6.5150   -0.2130   -3.7830 c         1 1YL      0.521300
     15 O20         7.6600   -0.6670   -3.7520 o         1 1YL     -0.484100
     16 C13         5.7100   -0.0310   -4.9710 cc        1 1YL     -0.317400
     17 C14         4.3590    0.1730   -4.8800 cd        1 1YL      0.202900
     18 O19         3.7360    0.3090   -6.1040 os        1 1YL     -0.314900
     19 C16         4.7700    0.1850   -7.1320 c3        1 1YL      0.114400
     20 C15         6.1230   -0.0470   -6.4130 c3        1 1YL     -0.016500
     21 C17         6.7850   -1.3350   -6.8310 c3        1 1YL     -0.094100
     22 H1         -0.3960   -0.8770   -0.5740 hc        1 1YL      0.048033
     23 H2         -0.3900   -0.1050    1.0650 hc        1 1YL      0.048033
     24 H3         -0.3670    0.9320   -0.4200 hc        1 1YL      0.048033
     25 H4          1.6480   -0.2390    2.1620 ha        1 1YL      0.137000
     26 H5          4.1270   -0.2970    2.1710 ha        1 1YL      0.140000
     27 H6          5.4070   -0.1230    0.0600 ha        1 1YL      0.163000
     28 H7          0.4150    0.1840   -2.4510 ha        1 1YL      0.143000
     29 H8          1.6720    0.2830   -4.6050 ha        1 1YL      0.157000
     30 H11         4.4650   -0.6790   -7.7710 h1        1 1YL      0.068200
     31 H12         4.7460    1.1420   -7.7060 h1        1 1YL      0.068200
     32 H13         6.8170    0.8120   -6.6210 hc        1 1YL      0.073700
     33 H14         6.0900   -2.2000   -6.7100 hc        1 1YL      0.048367
     34 H15         7.0990   -1.2770   -7.9010 hc        1 1YL      0.048367
     35 H16         7.6880   -1.5140   -6.1960 hc        1 1YL      0.048367
@<TRIPOS>BOND
     1    1    2 1   
     2    1   22 1   
     3    1   23 1   
     4    1   24 1   
     5    2    3 ar  
     6    2    7 ar  
     7    3    4 ar  
     8    3   25 1   
     9    4    5 ar  
    10    4   26 1   
    11    5    6 ar  
    12    5   27 1   
    13    6    7 ar  
    14    6   11 ar  
    15    7    8 ar  
    16    8    9 ar  
    17    8   28 1   
    18    9   10 ar  
    19    9   29 1   
    20   10   11 ar  
    21   10   17 1   
    22   11   12 1   
    23   12   13 2   
    24   12   14 1   
    25   14   15 2   
    26   14   16 1   
    27   16   17 2   
    28   16   20 1   
    29   17   18 1   
    30   18   19 1   
    31   19   20 1   
    32   19   30 1   
    33   19   31 1   
    34   20   21 1   
    35   20   32 1   
    36   21   33 1   
    37   21   34 1   
    38   21   35 1   
@<TRIPOS>SUBSTRUCTURE
     1 1YL         1 TEMP              0 ****  ****    0 ROOT
