@<TRIPOS>MOLECULE
1YL
   35    38     1     0     0
SMALL
bcc


@<TRIPOS>ATOM
      1 C18         4.7450    1.9200    0.1350 c3        1 1YL     -0.057800
      2 C4          3.9370    0.6770    0.1090 ca        1 1YL     -0.070300
      3 C3          4.5510   -0.5510    0.2190 ca        1 1YL     -0.118000
      4 C2          3.7900   -1.7410    0.2030 ca        1 1YL     -0.117000
      5 C1          2.4260   -1.6950    0.0670 ca        1 1YL     -0.117000
      6 C10         1.7470   -0.4490   -0.0630 ca        1 1YL     -0.001000
      7 C5          2.5150    0.7500   -0.0290 ca        1 1YL     -0.029000
      8 C6          1.8550    2.0040   -0.1290 ca        1 1YL     -0.095000
      9 C7          0.4880    2.0770   -0.2290 ca        1 1YL     -0.111000
     10 C8         -0.2800    0.8910   -0.2500 ca        1 1YL     -0.026800
     11 C9          0.3300   -0.3640   -0.2040 ca        1 1YL     -0.115600
     12 C11        -0.5170   -1.5770   -0.3560 c         1 1YL      0.480700
     13 O21        -0.1110   -2.6280   -0.8570 o         1 1YL     -0.472100
     14 C12        -1.9850   -1.4770    0.0540 c         1 1YL      0.521300
     15 O20        -2.5930   -2.4650    0.4690 o         1 1YL     -0.484100
     16 C13        -2.5400   -0.1530   -0.1190 cc        1 1YL     -0.317400
     17 C14        -1.7260    0.9360   -0.2760 cd        1 1YL      0.202900
     18 O19        -2.4110    2.1270   -0.4080 os        1 1YL     -0.314900
     19 C16        -3.8390    1.8140   -0.3330 c3        1 1YL      0.114400
     20 C15        -3.9760    0.2840   -0.1370 c3        1 1YL     -0.016500
     21 C17        -4.7250   -0.0720    1.1220 c3        1 1YL     -0.094100
     22 H1          4.4380    2.5680    0.9930 hc        1 1YL      0.048033
     23 H2          5.8340    1.6890    0.2450 hc        1 1YL      0.048033
     24 H3          4.6050    2.4970   -0.8130 hc        1 1YL      0.048033
     25 H4          5.6450   -0.6200    0.3250 ha        1 1YL      0.137000
     26 H5          4.3080   -2.7070    0.3010 ha        1 1YL      0.140000
     27 H6          1.8460   -2.6320    0.0550 ha        1 1YL      0.163000
     28 H7          2.4540    2.9280   -0.1210 ha        1 1YL      0.143000
     29 H8         -0.0340    3.0450   -0.2920 ha        1 1YL      0.157000
     30 H11        -4.2360    2.4000    0.5310 h1        1 1YL      0.068200
     31 H12        -4.2790    2.1650   -1.2970 h1        1 1YL      0.068200
     32 H13        -4.5000   -0.1690   -1.0220 hc        1 1YL      0.073700
     33 H14        -4.2720    0.4280    2.0120 hc        1 1YL      0.048367
     34 H15        -5.7920    0.2460    1.0380 hc        1 1YL      0.048367
     35 H16        -4.6860   -1.1790    1.2800 hc        1 1YL      0.048367
@<TRIPOS>BOND
     1    1    2 1   
     2    1   22 1   
     3    1   23 1   
     4    1   24 1   
     5    2    3 ar  
     6    2    7 ar  
     7    3    4 ar  
     8    3   25 1   
     9    4    5 ar  
    10    4   26 1   
    11    5    6 ar  
    12    5   27 1   
    13    6    7 ar  
    14    6   11 ar  
    15    7    8 ar  
    16    8    9 ar  
    17    8   28 1   
    18    9   10 ar  
    19    9   29 1   
    20   10   11 ar  
    21   10   17 1   
    22   11   12 1   
    23   12   13 2   
    24   12   14 1   
    25   14   15 2   
    26   14   16 1   
    27   16   17 2   
    28   16   20 1   
    29   17   18 1   
    30   18   19 1   
    31   19   20 1   
    32   19   30 1   
    33   19   31 1   
    34   20   21 1   
    35   20   32 1   
    36   21   33 1   
    37   21   34 1   
    38   21   35 1   
@<TRIPOS>SUBSTRUCTURE
     1 1YL         1 TEMP              0 ****  ****    0 ROOT
