@<TRIPOS>MOLECULE
1YM
   44    46     1     0     0
SMALL
bcc


@<TRIPOS>ATOM
      1 C1          1.9120    1.0690   -0.5110 c3        1 1YM     -0.136100
      2 C2          2.7110    0.4470    0.6120 c3        1 1YM      0.107800
      3 O5          2.9410   -2.4180    2.2260 o         1 1YM     -0.416100
      4 N6          3.2890   -0.4970    3.5630 n         1 1YM     -0.438400
      5 C7          4.7300   -0.3660    3.6220 ca        1 1YM      0.382200
      6 C8          5.3600   -0.3900    4.8770 ca        1 1YM     -0.146300
      7 C9          6.7580   -0.1870    4.9230 ca        1 1YM     -0.057500
      8 C10         7.4600   -0.0300    3.7170 cp        1 1YM     -0.070300
      9 C11         6.7170   -0.0490    2.5020 ca        1 1YM      0.438200
     10 C13         8.8900    0.2100    3.6260 cp        1 1YM     -0.256300
     11 C14         9.3540    1.3790    2.9950 ca        1 1YM     -0.059000
     12 C15        10.7240    1.5750    2.8410 ca        1 1YM     -0.224900
     13 C16        11.5990    0.5830    3.3330 ca        1 1YM      0.435200
     14 C19        11.2460    2.8260    2.1310 c         1 1YM      0.917200
     15 C22         7.4300   -0.0940    6.2090 cc        1 1YM      0.335900
     16 N23         6.7680   -0.0540    7.3880 nd        1 1YM     -0.587000
     17 C24         7.6860    0.0730    8.4040 cd        1 1YM      0.234600
     18 C27         7.2240    0.1420    9.8500 c3        1 1YM      0.627600
     19 N3          1.9040   -0.4970    1.4420 n4        1 1YM     -0.700800
     20 C4          2.8120   -1.2260    2.4730 c         1 1YM      0.655100
     21 N12         5.3950   -0.1990    2.4330 nb        1 1YM     -0.733000
     22 N17        11.1800   -0.5500    3.9300 nb        1 1YM     -0.681000
     23 C18         9.8500   -0.7300    4.0680 ca        1 1YM      0.364200
     24 O20        12.4920    2.9910    2.1060 o         1 1YM     -0.800300
     25 O21        10.3770    3.5850    1.6250 o         1 1YM     -0.800300
     26 C25         9.0250    0.1290    7.9950 cc        1 1YM     -0.263400
     27 S26         9.1330    0.0170    6.3640 ss        1 1YM      0.201700
     28 F28         8.2500    0.2740   10.7530 f         1 1YM     -0.231633
     29 F29         6.3860    1.1930   10.1270 f         1 1YM     -0.231633
     30 F30         6.5360   -0.9670   10.2740 f         1 1YM     -0.231633
     31 H1          1.0520    1.6690   -0.1270 hc        1 1YM      0.076367
     32 H2          2.5920    1.7560   -1.0770 hc        1 1YM      0.076367
     33 H3          1.5280    0.2980   -1.2230 hc        1 1YM      0.076367
     34 H4          3.5890   -0.1330    0.1970 hx        1 1YM      0.119200
     35 H5          3.1180    1.2500    1.2920 hx        1 1YM      0.119200
     36 H6          2.8310    0.3770    3.7530 hn        1 1YM      0.312500
     37 H7          4.7830   -0.5410    5.8030 ha        1 1YM      0.187000
     38 H8          7.2490    0.0880    1.5380 h4        1 1YM      0.060100
     39 H9          8.6620    2.1500    2.6140 ha        1 1YM      0.168000
     40 H10        12.6930    0.7260    3.2210 h4        1 1YM      0.062100
     41 H11         1.1460    0.0070    1.9040 hn        1 1YM      0.448300
     42 H12         9.5420   -1.7090    4.4800 h4        1 1YM      0.013100
     43 H14         9.8610    0.2320    8.6900 h4        1 1YM      0.204000
     44 H32         1.4910   -1.2140    0.8330 hn        1 1YM      0.448300
@<TRIPOS>BOND
     1    1    2 1   
     2    1   31 1   
     3    1   32 1   
     4    1   33 1   
     5    2   19 1   
     6    2   34 1   
     7    2   35 1   
     8    3   20 2   
     9    4    5 1   
    10    4   20 1   
    11    4   36 1   
    12    5    6 ar  
    13    5   21 ar  
    14    6    7 ar  
    15    6   37 1   
    16    7    8 ar  
    17    7   15 1   
    18    8    9 ar  
    19    8   10 1   
    20    9   21 ar  
    21    9   38 1   
    22   10   11 ar  
    23   10   23 ar  
    24   11   12 ar  
    25   11   39 1   
    26   12   13 ar  
    27   12   14 1   
    28   13   22 ar  
    29   13   40 1   
    30   14   24 1   
    31   14   25 1   
    32   15   16 2   
    33   15   27 1   
    34   16   17 1   
    35   17   18 1   
    36   17   26 2   
    37   18   28 1   
    38   18   29 1   
    39   18   30 1   
    40   19   20 1   
    41   19   41 1   
    42   19   44 1   
    43   22   23 ar  
    44   23   42 1   
    45   26   27 1   
    46   26   43 1   
@<TRIPOS>SUBSTRUCTURE
     1 1YM         1 TEMP              0 ****  ****    0 ROOT
