@<TRIPOS>MOLECULE
1YM
   44    46     1     0     0
SMALL
bcc


@<TRIPOS>ATOM
      1 C1          1.9370    1.0460   -0.5420 c3        1 1YM     -0.136100
      2 C2          2.7330    0.4270    0.5860 c3        1 1YM      0.107800
      3 O5          2.9710   -2.4390    2.1950 o         1 1YM     -0.416100
      4 N6          3.2960   -0.5180    3.5390 ns        1 1YM     -0.438400
      5 C7          4.7360   -0.3790    3.6080 ca        1 1YM      0.382200
      6 C8          5.3580   -0.4000    4.8670 ca        1 1YM     -0.146300
      7 C9          6.7530   -0.1880    4.9240 ca        1 1YM     -0.057500
      8 C10         7.4620   -0.0230    3.7230 cp        1 1YM     -0.070300
      9 C11         6.7290   -0.0440    2.5020 ca        1 1YM      0.438200
     10 C13         8.8920    0.2280    3.6420 cp        1 1YM     -0.256300
     11 C14         9.3510    1.4010    3.0170 ca        1 1YM     -0.059000
     12 C15        10.7210    1.6070    2.8730 ca        1 1YM     -0.224900
     13 C16        11.6000    0.6200    3.3690 ca        1 1YM      0.435200
     14 C19        11.2390    2.8630    2.1690 c         1 1YM      0.917200
     15 C22         7.4160   -0.0930    6.2140 cc        1 1YM      0.335900
     16 N23         6.7460   -0.0600    7.3890 nd        1 1YM     -0.587000
     17 C24         7.6550    0.0710    8.4120 cd        1 1YM      0.234600
     18 C27         7.1840    0.1330    9.8550 c3        1 1YM      0.627600
     19 N3          1.9270   -0.5230    1.4090 ny        1 1YM     -0.700800
     20 C4          2.8310   -1.2490    2.4440 c         1 1YM      0.655100
     21 N12         5.4080   -0.2030    2.4240 nb        1 1YM     -0.733000
     22 N17        11.1840   -0.5170    3.9610 nb        1 1YM     -0.681000
     23 C18         9.8560   -0.7070    4.0880 ca        1 1YM      0.364200
     24 O20        12.4840    3.0370    2.1530 o         1 1YM     -0.800300
     25 O21        10.3680    3.6170    1.6590 o         1 1YM     -0.800300
     26 C25         8.9970    0.1370    8.0120 cc        1 1YM     -0.263400
     27 S26         9.1170    0.0300    6.3820 ss        1 1YM      0.201700
     28 F28         8.2020    0.2700   10.7650 f         1 1YM     -0.231633
     29 F29         6.3360    1.1770   10.1280 f         1 1YM     -0.231633
     30 F30         6.5000   -0.9820   10.2720 f         1 1YM     -0.231633
     31 H1          2.6170    1.7400   -1.1010 hc        1 1YM      0.076367
     32 H2          1.0710    1.6410   -0.1620 hc        1 1YM      0.076367
     33 H3          1.5630    0.2740   -1.2580 hc        1 1YM      0.076367
     34 H4          3.1300    1.2320    1.2700 hx        1 1YM      0.119200
     35 H5          3.6180   -0.1460    0.1760 hx        1 1YM      0.119200
     36 H6          2.8310    0.3520    3.7280 hn        1 1YM      0.312500
     37 H7          4.7750   -0.5580    5.7890 ha        1 1YM      0.187000
     38 H8          7.2660    0.0980    1.5420 h4        1 1YM      0.060100
     39 H9          8.6570    2.1680    2.6330 ha        1 1YM      0.168000
     40 H10        12.6940    0.7710    3.2650 h4        1 1YM      0.062100
     41 H11         1.1620   -0.0260    1.8660 hn        1 1YM      0.448300
     42 H12         9.5510   -1.6890    4.4970 h4        1 1YM      0.013100
     43 H14         9.8280    0.2440    8.7130 h4        1 1YM      0.204000
     44 H32         1.5220   -1.2420    0.7950 hn        1 1YM      0.448300
@<TRIPOS>BOND
     1    1    2 1   
     2    1   31 1   
     3    1   32 1   
     4    1   33 1   
     5    2   19 1   
     6    2   34 1   
     7    2   35 1   
     8    3   20 2   
     9    4    5 1   
    10    4   20 1   
    11    4   36 1   
    12    5    6 ar  
    13    5   21 ar  
    14    6    7 ar  
    15    6   37 1   
    16    7    8 ar  
    17    7   15 1   
    18    8    9 ar  
    19    8   10 1   
    20    9   21 ar  
    21    9   38 1   
    22   10   11 ar  
    23   10   23 ar  
    24   11   12 ar  
    25   11   39 1   
    26   12   13 ar  
    27   12   14 1   
    28   13   22 ar  
    29   13   40 1   
    30   14   24 1   
    31   14   25 1   
    32   15   16 2   
    33   15   27 1   
    34   16   17 1   
    35   17   18 1   
    36   17   26 2   
    37   18   28 1   
    38   18   29 1   
    39   18   30 1   
    40   19   20 1   
    41   19   41 1   
    42   19   44 1   
    43   22   23 ar  
    44   23   42 1   
    45   26   27 1   
    46   26   43 1   
@<TRIPOS>SUBSTRUCTURE
     1 1YM         1 TEMP              0 ****  ****    0 ROOT
