@<TRIPOS>MOLECULE
1YM
   43    45     1     0     0
SMALL
bcc


@<TRIPOS>ATOM
      1 C1          8.9050   -0.4700   -0.3280 c3        1 1YM     -0.104100
      2 C2          7.6360    0.0750    0.3040 c3        1 1YM      0.077000
      3 O5          5.1920    0.5950    1.3770 o         1 1YM     -0.584100
      4 N6          4.0320   -0.5190   -0.3250 n         1 1YM     -0.566400
      5 C7          2.7650    0.0480   -0.0590 ca        1 1YM      0.525200
      6 C8          1.6270   -0.8060   -0.0780 ca        1 1YM     -0.257300
      7 C9          0.3550   -0.2490    0.1000 ca        1 1YM     -0.057500
      8 C10         0.2400    1.1370    0.3140 cp        1 1YM     -0.146300
      9 C11         1.4310    1.8970    0.3140 ca        1 1YM      0.438200
     10 C13        -1.0400    1.8060    0.5210 cp        1 1YM     -0.225300
     11 C14        -1.5620    2.6930   -0.4370 ca        1 1YM     -0.054000
     12 C15        -2.7510    3.3690   -0.1650 ca        1 1YM     -0.231900
     13 C16        -3.3770    3.1430    1.0810 ca        1 1YM      0.418200
     14 C19        -3.3660    4.3300   -1.1750 c         1 1YM      0.914200
     15 C22        -0.8340   -1.0890    0.0580 cc        1 1YM      0.385900
     16 N23        -0.8380   -2.3930   -0.2830 nd        1 1YM     -0.595000
     17 C24        -2.1370   -2.8580   -0.2250 cd        1 1YM      0.226600
     18 C27        -2.4430   -4.3060   -0.5570 c3        1 1YM      0.627600
     19 N3          6.4370   -0.5610   -0.1970 n         1 1YM     -0.545900
     20 C4          5.2100   -0.0970    0.3390 c         1 1YM      0.758100
     21 N12         2.6610    1.4000    0.1340 nb        1 1YM     -0.665000
     22 N17        -2.8950    2.3080    2.0190 nb        1 1YM     -0.696000
     23 C18        -1.7490    1.6530    1.7380 ca        1 1YM      0.362200
     24 O20        -2.7410    4.5140   -2.2540 o         1 1YM     -0.814300
     25 O21        -4.4610    4.8720   -0.8630 o         1 1YM     -0.814300
     26 C25        -3.0950   -1.9140    0.1540 cc        1 1YM     -0.273400
     27 S26        -2.3870   -0.4590    0.4410 ss        1 1YM      0.159700
     28 F28        -3.7750   -4.6310   -0.4620 f         1 1YM     -0.239300
     29 F29        -2.0950   -4.6910   -1.8270 f         1 1YM     -0.239300
     30 F30        -1.8200   -5.2220    0.2550 f         1 1YM     -0.239300
     31 H1          8.9210   -0.2880   -1.4290 hc        1 1YM      0.040033
     32 H2          9.7810    0.0510    0.1300 hc        1 1YM      0.040033
     33 H3          9.0090   -1.5670   -0.1480 hc        1 1YM      0.040033
     34 H4          7.6630   -0.0930    1.4190 h1        1 1YM      0.053200
     35 H5          7.5920    1.1920    0.1410 h1        1 1YM      0.053200
     36 H6          4.0120   -1.4370   -0.7060 hn        1 1YM      0.321500
     37 H7          1.7400   -1.8870   -0.2390 ha        1 1YM      0.158000
     38 H8          1.3840    2.9940    0.4630 h4        1 1YM      0.041100
     39 H9         -1.0550    2.8700   -1.4010 ha        1 1YM      0.170000
     40 H10        -4.3170    3.6830    1.3130 h4        1 1YM      0.050100
     41 H11         6.4510   -0.7610   -1.1730 hn        1 1YM      0.288500
     42 H12        -1.3480    1.0170    2.5470 h4        1 1YM      0.010100
     43 H14        -4.1600   -2.1350    0.2390 h4        1 1YM      0.191000
@<TRIPOS>BOND
     1    1    2 1   
     2    1   31 1   
     3    1   32 1   
     4    1   33 1   
     5    2   19 1   
     6    2   34 1   
     7    2   35 1   
     8    3   20 2   
     9    4    5 1   
    10    4   20 1   
    11    4   36 1   
    12    5    6 ar  
    13    5   21 ar  
    14    6    7 ar  
    15    6   37 1   
    16    7    8 ar  
    17    7   15 1   
    18    8    9 ar  
    19    8   10 1   
    20    9   21 ar  
    21    9   38 1   
    22   10   11 ar  
    23   10   23 ar  
    24   11   12 ar  
    25   11   39 1   
    26   12   13 ar  
    27   12   14 1   
    28   13   22 ar  
    29   13   40 1   
    30   14   24 1   
    31   14   25 1   
    32   15   16 2   
    33   15   27 1   
    34   16   17 1   
    35   17   18 1   
    36   17   26 2   
    37   18   28 1   
    38   18   29 1   
    39   18   30 1   
    40   19   20 1   
    41   19   41 1   
    42   22   23 ar  
    43   23   42 1   
    44   26   27 1   
    45   26   43 1   
@<TRIPOS>SUBSTRUCTURE
     1 1YM         1 TEMP              0 ****  ****    0 ROOT
