@<TRIPOS>MOLECULE
1YM
   43    39     1     0     0
SMALL
bcc


@<TRIPOS>ATOM
      1 C1         -6.8950    0.3940   -3.8280 c3        1 1YM     -0.222000
      2 C2         -5.3970    0.6620   -3.7370 c3        1 1YM     -0.039000
      3 O5         -2.6430    0.1880   -3.2860 o         1 1YM     -0.343000
      4 N6         -2.9110   -0.3560   -1.0610 n         1 1YM     -0.326000
      5 C7         -1.4870   -0.3800   -0.8250 c2        1 1YM      0.110000
      6 C8         -0.9980   -0.3620    0.4800 c1        1 1YM     -0.193000
      7 C9          0.3530   -0.3590    0.7040 c1        1 1YM      0.064000
      8 C10         1.2230   -0.3740   -0.3580 c1        1 1YM     -0.080000
      9 C11         0.7320   -0.3920   -1.6580 c1        1 1YM     -0.037000
     10 C13         2.7340   -0.3190   -0.1120 c2        1 1YM     -0.133000
     11 C14         3.4350    0.8180   -0.4160 c2        1 1YM     -0.106000
     12 C15         4.7990    0.8300   -0.3070 c1        1 1YM     -0.139000
     13 C16         5.4700   -0.3060    0.1120 c2        1 1YM     -0.051000
     14 C19         5.5870    2.0610   -0.7480 c1        1 1YM      0.361000
     15 C22         0.8910   -0.2190    2.1270 c2        1 1YM     -0.347000
     16 N23         0.7120   -1.1630    3.1890 n2        1 1YM     -0.070000
     17 C24         1.2730   -0.5320    4.5180 c1        1 1YM     -0.206000
     18 C27         1.2730   -1.1930    5.8880 c2        1 1YM      0.509000
     19 N3         -4.8420   -0.0760   -2.6230 n         1 1YM     -0.357000
     20 C4         -3.4170   -0.0500   -2.3740 c2        1 1YM      0.381000
     21 N12        -0.6190   -0.3950   -1.8810 n2        1 1YM     -0.139000
     22 N17         4.7710   -1.4390    0.4160 n1        1 1YM     -0.162000
     23 C18         3.4070   -1.4530    0.3070 c1        1 1YM     -0.080000
     24 O20         6.0300    2.1340   -1.9200 o         1 1YM     -0.550500
     25 O21         5.8600    2.9700    0.0890 o         1 1YM     -0.550500
     26 C25         1.7790    0.7880    4.2150 c1        1 1YM     -0.486000
     27 S26         1.5660    1.0420    2.7220 ss        1 1YM      0.830000
     28 F28         2.5300   -1.3760    6.2930 f         1 1YM     -0.170333
     29 F29         0.6260   -0.3980    6.7730 f         1 1YM     -0.170333
     30 F30         0.6500   -2.3780    5.8140 f         1 1YM     -0.170333
     31 H1         -7.0460   -0.4820   -4.2470 hc        1 1YM      0.079000
     32 H2         -7.3240    1.0980   -4.3730 hc        1 1YM      0.079000
     33 H3         -7.2850    0.3960   -2.9240 hc        1 1YM      0.079000
     34 H4         -4.9630    0.3760   -4.5680 h1        1 1YM      0.092000
     35 H5         -5.2430    1.6300   -3.6010 h1        1 1YM      0.092000
     36 H6         -3.4870   -0.5930   -0.3960 hn        1 1YM      0.232000
     37 H7         -1.6160   -0.2900    1.2310 ha        1 1YM      0.157000
     38 H8          1.3540   -0.4120   -2.4170 ha        1 1YM      0.170000
     39 H9          2.9660    1.6110   -0.7090 ha        1 1YM      0.168000
     40 H10         6.4460   -0.2970    0.1900 h4        1 1YM      0.183000
     41 H11        -5.3930   -0.5580   -2.0750 hn        1 1YM      0.201000
     42 H12         2.9110   -2.2590    0.5230 ha        1 1YM      0.144000
     43 H14         2.1880    1.4120    4.8560 DU        1 1YM      0.197000
@<TRIPOS>BOND
     1    1    2 1   
     2    1   31 1   
     3    1   32 1   
     4    1   33 1   
     5    2   19 1   
     6    2   34 1   
     7    2   35 1   
     8    3   20 1   
     9    4    5 1   
    10    4   20 1   
    11    4   36 1   
    12    5    6 1   
    13    5   21 1   
    14    6   37 1   
    15    7    8 1   
    16    7   15 1   
    17    8   10 1   
    18    9   21 1   
    19    9   38 1   
    20   10   11 1   
    21   10   23 1   
    22   11   12 1   
    23   11   39 1   
    24   12   13 1   
    25   13   22 1   
    26   13   40 1   
    27   14   24 1   
    28   14   25 1   
    29   15   16 1   
    30   15   27 1   
    31   16   17 1   
    32   17   26 1   
    33   18   28 1   
    34   18   29 1   
    35   18   30 1   
    36   19   20 1   
    37   19   41 1   
    38   23   42 1   
    39   26   27 1   
@<TRIPOS>SUBSTRUCTURE
     1 1YM         1 TEMP              0 ****  ****    0 ROOT
