@<TRIPOS>MOLECULE
1YM
   43    45     1     0     0
SMALL
bcc


@<TRIPOS>ATOM
      1 C1         -0.1390    0.0130   -0.0360 c3        1 1YM     -0.104100
      2 C2          1.3180   -0.3800    0.1480 c3        1 1YM      0.077000
      3 O5          3.8040   -1.1330    0.9500 o         1 1YM     -0.584100
      4 N6          3.8080    0.2900    2.8080 n         1 1YM     -0.566400
      5 C7          5.2020    0.2570    3.0390 ca        1 1YM      0.525200
      6 C8          5.6620    0.1240    4.3790 ca        1 1YM     -0.257300
      7 C9          7.0370    0.1730    4.6360 ca        1 1YM     -0.057500
      8 C10         7.9280    0.3320    3.5580 cp        1 1YM     -0.146300
      9 C11         7.3700    0.4560    2.2650 ca        1 1YM      0.438200
     10 C13         9.3760    0.3820    3.7240 cp        1 1YM     -0.225300
     11 C14        10.0960    1.5670    3.4860 ca        1 1YM     -0.054000
     12 C15        11.4870    1.5500    3.5840 ca        1 1YM     -0.231900
     13 C16        12.1200    0.3290    3.9030 ca        1 1YM      0.418200
     14 C19        12.3130    2.8100    3.3500 c         1 1YM      0.914200
     15 C22         7.5410    0.0690    5.9980 cc        1 1YM      0.385900
     16 N23         6.7670    0.0620    7.1020 nd        1 1YM     -0.595000
     17 C24         7.5830   -0.0360    8.2110 cd        1 1YM      0.226600
     18 C27         6.9800   -0.0710    9.6010 c3        1 1YM      0.627600
     19 N3          1.8500    0.0120    1.4350 n         1 1YM     -0.545900
     20 C4          3.2090   -0.3110    1.6760 c         1 1YM      0.758100
     21 N12         6.0610    0.4260    1.9860 nb        1 1YM     -0.665000
     22 N17        11.4560   -0.8210    4.1260 nb        1 1YM     -0.696000
     23 C18        10.1110   -0.7880    4.0390 ca        1 1YM      0.362200
     24 O20        11.6910    3.8600    3.0350 o         1 1YM     -0.814300
     25 O21        13.5620    2.7150    3.4930 o         1 1YM     -0.814300
     26 C25         8.9540   -0.0990    7.9420 cc        1 1YM     -0.273400
     27 S26         9.2250   -0.0430    6.3220 ss        1 1YM      0.159700
     28 F28         7.9080   -0.1650   10.6110 f         1 1YM     -0.239300
     29 F29         6.2360    1.0340    9.9330 f         1 1YM     -0.239300
     30 F30         6.1330   -1.1280    9.8290 f         1 1YM     -0.239300
     31 H1         -0.4790   -0.3470   -1.0370 hc        1 1YM      0.040033
     32 H2         -0.7850   -0.4500    0.7470 hc        1 1YM      0.040033
     33 H3         -0.2690    1.1210    0.0050 hc        1 1YM      0.040033
     34 H4          1.9290    0.0680   -0.6900 h1        1 1YM      0.053200
     35 H5          1.4230   -1.5000    0.0690 h1        1 1YM      0.053200
     36 H6          3.2500    0.4220    3.6210 hn        1 1YM      0.321500
     37 H7          4.9490   -0.0060    5.2060 ha        1 1YM      0.158000
     38 H8          8.0350    0.5980    1.3910 h4        1 1YM      0.041100
     39 H9          9.5890    2.5100    3.2250 ha        1 1YM      0.170000
     40 H10        13.2250    0.3010    3.9730 h4        1 1YM      0.050100
     41 H11         1.5370    0.9000    1.7600 hn        1 1YM      0.288500
     42 H12         9.5970   -1.7570    4.1710 h4        1 1YM      0.010100
     43 H14         9.7180   -0.1740    8.7160 h4        1 1YM      0.191000
@<TRIPOS>BOND
     1    1    2 1   
     2    1   31 1   
     3    1   32 1   
     4    1   33 1   
     5    2   19 1   
     6    2   34 1   
     7    2   35 1   
     8    3   20 2   
     9    4    5 1   
    10    4   20 1   
    11    4   36 1   
    12    5    6 ar  
    13    5   21 ar  
    14    6    7 ar  
    15    6   37 1   
    16    7    8 ar  
    17    7   15 1   
    18    8    9 ar  
    19    8   10 1   
    20    9   21 ar  
    21    9   38 1   
    22   10   11 ar  
    23   10   23 ar  
    24   11   12 ar  
    25   11   39 1   
    26   12   13 ar  
    27   12   14 1   
    28   13   22 ar  
    29   13   40 1   
    30   14   24 1   
    31   14   25 1   
    32   15   16 2   
    33   15   27 1   
    34   16   17 1   
    35   17   18 1   
    36   17   26 2   
    37   18   28 1   
    38   18   29 1   
    39   18   30 1   
    40   19   20 1   
    41   19   41 1   
    42   22   23 ar  
    43   23   42 1   
    44   26   27 1   
    45   26   43 1   
@<TRIPOS>SUBSTRUCTURE
     1 1YM         1 TEMP              0 ****  ****    0 ROOT
