@<TRIPOS>MOLECULE
1YN
   87    93     1     0     0
SMALL
bcc


@<TRIPOS>ATOM
      1 C12         0.4430    0.9010   -0.1300 ca        1 1YN     -0.124000
      2 C11         1.8530    0.8520   -0.1130 ca        1 1YN      0.035600
      3 C01         3.8710   -3.0290   -2.3130 c3        1 1YN     -0.098100
      4 C02         4.1720   -2.3780   -3.6360 c3        1 1YN     -0.108400
      5 C03         4.8740   -1.0220   -3.4810 c3        1 1YN      0.115700
      6 C04         5.4670   -0.6120   -4.8290 c3        1 1YN     -0.094100
      7 N05         4.0350    0.0490   -2.9240 n         1 1YN     -0.181800
      8 C06         3.8650    0.1390   -1.4820 c         1 1YN      0.741500
      9 O07         4.7000   -0.1400   -0.6100 o         1 1YN     -0.604500
     10 N08         2.5960    0.7990   -1.3060 n         1 1YN     -0.292500
     11 C09         2.0590    0.9230   -2.6160 cc        1 1YN      0.349800
     12 N10         2.8960    0.4600   -3.5480 n2        1 1YN     -0.487300
     13 C13        -0.2770    1.0040    1.0510 ca        1 1YN     -0.149000
     14 C14         0.3740    1.0530    2.3060 ca        1 1YN      0.125600
     15 C15         1.7840    0.9940    2.3130 ca        1 1YN     -0.149000
     16 C16         2.5110    0.8920    1.1340 ca        1 1YN     -0.124000
     17 N17        -0.4010    1.0700    3.4930 nh        1 1YN     -0.634000
     18 C18         0.3210    0.8580    4.7360 c3        1 1YN      0.181800
     19 C19        -0.6280    0.6930    5.9440 c3        1 1YN      0.181800
     20 N20        -1.5860    1.7800    6.0410 nh        1 1YN     -0.634000
     21 C21        -2.3130    1.9940    4.7980 c3        1 1YN      0.181800
     22 C22        -1.3700    2.1520    3.5870 c3        1 1YN      0.181800
     23 C23        -2.3800    1.8160    7.2180 ca        1 1YN      0.121600
     24 C24        -2.3910    0.7650    8.1610 ca        1 1YN     -0.150000
     25 C25        -3.1110    0.8750    9.3470 ca        1 1YN     -0.126500
     26 C26        -3.8510    2.0330    9.6040 ca        1 1YN      0.075100
     27 C27        -3.8640    3.0860    8.6800 ca        1 1YN     -0.126500
     28 C28        -3.1310    2.9820    7.5060 ca        1 1YN     -0.150000
     29 O29        -4.5040    2.2370   10.8130 os        1 1YN     -0.348900
     30 C30        -5.5070    1.2550   11.1050 c3        1 1YN      0.113400
     31 C31        -5.7320    1.3230   12.6150 c3        1 1YN      0.114100
     32 C32        -6.6490    2.4640   13.0580 c3        1 1YN      0.110400
     33 O33        -7.7860    1.8330   13.6590 os        1 1YN     -0.433600
     34 C34        -7.7380    0.4150   13.4420 c3        1 1YN      0.389900
     35 O35        -6.4040    0.1230   13.0320 os        1 1YN     -0.401600
     36 C36        -8.7250    0.1590   12.2590 c3        1 1YN      0.029300
     37 N37        -8.6190   -1.1150   11.5900 na        1 1YN     -0.052400
     38 C38        -9.6160   -2.1200   11.5720 cc        1 1YN      0.395400
     39 N39        -9.1890   -3.1580   10.8250 nd        1 1YN     -0.677000
     40 C40        -7.9130   -2.7500   10.3950 cd        1 1YN      0.499900
     41 N41        -7.5660   -1.5140   10.8520 nc        1 1YN     -0.502800
     42 C42        -8.0430   -0.2970   14.7390 ca        1 1YN     -0.073300
     43 C43        -7.2340   -0.1450   15.8810 ca        1 1YN      0.072400
     44 C44        -7.5310   -0.8210   17.0720 ca        1 1YN     -0.132000
     45 C45        -8.6490   -1.6510   17.1380 ca        1 1YN      0.038400
     46 C46        -9.4740   -1.8040   16.0210 ca        1 1YN     -0.130000
     47 C47        -9.1660   -1.1280   14.8440 ca        1 1YN     -0.096000
     48 CL8        -9.0090   -2.4710   18.5790 cl        1 1YN     -0.075400
     49 CL9        -5.8600    0.8580   15.9240 cl        1 1YN     -0.073400
     50 H1         -0.1100    0.8530   -1.0800 ha        1 1YN      0.151500
     51 H2          3.3620   -4.0100   -2.4730 hc        1 1YN      0.038700
     52 H3          3.2030   -2.3850   -1.6900 hc        1 1YN      0.038700
     53 H4          4.8110   -3.2080   -1.7360 hc        1 1YN      0.038700
     54 H6          3.2310   -2.2600   -4.2340 hc        1 1YN      0.055200
     55 H7          5.7140   -1.1340   -2.7280 h1        1 1YN      0.084700
     56 H8          5.9670    0.3830   -4.7610 hc        1 1YN      0.048700
     57 H9          6.2260   -1.3740   -5.1280 hc        1 1YN      0.048700
     58 H10         4.6750   -0.5620   -5.6140 hc        1 1YN      0.048700
     59 H11         1.0880    1.3910   -2.8160 h5        1 1YN      0.081800
     60 H12        -1.3760    1.0260    0.9930 ha        1 1YN      0.140500
     61 H13         2.3450    1.0290    3.2600 ha        1 1YN      0.140500
     62 H14         3.6130    0.8360    1.1820 ha        1 1YN      0.151500
     63 H15         1.0360    1.7050    4.9540 h1        1 1YN      0.047450
     64 H16         0.9160   -0.0940    4.6420 h1        1 1YN      0.047450
     65 H17         0.0050    0.6950    6.8750 h1        1 1YN      0.047200
     66 H18        -1.1390   -0.3100    5.8630 h1        1 1YN      0.047200
     67 H19        -3.0290    1.1470    4.5930 h1        1 1YN      0.047200
     68 H20        -2.9120    2.9430    4.8860 h1        1 1YN      0.047200
     69 H21        -0.8550    3.1550    3.6550 h1        1 1YN      0.047450
     70 H22        -2.0080    2.1500    2.6600 h1        1 1YN      0.047450
     71 H23        -1.8250   -0.1610    7.9800 ha        1 1YN      0.138000
     72 H24        -3.0960    0.0520   10.0770 ha        1 1YN      0.145000
     73 H25        -4.4400    3.9970    8.9010 ha        1 1YN      0.145000
     74 H26        -3.1330    3.8290    6.8030 ha        1 1YN      0.138000
     75 H27        -6.4390    1.5160   10.5380 h1        1 1YN      0.059200
     76 H28        -5.1730    0.2250   10.8170 h1        1 1YN      0.059200
     77 H29        -4.7470    1.3300   13.1550 h1        1 1YN      0.097700
     78 H30        -7.0110    3.0870   12.2020 h1        1 1YN      0.070200
     79 H31        -6.1880    3.1080   13.8480 h1        1 1YN      0.070200
     80 H32        -9.7770    0.2810   12.6340 h1        1 1YN      0.079200
     81 H33        -8.5190    0.9760   11.5050 h1        1 1YN      0.079200
     82 H34       -10.5810   -2.0300   12.0790 h5        1 1YN      0.068100
     83 H35        -7.2740   -3.3710    9.7590 h5        1 1YN      0.073100
     84 H36        -6.8810   -0.6940   17.9530 ha        1 1YN      0.165000
     85 H37       -10.3610   -2.4540   16.0670 ha        1 1YN      0.154000
     86 H38        -9.8420   -1.2740   13.9890 ha        1 1YN      0.134000
     87 H5          4.8560   -3.0450   -4.2280 hc        1 1YN      0.055200
@<TRIPOS>BOND
     1    1    2 ar  
     2    1   13 ar  
     3    1   50 1   
     4    2   10 1   
     5    2   16 ar  
     6    3    4 1   
     7    3   51 1   
     8    3   52 1   
     9    3   53 1   
    10    4    5 1   
    11    4   54 1   
    12    4   87 1   
    13    5    6 1   
    14    5    7 1   
    15    5   55 1   
    16    6   56 1   
    17    6   57 1   
    18    6   58 1   
    19    7    8 1   
    20    7   12 1   
    21    8    9 2   
    22    8   10 1   
    23   10   11 1   
    24   11   12 2   
    25   11   59 1   
    26   13   14 ar  
    27   13   60 1   
    28   14   15 ar  
    29   14   17 1   
    30   15   16 ar  
    31   15   61 1   
    32   16   62 1   
    33   17   18 1   
    34   17   22 1   
    35   18   19 1   
    36   18   63 1   
    37   18   64 1   
    38   19   20 1   
    39   19   65 1   
    40   19   66 1   
    41   20   21 1   
    42   20   23 1   
    43   21   22 1   
    44   21   67 1   
    45   21   68 1   
    46   22   69 1   
    47   22   70 1   
    48   23   24 ar  
    49   23   28 ar  
    50   24   25 ar  
    51   24   71 1   
    52   25   26 ar  
    53   25   72 1   
    54   26   27 ar  
    55   26   29 1   
    56   27   28 ar  
    57   27   73 1   
    58   28   74 1   
    59   29   30 1   
    60   30   31 1   
    61   30   75 1   
    62   30   76 1   
    63   31   32 1   
    64   31   35 1   
    65   31   77 1   
    66   32   33 1   
    67   32   78 1   
    68   32   79 1   
    69   33   34 1   
    70   34   35 1   
    71   34   36 1   
    72   34   42 1   
    73   36   37 1   
    74   36   80 1   
    75   36   81 1   
    76   37   38 1   
    77   37   41 1   
    78   38   39 2   
    79   38   82 1   
    80   39   40 1   
    81   40   41 2   
    82   40   83 1   
    83   42   43 ar  
    84   42   47 ar  
    85   43   44 ar  
    86   43   49 1   
    87   44   45 ar  
    88   44   84 1   
    89   45   46 ar  
    90   45   48 1   
    91   46   47 ar  
    92   46   85 1   
    93   47   86 1   
@<TRIPOS>SUBSTRUCTURE
     1 1YN         1 TEMP              0 ****  ****    0 ROOT
