@<TRIPOS>MOLECULE
1YN
   87    93     1     0     0
SMALL
bcc


@<TRIPOS>ATOM
      1 C12         0.0990    0.9520    0.1990 ca        1 1YN     -0.129000
      2 C11         1.3770    0.4010    0.4380 ca        1 1YN      0.042600
      3 C01         4.2080   -3.5830   -0.5160 c3        1 1YN     -0.098100
      4 C02         4.5280   -3.2440   -1.9470 c3        1 1YN     -0.108400
      5 C03         4.9700   -1.7840   -2.1240 c3        1 1YN      0.117700
      6 C04         5.6140   -1.6240   -3.5000 c3        1 1YN     -0.094100
      7 N05         3.9090   -0.7880   -1.9150 n         1 1YN     -0.183800
      8 C06         3.5930   -0.3580   -0.5630 c         1 1YN      0.744500
      9 O07         4.3760   -0.2590    0.3920 o         1 1YN     -0.607500
     10 N08         2.2250    0.0800   -0.6360 n         1 1YN     -0.296500
     11 C09         1.7980   -0.2420   -1.9520 cc        1 1YN      0.353800
     12 N10         2.7820   -0.7750   -2.6810 n2        1 1YN     -0.488300
     13 C13        -0.7380    1.2860    1.2530 ca        1 1YN     -0.146500
     14 C14        -0.3380    1.0990    2.5970 ca        1 1YN      0.123600
     15 C15         0.9480    0.5640    2.8260 ca        1 1YN     -0.146500
     16 C16         1.7860    0.2160    1.7750 ca        1 1YN     -0.129000
     17 N17        -1.2560    1.3710    3.6430 nh        1 1YN     -0.633000
     18 C18        -0.8690    0.9220    4.9700 c3        1 1YN      0.181800
     19 C19        -2.0100    1.0850    5.9990 c3        1 1YN      0.179800
     20 N20        -2.5450    2.4360    6.0110 nh        1 1YN     -0.630000
     21 C21        -2.9440    2.8830    4.6840 c3        1 1YN      0.179800
     22 C22        -1.8130    2.7160    3.6460 c3        1 1YN      0.181800
     23 C23        -3.4810    2.7270    7.0430 ca        1 1YN      0.097600
     24 C24        -4.0350    1.7340    7.8750 ca        1 1YN     -0.134000
     25 C25        -4.8800    2.0680    8.9310 ca        1 1YN     -0.152500
     26 C26        -5.1990    3.4080    9.1620 ca        1 1YN      0.087100
     27 C27        -4.6650    4.4180    8.3430 ca        1 1YN     -0.152500
     28 C28        -3.8140    4.0790    7.3020 ca        1 1YN     -0.134000
     29 O29        -6.0120    3.8640   10.1890 os        1 1YN     -0.329900
     30 C30        -6.7990    2.8900   10.8660 c3        1 1YN      0.106400
     31 C31        -5.9770    2.1930   11.9530 c3        1 1YN      0.082100
     32 C32        -6.4260    2.4960   13.3830 c3        1 1YN      0.111400
     33 O33        -6.7860    1.2320   13.9510 os        1 1YN     -0.431600
     34 C34        -6.8080    0.2180   12.9360 c3        1 1YN      0.392900
     35 O35        -6.1220    0.7680   11.8130 os        1 1YN     -0.408600
     36 C36        -8.3160    0.0400   12.5740 c3        1 1YN      0.031300
     37 N37        -8.6120   -0.7700   11.4180 na        1 1YN     -0.054400
     38 C38        -9.3610   -1.9720   11.4310 cc        1 1YN      0.394400
     39 N39        -9.4720   -2.4420   10.1740 nd        1 1YN     -0.676000
     40 C40        -8.7740   -1.4910    9.4050 cd        1 1YN      0.500900
     41 N41        -8.2560   -0.4780   10.1540 nc        1 1YN     -0.502800
     42 C42        -6.0880   -1.0060   13.4500 ca        1 1YN     -0.074300
     43 C43        -4.7100   -1.0000   13.7350 ca        1 1YN      0.072400
     44 C44        -4.0640   -2.1560   14.1930 ca        1 1YN     -0.132000
     45 C45        -4.7930   -3.3280   14.3920 ca        1 1YN      0.038400
     46 C46        -6.1680   -3.3450   14.1450 ca        1 1YN     -0.130000
     47 C47        -6.7970   -2.1920   13.6850 ca        1 1YN     -0.095000
     48 CL8        -4.0100   -4.7290   14.9420 cl        1 1YN     -0.074400
     49 CL9        -3.7290    0.3800   13.5780 cl        1 1YN     -0.073400
     50 H1         -0.2530    1.1290   -0.8290 ha        1 1YN      0.150500
     51 H2          3.8940   -4.6510   -0.4340 hc        1 1YN      0.038367
     52 H3          5.1000   -3.4240    0.1380 hc        1 1YN      0.038367
     53 H4          3.3780   -2.9430   -0.1260 hc        1 1YN      0.038367
     54 H6          3.6460   -3.4630   -2.6040 hc        1 1YN      0.055200
     55 H7          5.7380   -1.5410   -1.3270 h1        1 1YN      0.084700
     56 H8          6.5170   -2.2790   -3.5470 hc        1 1YN      0.048700
     57 H9          5.9300   -0.5680   -3.6740 hc        1 1YN      0.048700
     58 H10         4.9070   -1.9240   -4.3090 hc        1 1YN      0.048700
     59 H11         0.7790   -0.0530   -2.3090 h5        1 1YN      0.081800
     60 H12        -1.7340    1.6940    1.0200 ha        1 1YN      0.140500
     61 H13         1.3200    0.4100    3.8510 ha        1 1YN      0.140500
     62 H14         2.7870   -0.1920    2.0000 ha        1 1YN      0.150500
     63 H15        -0.6190   -0.1740    4.9130 h1        1 1YN      0.046450
     64 H16         0.0390    1.4760    5.3490 h1        1 1YN      0.046450
     65 H17        -2.8070    0.3180    5.7730 h1        1 1YN      0.046700
     66 H18        -1.5830    0.8650    7.0170 h1        1 1YN      0.046700
     67 H19        -3.8560    2.3270    4.3190 h1        1 1YN      0.046700
     68 H20        -3.1990    3.9780    4.7340 h1        1 1YN      0.046700
     69 H21        -2.2520    2.9300    2.6330 h1        1 1YN      0.046450
     70 H22        -1.0150    3.4870    3.8520 h1        1 1YN      0.046450
     71 H23        -3.8100    0.6690    7.7130 ha        1 1YN      0.138000
     72 H24        -5.2870    1.2700    9.5730 ha        1 1YN      0.154500
     73 H25        -4.9210    5.4680    8.5410 ha        1 1YN      0.154500
     74 H26        -3.3890    4.8840    6.6820 ha        1 1YN      0.138000
     75 H27        -7.6290    3.5040   11.3130 h1        1 1YN      0.079700
     76 H28        -7.2250    2.1360   10.1530 h1        1 1YN      0.079700
     77 H29        -4.8830    2.4040   11.8010 h1        1 1YN      0.100700
     78 H30        -7.3240    3.1630   13.4340 h1        1 1YN      0.067700
     79 H31        -5.5990    2.9050   14.0170 h1        1 1YN      0.067700
     80 H32        -8.7120    1.0830   12.3920 h1        1 1YN      0.077700
     81 H33        -8.8500   -0.3950   13.4630 h1        1 1YN      0.077700
     82 H34        -9.7830   -2.4150   12.3380 h5        1 1YN      0.068100
     83 H35        -8.6650   -1.5700    8.3180 h5        1 1YN      0.074100
     84 H36        -2.9810   -2.1350   14.3990 ha        1 1YN      0.166000
     85 H37        -6.7540   -4.2630   14.3110 ha        1 1YN      0.155000
     86 H38        -7.8820   -2.2440   13.5160 ha        1 1YN      0.134000
     87 H5          5.3710   -3.8960   -2.3000 hc        1 1YN      0.055200
@<TRIPOS>BOND
     1    1    2 ar  
     2    1   13 ar  
     3    1   50 1   
     4    2   10 1   
     5    2   16 ar  
     6    3    4 1   
     7    3   51 1   
     8    3   52 1   
     9    3   53 1   
    10    4    5 1   
    11    4   54 1   
    12    4   87 1   
    13    5    6 1   
    14    5    7 1   
    15    5   55 1   
    16    6   56 1   
    17    6   57 1   
    18    6   58 1   
    19    7    8 1   
    20    7   12 1   
    21    8    9 2   
    22    8   10 1   
    23   10   11 1   
    24   11   12 2   
    25   11   59 1   
    26   13   14 ar  
    27   13   60 1   
    28   14   15 ar  
    29   14   17 1   
    30   15   16 ar  
    31   15   61 1   
    32   16   62 1   
    33   17   18 1   
    34   17   22 1   
    35   18   19 1   
    36   18   63 1   
    37   18   64 1   
    38   19   20 1   
    39   19   65 1   
    40   19   66 1   
    41   20   21 1   
    42   20   23 1   
    43   21   22 1   
    44   21   67 1   
    45   21   68 1   
    46   22   69 1   
    47   22   70 1   
    48   23   24 ar  
    49   23   28 ar  
    50   24   25 ar  
    51   24   71 1   
    52   25   26 ar  
    53   25   72 1   
    54   26   27 ar  
    55   26   29 1   
    56   27   28 ar  
    57   27   73 1   
    58   28   74 1   
    59   29   30 1   
    60   30   31 1   
    61   30   75 1   
    62   30   76 1   
    63   31   32 1   
    64   31   35 1   
    65   31   77 1   
    66   32   33 1   
    67   32   78 1   
    68   32   79 1   
    69   33   34 1   
    70   34   35 1   
    71   34   36 1   
    72   34   42 1   
    73   36   37 1   
    74   36   80 1   
    75   36   81 1   
    76   37   38 1   
    77   37   41 1   
    78   38   39 2   
    79   38   82 1   
    80   39   40 1   
    81   40   41 2   
    82   40   83 1   
    83   42   43 ar  
    84   42   47 ar  
    85   43   44 ar  
    86   43   49 1   
    87   44   45 ar  
    88   44   84 1   
    89   45   46 ar  
    90   45   48 1   
    91   46   47 ar  
    92   46   85 1   
    93   47   86 1   
@<TRIPOS>SUBSTRUCTURE
     1 1YN         1 TEMP              0 ****  ****    0 ROOT
