@<TRIPOS>MOLECULE
1YN
   87    93     1     0     0
SMALL
bcc


@<TRIPOS>ATOM
      1 C12         0.1230    0.7830   -0.2580 ca        1 1YN     -0.130000
      2 C11         1.5180    0.5630   -0.2890 ca        1 1YN      0.044600
      3 C01         4.9800   -2.6140   -1.9540 c3        1 1YN     -0.098100
      4 C02         4.9250   -2.2040   -3.4010 c3        1 1YN     -0.108400
      5 C03         4.9620   -0.6800   -3.5840 c3        1 1YN      0.117700
      6 C04         5.2680   -0.3620   -5.0470 c3        1 1YN     -0.094100
      7 N05         3.7550    0.0260   -3.1310 n         1 1YN     -0.183800
      8 C06         3.6130    0.3630   -1.7240 c         1 1YN      0.745500
      9 O07         4.5200    0.6480   -0.9290 o         1 1YN     -0.607500
     10 N08         2.1930    0.4540   -1.5170 n         1 1YN     -0.297500
     11 C09         1.6090    0.0410   -2.7440 cc        1 1YN      0.353800
     12 N10         2.5300   -0.2350   -3.6700 n2        1 1YN     -0.487300
     13 C13        -0.5480    0.9070    0.9490 ca        1 1YN     -0.145500
     14 C14         0.1380    0.8280    2.1830 ca        1 1YN      0.121600
     15 C15         1.5340    0.6250    2.1410 ca        1 1YN     -0.145500
     16 C16         2.2100    0.4870    0.9360 ca        1 1YN     -0.130000
     17 N17        -0.5980    0.8730    3.3950 nh        1 1YN     -0.633000
     18 C18         0.1330    0.5280    4.6030 c3        1 1YN      0.181300
     19 C19        -0.7950    0.4110    5.8330 c3        1 1YN      0.182300
     20 N20        -1.6250    1.5900    6.0100 nh        1 1YN     -0.634000
     21 C21        -2.3570    1.9420    4.8010 c3        1 1YN      0.182300
     22 C22        -1.4360    2.0510    3.5670 c3        1 1YN      0.181300
     23 C23        -2.3770    1.6570    7.2110 ca        1 1YN      0.122600
     24 C24        -2.4770    0.5700    8.1080 ca        1 1YN     -0.150500
     25 C25        -3.1470    0.7010    9.3200 ca        1 1YN     -0.126500
     26 C26        -3.7490    1.9180    9.6520 ca        1 1YN      0.075100
     27 C27        -3.6730    3.0090    8.7750 ca        1 1YN     -0.126500
     28 C28        -2.9880    2.8810    7.5750 ca        1 1YN     -0.150500
     29 O29        -4.3430    2.1340   10.8880 os        1 1YN     -0.347900
     30 C30        -5.4390    1.2530   11.1690 c3        1 1YN      0.112400
     31 C31        -5.6140    1.2750   12.6870 c3        1 1YN      0.114100
     32 C32        -6.4100    2.4740   13.2060 c3        1 1YN      0.110400
     33 O33        -7.5840    1.9230   13.8150 os        1 1YN     -0.433600
     34 C34        -7.6720    0.5170   13.5400 c3        1 1YN      0.389900
     35 O35        -6.3820    0.1240   13.0760 os        1 1YN     -0.401600
     36 C36        -8.7100    0.4020   12.3780 c3        1 1YN      0.029300
     37 N37        -8.7440   -0.8490   11.6610 na        1 1YN     -0.052400
     38 C38        -9.8340   -1.7510   11.6330 cc        1 1YN      0.395400
     39 N39        -9.5290   -2.7950   10.8370 nd        1 1YN     -0.677000
     40 C40        -8.2290   -2.4950   10.3860 cd        1 1YN      0.498900
     41 N41        -7.7540   -1.3170   10.8790 nc        1 1YN     -0.502800
     42 C42        -8.0050   -0.2190   14.8160 ca        1 1YN     -0.073300
     43 C43        -7.1530   -0.1930   15.9350 ca        1 1YN      0.072400
     44 C44        -7.4780   -0.8900   17.1070 ca        1 1YN     -0.132000
     45 C45        -8.6670   -1.6150   17.1760 ca        1 1YN      0.038400
     46 C46        -9.5350   -1.6410   16.0810 ca        1 1YN     -0.130000
     47 C47        -9.1980   -0.9460   14.9240 ca        1 1YN     -0.096000
     48 Cl8        -9.0600   -2.4600   18.5930 cl        1 1YN     -0.075400
     49 Cl9        -5.6910    0.6760   15.9750 cl        1 1YN     -0.073400
     50 H1         -0.4540    0.8650   -1.1910 ha        1 1YN      0.151000
     51 H2          5.9180   -2.2440   -1.4720 hc        1 1YN      0.038367
     52 H3          4.1130   -2.1980   -1.3840 hc        1 1YN      0.038367
     53 H4          4.9530   -3.7270   -1.8690 hc        1 1YN      0.038367
     54 H6          5.8150   -2.6280   -3.9390 hc        1 1YN      0.055700
     55 H7          5.7890   -0.2570   -2.9350 h1        1 1YN      0.084700
     56 H8          6.2750   -0.7760   -5.2950 hc        1 1YN      0.049367
     57 H9          4.5100   -0.8240   -5.7230 hc        1 1YN      0.049367
     58 H10         5.2820    0.7400   -5.2240 hc        1 1YN      0.049367
     59 H11         0.5250   -0.0230   -2.8940 h5        1 1YN      0.081800
     60 H12        -1.6390    1.0580    0.9280 ha        1 1YN      0.140500
     61 H13         2.1240    0.5700    3.0700 ha        1 1YN      0.140500
     62 H14         3.3040    0.3370    0.9510 ha        1 1YN      0.151000
     63 H15         0.6170   -0.4760    4.4490 h1        1 1YN      0.047700
     64 H16         0.9410    1.2830    4.8330 h1        1 1YN      0.047700
     65 H17        -1.4150   -0.5260    5.7260 h1        1 1YN      0.046700
     66 H18        -0.1390    0.3010    6.7420 h1        1 1YN      0.046700
     67 H19        -2.8420    2.9460    4.9500 h1        1 1YN      0.046700
     68 H20        -3.1690    1.1890    4.5820 h1        1 1YN      0.046700
     69 H21        -2.0960    2.1630    2.6630 h1        1 1YN      0.047700
     70 H22        -0.8110    2.9860    3.6630 h1        1 1YN      0.047700
     71 H23        -2.0210   -0.4030    7.8690 ha        1 1YN      0.138500
     72 H24        -3.2020   -0.1520   10.0120 ha        1 1YN      0.145000
     73 H25        -4.1390    3.9650    9.0550 ha        1 1YN      0.145000
     74 H26        -2.9170    3.7560    6.9100 ha        1 1YN      0.138500
     75 H27        -5.2260    0.2070   10.8280 h1        1 1YN      0.059700
     76 H28        -6.3510    1.6380   10.6430 h1        1 1YN      0.059700
     77 H29        -4.6190    1.1700   13.1950 h1        1 1YN      0.098700
     78 H30        -5.8700    3.0380   14.0080 h1        1 1YN      0.070200
     79 H31        -6.7360    3.1650   12.3890 h1        1 1YN      0.070200
     80 H32        -8.4470    1.2260   11.6490 h1        1 1YN      0.079200
     81 H33        -9.7350    0.6080   12.7890 h1        1 1YN      0.079200
     82 H34       -10.7730   -1.5890   12.1700 h5        1 1YN      0.068100
     83 H35        -7.6700   -3.1490    9.7100 h5        1 1YN      0.073100
     84 H36        -6.7940   -0.8630   17.9710 ha        1 1YN      0.165000
     85 H37       -10.4780   -2.2070   16.1300 ha        1 1YN      0.154000
     86 H38        -9.9100   -0.9890   14.0860 ha        1 1YN      0.134000
     87 H5          4.0110   -2.6300   -3.8910 hc        1 1YN      0.055700
@<TRIPOS>BOND
     1    1    2 ar  
     2    1   13 ar  
     3    1   50 1   
     4    2   10 1   
     5    2   16 ar  
     6    3    4 1   
     7    3   51 1   
     8    3   52 1   
     9    3   53 1   
    10    4    5 1   
    11    4   54 1   
    12    4   87 1   
    13    5    6 1   
    14    5    7 1   
    15    5   55 1   
    16    6   56 1   
    17    6   57 1   
    18    6   58 1   
    19    7    8 1   
    20    7   12 1   
    21    8    9 2   
    22    8   10 1   
    23   10   11 1   
    24   11   12 2   
    25   11   59 1   
    26   13   14 ar  
    27   13   60 1   
    28   14   15 ar  
    29   14   17 1   
    30   15   16 ar  
    31   15   61 1   
    32   16   62 1   
    33   17   18 1   
    34   17   22 1   
    35   18   19 1   
    36   18   63 1   
    37   18   64 1   
    38   19   20 1   
    39   19   65 1   
    40   19   66 1   
    41   20   21 1   
    42   20   23 1   
    43   21   22 1   
    44   21   67 1   
    45   21   68 1   
    46   22   69 1   
    47   22   70 1   
    48   23   24 ar  
    49   23   28 ar  
    50   24   25 ar  
    51   24   71 1   
    52   25   26 ar  
    53   25   72 1   
    54   26   27 ar  
    55   26   29 1   
    56   27   28 ar  
    57   27   73 1   
    58   28   74 1   
    59   29   30 1   
    60   30   31 1   
    61   30   75 1   
    62   30   76 1   
    63   31   32 1   
    64   31   35 1   
    65   31   77 1   
    66   32   33 1   
    67   32   78 1   
    68   32   79 1   
    69   33   34 1   
    70   34   35 1   
    71   34   36 1   
    72   34   42 1   
    73   36   37 1   
    74   36   80 1   
    75   36   81 1   
    76   37   38 1   
    77   37   41 1   
    78   38   39 2   
    79   38   82 1   
    80   39   40 1   
    81   40   41 2   
    82   40   83 1   
    83   42   43 ar  
    84   42   47 ar  
    85   43   44 ar  
    86   43   49 1   
    87   44   45 ar  
    88   44   84 1   
    89   45   46 ar  
    90   45   48 1   
    91   46   47 ar  
    92   46   85 1   
    93   47   86 1   
@<TRIPOS>SUBSTRUCTURE
     1 1YN         1 TEMP              0 ****  ****    0 ROOT
