@<TRIPOS>MOLECULE
1YO
   27    27     1     0     0
SMALL
bcc


@<TRIPOS>ATOM
      1 CAA         0.0250   -0.3170    0.0060 c3        1 1YO     -0.193000
      2 CAC         3.5100    0.4780   -0.6110 c2        1 1YO     -0.198000
      3 CAD         3.4320    0.6530    3.4820 c1        1 1YO      0.209000
      4 CAE         2.4580   -0.3310   -0.4860 c2        1 1YO     -0.143000
      5 CAF         3.0170    0.0860    2.3690 c2        1 1YO     -0.448000
      6 CAG        -2.6090   -1.6240    6.2450 c1        1 1YO     -0.118000
      7 CAH         0.5730    0.1430    2.8340 c3        1 1YO     -0.254000
      8 CAL         1.4140   -0.2010    0.5230 c2        1 1YO     -0.037000
      9 CAM         1.6680   -0.0030    1.8420 c2        1 1YO     -0.045000
     10 CAN        -1.0180   -1.2440    4.5280 c2        1 1YO     -0.359000
     11 NAI        -2.6580   -0.4010    5.7700 n2        1 1YO     -0.223000
     12 NAJ        -1.7540   -0.1690    4.7870 n2        1 1YO      0.003000
     13 NAO        -1.4570   -2.3820    5.4570 nx        1 1YO     -0.022000
     14 SAK         0.2320   -1.4970    3.4400 ss        1 1YO      0.329000
     15 HAC        -0.5650   -1.0470    0.6170 hc        1 1YO      0.093333
     16 HAA         0.0150   -0.6600   -1.0570 hc        1 1YO      0.093333
     17 HAB        -0.4850    0.6780    0.0570 hc        1 1YO      0.093333
     18 HAD         2.3010   -1.1650   -1.1950 ha        1 1YO      0.132000
     19 HAE         4.2540    0.3430   -1.4070 ha        1 1YO      0.121000
     20 HAF         3.6880    1.3340    0.0550 ha        1 1YO      0.121000
     21 HAG         3.8050   -0.3870    1.7350 ha        1 1YO      0.204000
     22 HAH        -0.6900   -2.5960    6.1060 hn        1 1YO      0.250000
     23 HAI         0.8760    0.8110    3.6800 h1        1 1YO      0.132500
     24 HAJ        -0.3450    0.5870    2.3720 h1        1 1YO      0.132500
     25 HAL        -2.3930   -4.0940    5.4780 hn        1 1YO      0.181500
     26 HAK        -2.3650   -3.3650    4.0130 hn        1 1YO      0.181500
     27 NAB        -1.8050   -3.5760    4.8300 n8        1 1YO     -0.236000
@<TRIPOS>BOND
     1    1    8 1   
     2    1   15 1   
     3    1   16 1   
     4    1   17 1   
     5    2    4 1   
     6    2   19 1   
     7    2   20 1   
     8    3    5 1   
     9    4    8 1   
    10    4   18 1   
    11    5    9 1   
    12    5   21 1   
    13    6   11 1   
    14    6   13 1   
    15    7    9 1   
    16    7   14 1   
    17    7   23 1   
    18    7   24 1   
    19    8    9 1   
    20   10   12 1   
    21   10   13 1   
    22   10   14 1   
    23   11   12 1   
    24   13   22 1   
    25   13   27 1   
    26   25   27 1   
    27   26   27 1   
@<TRIPOS>SUBSTRUCTURE
     1 1YO         1 TEMP              0 ****  ****    0 ROOT
