@<TRIPOS>MOLECULE
1YO
   27    27     1     0     0
SMALL
bcc


@<TRIPOS>ATOM
      1 CAA         0.1700   -0.2960    0.0320 c3        1 1YO     -0.193000
      2 CAC         3.6830    0.4920   -0.4180 c2        1 1YO     -0.198000
      3 CAD         3.4170    0.6330    3.6680 c1        1 1YO      0.209000
      4 CAE         2.6230   -0.3150   -0.3480 c2        1 1YO     -0.143000
      5 CAF         3.0510    0.0760    2.5320 c2        1 1YO     -0.448000
      6 CAG        -2.7480   -1.6440    6.1360 c1        1 1YO     -0.118000
      7 CAH         0.5890    0.1390    2.8850 c3        1 1YO     -0.254000
      8 CAL         1.5340   -0.1900    0.6130 c2        1 1YO     -0.037000
      9 CAM         1.7280   -0.0030    1.9440 c2        1 1YO     -0.045000
     10 CAN        -1.0810   -1.2560    4.4940 c2        1 1YO     -0.359000
     11 NAI        -2.7720   -0.4180    5.6680 n2        1 1YO     -0.223000
     12 NAJ        -1.8250   -0.1820    4.7280 n2        1 1YO      0.003000
     13 NAO        -1.5650   -2.4000    5.3940 n4        1 1YO     -0.022000
     14 SAK         0.2160   -1.5050    3.4620 ss        1 1YO      0.329000
     15 HAC        -0.4500   -1.0290    0.6080 hc        1 1YO      0.093333
     16 HAA        -0.3390    0.7010    0.0670 hc        1 1YO      0.093333
     17 HAB         0.2080   -0.6300   -1.0340 hc        1 1YO      0.093333
     18 HAD         2.4960   -1.1420   -1.0710 ha        1 1YO      0.132000
     19 HAE         4.4620    0.3600   -1.1810 ha        1 1YO      0.121000
     20 HAF         3.8330    1.3410    0.2630 ha        1 1YO      0.121000
     21 HAG         3.8670   -0.3940    1.9310 ha        1 1YO      0.204000
     22 HAH        -0.8280   -2.6220    6.0750 hn        1 1YO      0.250000
     23 HAI        -0.3050    0.5890    2.3850 h1        1 1YO      0.132500
     24 HAJ         0.8540    0.7990    3.7490 h1        1 1YO      0.132500
     25 HAL        -2.5050   -4.1100    5.3590 hn        1 1YO      0.181500
     26 HAK        -2.4100   -3.3690    3.9020 hn        1 1YO      0.181500
     27 NAB        -1.8870   -3.5880    4.7430 n3        1 1YO     -0.236000
@<TRIPOS>BOND
     1    1    8 1   
     2    1   15 1   
     3    1   16 1   
     4    1   17 1   
     5    2    4 1   
     6    2   19 1   
     7    2   20 1   
     8    3    5 1   
     9    4    8 1   
    10    4   18 1   
    11    5    9 1   
    12    5   21 1   
    13    6   11 1   
    14    6   13 1   
    15    7    9 1   
    16    7   14 1   
    17    7   23 1   
    18    7   24 1   
    19    8    9 1   
    20   10   12 1   
    21   10   13 1   
    22   10   14 1   
    23   11   12 1   
    24   13   22 1   
    25   13   27 1   
    26   25   27 1   
    27   26   27 1   
@<TRIPOS>SUBSTRUCTURE
     1 1YO         1 TEMP              0 ****  ****    0 ROOT
