@<TRIPOS>MOLECULE
1YO
   27    27     1     0     0
SMALL
bcc


@<TRIPOS>ATOM
      1 CAA        -0.0020   -0.3040    0.0150 c3        1 1YO     -0.193000
      2 CAC         3.4710    0.5230   -0.6310 c2        1 1YO     -0.198000
      3 CAD         3.4320    0.6690    3.4640 c1        1 1YO      0.209000
      4 CAE         2.4260   -0.2960   -0.5010 c2        1 1YO     -0.143000
      5 CAF         3.0100    0.1060    2.3500 c2        1 1YO     -0.448000
      6 CAG        -2.5640   -1.6740    6.2690 c1        1 1YO     -0.118000
      7 CAH         0.5710    0.1410    2.8400 c3        1 1YO     -0.254000
      8 CAL         1.3910   -0.1810    0.5190 c2        1 1YO     -0.037000
      9 CAM         1.6570    0.0100    1.8360 c2        1 1YO     -0.045000
     10 CAN        -0.9930   -1.2700    4.5390 c2        1 1YO     -0.359000
     11 NAI        -2.6270   -0.4480    5.8040 n2        1 1YO     -0.223000
     12 NAJ        -1.7340   -0.2030    4.8130 n2        1 1YO      0.003000
     13 NAO        -1.4150   -2.4180    5.4630 n4        1 1YO     -0.021000
     14 SAK         0.2470   -1.5060    3.4370 ss        1 1YO      0.329000
     15 HAC        -0.5800   -1.0430    0.6260 hc        1 1YO      0.093333
     16 HAA        -0.0190   -0.6400   -1.0510 hc        1 1YO      0.093333
     17 HAB        -0.5190    0.6870    0.0770 hc        1 1YO      0.093333
     18 HAD         2.2690   -1.1260   -1.2150 ha        1 1YO      0.132000
     19 HAE         4.2080    0.3990   -1.4360 ha        1 1YO      0.121000
     20 HAF         3.6490    1.3760    0.0390 ha        1 1YO      0.121000
     21 HAG         3.7960   -0.3560    1.7050 ha        1 1YO      0.204000
     22 HAH        -0.6400   -2.6330    6.1030 hn        1 1YO      0.250000
     23 HAI         0.8760    0.8050    3.6880 h1        1 1YO      0.132500
     24 HAJ        -0.3550    0.5810    2.3900 h1        1 1YO      0.132500
     25 HAL        -2.3390   -4.1380    5.4790 hn        1 1YO      0.181500
     26 HAK        -2.3310   -3.3970    4.0200 hn        1 1YO      0.181500
     27 NAB        -1.7610   -3.6100    4.8310 n3        1 1YO     -0.236000
@<TRIPOS>BOND
     1    1    8 1   
     2    1   15 1   
     3    1   16 1   
     4    1   17 1   
     5    2    4 1   
     6    2   19 1   
     7    2   20 1   
     8    3    5 1   
     9    4    8 1   
    10    4   18 1   
    11    5    9 1   
    12    5   21 1   
    13    6   11 1   
    14    6   13 1   
    15    7    9 1   
    16    7   14 1   
    17    7   23 1   
    18    7   24 1   
    19    8    9 1   
    20   10   12 1   
    21   10   13 1   
    22   10   14 1   
    23   11   12 1   
    24   13   22 1   
    25   13   27 1   
    26   25   27 1   
    27   26   27 1   
@<TRIPOS>SUBSTRUCTURE
     1 1YO         1 TEMP              0 ****  ****    0 ROOT
