@<TRIPOS>MOLECULE
1YP
   48    50     1     0     0
SMALL
bcc


@<TRIPOS>ATOM
      1 C1          0.1760   -0.5410   -0.5870 c3        1 1YP     -0.256000
      2 C2          1.4580   -0.2760    0.1740 c3        1 1YP     -0.127000
      3 C3          2.6150    1.0540    1.9620 c2        1 1YP      0.342000
      4 N6         13.6210    1.3670    0.9390 ns        1 1YP     -0.271000
      5 C7          7.3380    0.4750    3.4120 c2        1 1YP     -0.061000
      6 C8          6.7800    0.5920    2.1340 c2        1 1YP     -0.028000
      7 C9          8.7240    0.5490    3.9100 c2        1 1YP      0.028000
      8 C10         9.8370    0.7870    3.0310 c2        1 1YP     -0.075000
      9 C11        11.1180    0.8020    3.4470 c2        1 1YP     -0.081000
     10 C12        12.2090    0.1100    6.9880 c1        1 1YP      0.035000
     11 C13         8.7230    0.3550    5.2640 c2        1 1YP     -0.525000
     12 C14        12.2330    1.0350    2.5620 c2        1 1YP      0.019000
     13 C15        14.4280    1.2300    2.1070 c2        1 1YP      0.342000
     14 C16         7.3030    0.1410    5.7450 c2        1 1YP      0.048000
     15 N1          1.2670    0.6690    1.3120 ny        1 1YP     -0.116000
     16 O1          2.9140    2.2310    1.7740 o         1 1YP     -0.205000
     17 N2          3.2320    0.1030    2.7470 ns        1 1YP     -0.246000
     18 C4          4.6480    0.2410    2.9860 c2        1 1YP      0.021000
     19 C5          5.1020    0.1150    4.3300 c2        1 1YP     -0.081000
     20 C6          6.4680    0.2300    4.5160 c2        1 1YP     -0.010000
     21 N3          5.4570    0.4730    1.9150 n2        1 1YP     -0.152000
     22 N4         13.3100   -0.0150    7.3640 n2        1 1YP     -0.278000
     23 N5         12.3130    1.3130    1.2580 n2        1 1YP     -0.042000
     24 O2         15.6280    1.2240    2.3320 o         1 1YP     -0.260000
     25 O3         13.5220    0.9600    3.1560 os        1 1YP     -0.194000
     26 N7          6.8450   -0.0780    6.9320 n2        1 1YP     -0.117000
     27 C17         7.7870   -0.1070    8.0580 c3        1 1YP      0.041000
     28 C18         9.1410    0.0450    7.6040 c1        1 1YP     -0.998000
     29 S1          9.9580    0.2710    6.4980 ss        1 1YP      1.394000
     30 F1          7.8310   -2.5860    8.2360 f         1 1YP     -0.156333
     31 F2          8.4010   -1.4640   10.0160 f         1 1YP     -0.156333
     32 F3          6.3210   -1.5580    9.4130 f         1 1YP     -0.156333
     33 H1         -0.2380    0.3950   -1.0380 hc        1 1YP      0.121333
     34 H2          0.4080   -1.2540   -1.4200 hc        1 1YP      0.121333
     35 H3         -0.6040   -1.0080    0.0630 hc        1 1YP      0.121333
     36 H4          2.2320    0.1760   -0.5140 hx        1 1YP      0.147000
     37 H5          1.8670   -1.2420    0.5880 hx        1 1YP      0.147000
     38 H6         13.8900    1.9250    0.1560 hn        1 1YP      0.288000
     39 H7          7.3960    0.7840    1.2350 h4        1 1YP      0.187000
     40 H8          9.5840    0.9590    1.9690 ha        1 1YP      0.151000
     41 H9         11.4070    0.6290    4.5010 ha        1 1YP      0.157000
     42 H10        14.2250   -0.1200    7.6750 hn        1 1YP      0.308000
     43 H11         0.6270    0.2660    2.0010 hn        1 1YP      0.257000
     44 H12         2.9100   -0.8440    2.7280 hn        1 1YP      0.251000
     45 H13         4.4160   -0.0650    5.1700 ha        1 1YP      0.183000
     46 H14         7.4910    0.7460    8.7480 h1        1 1YP      0.178000
     47 C19         7.5910   -1.4210    8.9150 c3        1 1YP      0.449000
     48 H121        0.8500    1.5440    0.9610 hn        1 1YP      0.257000
@<TRIPOS>BOND
     1    1    2 1   
     2    1   33 1   
     3    1   34 1   
     4    1   35 1   
     5    2   15 1   
     6    2   36 1   
     7    2   37 1   
     8    3   15 1   
     9    3   16 1   
    10    3   17 1   
    11    4   13 1   
    12    4   23 1   
    13    4   38 1   
    14    5    6 1   
    15    5    7 1   
    16    5   20 1   
    17    6   21 1   
    18    6   39 1   
    19    7    8 1   
    20    7   11 1   
    21    8    9 1   
    22    8   40 1   
    23    9   12 1   
    24    9   41 1   
    25   10   22 1   
    26   11   14 1   
    27   11   29 1   
    28   12   23 1   
    29   12   25 1   
    30   13   24 1   
    31   13   25 1   
    32   14   20 1   
    33   14   26 1   
    34   15   43 1   
    35   15   48 1   
    36   17   18 1   
    37   17   44 1   
    38   18   19 1   
    39   18   21 1   
    40   19   20 1   
    41   19   45 1   
    42   22   42 1   
    43   26   27 1   
    44   27   28 1   
    45   27   46 1   
    46   27   47 1   
    47   28   29 1   
    48   30   47 1   
    49   31   47 1   
    50   32   47 1   
@<TRIPOS>SUBSTRUCTURE
     1 1YP         1 TEMP              0 ****  ****    0 ROOT
