@<TRIPOS>MOLECULE
1YP
   47    50     1     0     0
SMALL
bcc


@<TRIPOS>ATOM
      1 C1          8.4050   -4.0490    0.3150 c3        1 1YP     -0.107100
      2 C2          6.8990   -3.9960    0.5090 c3        1 1YP      0.083000
      3 C3          4.9630   -2.5210    0.4380 c         1 1YP      0.765100
      4 N6         -5.5520   -2.8290    1.8960 n         1 1YP     -0.286900
      5 C7          0.3040   -0.7740   -0.7710 cp        1 1YP     -0.210300
      6 C8          0.9560   -2.0240   -0.8670 ca        1 1YP      0.452200
      7 C9         -1.1240   -0.7070   -1.0550 cp        1 1YP     -0.156300
      8 C10        -2.0530   -1.3100   -0.1930 ca        1 1YP     -0.035000
      9 C11        -3.4120   -1.2620   -0.5250 ca        1 1YP     -0.232200
     10 C12        -3.7990   -0.6090   -1.7230 ca        1 1YP      0.443200
     11 C13        -1.6110   -0.0830   -2.2280 ca        1 1YP      0.406200
     12 C14        -4.4110   -1.8660    0.3280 cc        1 1YP      0.555200
     13 C15        -6.5070   -2.4390    0.9110 c         1 1YP      0.770600
     14 C16         0.5040    1.6690   -0.2510 cc        1 1YP      0.411900
     15 N1          6.3390   -2.6950    0.2160 n         1 1YP     -0.548900
     16 O1          4.3000   -3.3490    1.0920 o         1 1YP     -0.574100
     17 N2          4.3910   -1.3070   -0.0550 n         1 1YP     -0.565400
     18 C4          3.0100   -1.1550   -0.2550 ca        1 1YP      0.561200
     19 C5          2.4420    0.1490   -0.1280 ca        1 1YP     -0.264300
     20 C6          1.0820    0.3370   -0.3900 ca        1 1YP     -0.036500
     21 N3          2.2550   -2.2360   -0.6340 nb        1 1YP     -0.666000
     22 N4         -2.9190   -0.0340   -2.5570 nb        1 1YP     -0.657000
     23 N5         -4.3010   -2.5350    1.4770 nd        1 1YP     -0.473300
     24 O2         -7.7240   -2.5000    0.8190 o         1 1YP     -0.543500
     25 O3         -5.7690   -1.7580   -0.0810 os        1 1YP     -0.415700
     26 N7          1.0330    2.6400    0.5110 nd        1 1YP     -0.575000
     27 C17         0.2530    3.7770    0.4000 cd        1 1YP      0.242600
     28 C18        -0.8530    3.6660   -0.4400 cc        1 1YP     -0.223400
     29 S1         -0.9320    2.1460   -1.0860 ss        1 1YP      0.027700
     30 F1         -0.2320    6.0850    0.9520 f         1 1YP     -0.228967
     31 F2          0.6460    4.8810    2.5300 f         1 1YP     -0.228967
     32 F3          1.8650    5.5370    0.8550 f         1 1YP     -0.228967
     33 H1          8.7590   -5.0740    0.5790 hc        1 1YP      0.045033
     34 H2          8.6860   -3.8390   -0.7450 hc        1 1YP      0.045033
     35 H3          8.9250   -3.3120    0.9730 hc        1 1YP      0.045033
     36 H4          6.4140   -4.7850   -0.1370 h1        1 1YP      0.055200
     37 H5          6.6440   -4.2420    1.5810 h1        1 1YP      0.055200
     38 H6         -5.6650   -3.6550    2.4480 hn        1 1YP      0.366500
     39 H7          0.3840   -2.9260   -1.1610 h4        1 1YP      0.034100
     40 H8         -1.7090   -1.8100    0.7280 ha        1 1YP      0.173000
     41 H9         -4.8660   -0.5560   -2.0150 h4        1 1YP      0.053100
     42 H10        -0.9150    0.3590   -2.9680 h4        1 1YP      0.040100
     43 H11         6.7600   -2.2020   -0.5380 hn        1 1YP      0.301500
     44 H12         4.8930   -0.4640    0.1150 hn        1 1YP      0.326500
     45 H13         3.0670    1.0000    0.1830 ha        1 1YP      0.168000
     46 H14        -1.5610    4.4740   -0.6300 h4        1 1YP      0.202000
     47 C19         0.6280    5.0360    1.1670 c3        1 1YP      0.627600
@<TRIPOS>BOND
     1    1    2 1   
     2    1   33 1   
     3    1   34 1   
     4    1   35 1   
     5    2   15 1   
     6    2   36 1   
     7    2   37 1   
     8    3   15 1   
     9    3   16 2   
    10    3   17 1   
    11    4   13 1   
    12    4   23 1   
    13    4   38 1   
    14    5    6 ar  
    15    5    7 1   
    16    5   20 ar  
    17    6   21 ar  
    18    6   39 1   
    19    7    8 ar  
    20    7   11 ar  
    21    8    9 ar  
    22    8   40 1   
    23    9   10 ar  
    24    9   12 1   
    25   10   22 ar  
    26   10   41 1   
    27   11   22 ar  
    28   11   42 1   
    29   12   23 2   
    30   12   25 1   
    31   13   24 2   
    32   13   25 1   
    33   14   20 1   
    34   14   26 2   
    35   14   29 1   
    36   15   43 1   
    37   17   18 1   
    38   17   44 1   
    39   18   19 ar  
    40   18   21 ar  
    41   19   20 ar  
    42   19   45 1   
    43   26   27 1   
    44   27   28 2   
    45   27   47 1   
    46   28   29 1   
    47   28   46 1   
    48   30   47 1   
    49   31   47 1   
    50   32   47 1   
@<TRIPOS>SUBSTRUCTURE
     1 1YP         1 TEMP              0 ****  ****    0 ROOT
