@<TRIPOS>MOLECULE
1YP
   48    48     1     0     0
SMALL
bcc


@<TRIPOS>ATOM
      1 C1         -1.4250    0.0340   -1.3240 c3        1 1YP     -0.279000
      2 C2         -0.4270    0.0480   -0.2340 c2        1 1YP      0.162000
      3 C3          3.3350    0.2730    1.3020 c2        1 1YP      0.314000
      4 N6         13.8100    1.4680    0.9440 n2        1 1YP     -0.221000
      5 C7          7.9060    0.3970    3.5150 c2        1 1YP     -0.111000
      6 C8          7.4490    0.4690    2.2010 c2        1 1YP     -0.014000
      7 C9          9.2500    0.4170    4.1200 c2        1 1YP      0.041000
      8 C10        10.4460    0.5320    3.3240 c2        1 1YP     -0.073000
      9 C11        11.6820    0.5720    3.8420 c2        1 1YP     -0.174000
     10 C12        12.4670   -0.3050    7.3260 c1        1 1YP      0.039000
     11 C13         9.1370    0.3010    5.4760 c2        1 1YP     -0.538000
     12 C14        12.9280    0.6290    3.0400 c2        1 1YP      0.294000
     13 C15        15.0680    1.6750    0.9950 c1        1 1YP      0.333000
     14 C16         7.6720    0.2020    5.8550 c2        1 1YP      0.053000
     15 N1         -0.6960   -0.0890    1.0350 n3        1 1YP     -0.165000
     16 O1          2.0940    0.1930    1.1280 o         1 1YP     -0.514000
     17 N2          3.8470    0.2280    2.5710 n         1 1YP     -0.302000
     18 C4          5.2290    0.2910    2.8860 c2        1 1YP      0.097000
     19 C5          5.5940    0.2130    4.2720 c2        1 1YP     -0.152000
     20 C6          6.9390    0.2680    4.5600 c2        1 1YP      0.015000
     21 N3          6.1390    0.4180    1.8790 n2        1 1YP     -0.185000
     22 N4         13.5220   -0.6440    7.7020 n2        1 1YP     -0.284000
     23 N5         12.9590    1.5750    1.9790 n         1 1YP     -0.221000
     24 O2         16.2270    1.7460    0.7260 o         1 1YP     -0.138000
     25 O3         13.9350   -0.0200    3.3670 o         1 1YP     -0.311000
     26 N7          7.1140    0.0820    7.0130 n2        1 1YP     -0.126000
     27 C17         7.9660    0.0590    8.2090 c3        1 1YP      0.044000
     28 C18         9.3580    0.0940    7.8560 c1        1 1YP     -1.005000
     29 S1         10.2630    0.2020    6.8020 ss        1 1YP      1.392000
     30 F1          7.8240   -2.4020    8.5320 f         1 1YP     -0.158667
     31 F2          8.3330   -1.2110   10.2830 f         1 1YP     -0.158667
     32 F3          6.3050   -1.2080    9.5230 f         1 1YP     -0.158667
     33 H1         -1.6280   -0.2200    1.3810 hn        1 1YP      0.287500
     34 H2         -1.3590    1.0040   -1.8890 hc        1 1YP      0.154667
     35 H3         -2.4810   -0.1090   -0.9820 hc        1 1YP      0.154667
     36 H4         -1.1650   -0.7930   -2.0410 hc        1 1YP      0.154667
     37 H5          0.6520    0.1900   -0.5180 h4        1 1YP      0.233000
     38 H6         12.0550    1.8390    1.6170 hn        1 1YP      0.236000
     39 H7          8.1360    0.5690    1.3400 h4        1 1YP      0.174000
     40 H8         10.2780    0.5660    2.2310 ha        1 1YP      0.134000
     41 H9         11.8730    0.5130    4.9300 ha        1 1YP      0.160000
     42 H10        14.3990   -0.9290    8.0100 hn        1 1YP      0.305000
     43 H11         4.0500    0.3810    0.4550 h5        1 1YP      0.187000
     44 H12         3.2330    0.1330    3.3510 hn        1 1YP      0.245000
     45 H13         4.8430    0.1100    5.0690 ha        1 1YP      0.170000
     46 H14         7.6820    0.9700    8.8250 h1        1 1YP      0.173000
     47 C19         7.6150   -1.1830    9.1200 c3        1 1YP      0.447000
     48 H121        0.0520   -0.0670    1.7180 hn        1 1YP      0.287500
@<TRIPOS>BOND
     1    1    2 1   
     2    1   34 1   
     3    1   35 1   
     4    1   36 1   
     5    2   15 1   
     6    2   37 1   
     7    3   16 1   
     8    3   17 1   
     9    3   43 1   
    10    4   13 1   
    11    4   23 1   
    12    5    6 1   
    13    5    7 1   
    14    5   20 1   
    15    6   21 1   
    16    6   39 1   
    17    7    8 1   
    18    7   11 1   
    19    8    9 1   
    20    8   40 1   
    21    9   12 1   
    22    9   41 1   
    23   10   22 1   
    24   11   14 1   
    25   11   29 1   
    26   12   23 1   
    27   12   25 1   
    28   13   24 1   
    29   14   20 1   
    30   14   26 1   
    31   15   33 1   
    32   15   48 1   
    33   17   18 1   
    34   17   44 1   
    35   18   19 1   
    36   18   21 1   
    37   19   20 1   
    38   19   45 1   
    39   22   42 1   
    40   23   38 1   
    41   26   27 1   
    42   27   28 1   
    43   27   46 1   
    44   27   47 1   
    45   28   29 1   
    46   30   47 1   
    47   31   47 1   
    48   32   47 1   
@<TRIPOS>SUBSTRUCTURE
     1 1YP         1 TEMP              0 ****  ****    0 ROOT
