@<TRIPOS>MOLECULE
1YP
   49    50     1     0     0
SMALL
bcc


@<TRIPOS>ATOM
      1 C1      -1027.0140   42.8700 -689.7490 c3        1 1YP     -0.282000
      2 C2      -1025.6540   42.8290 -689.1770 c2        1 1YP      0.174000
      3 C3        243.6170   -5.7900  156.3570 c2        1 1YP      0.231000
      4 N6        240.3320  -10.9610  165.6450 n2        1 1YP     -0.221000
      5 C7        240.7870   -8.7750  159.1330 c2        1 1YP     -0.026000
      6 C8        242.1350   -8.4190  159.2990 c2        1 1YP     -0.029000
      7 C9        239.7840   -9.3600  160.0380 c2        1 1YP     -0.001000
      8 C10       240.0800   -9.6920  161.4060 c2        1 1YP     -0.086000
      9 C11       239.1860  -10.2810  162.2220 c2        1 1YP     -0.084000
     10 C12       235.7480  -11.2690  161.2970 c1        1 1YP      0.016000
     11 C13       238.6060   -9.5140  159.3590 c2        1 1YP     -0.481000
     12 C14       239.4250  -10.6360  163.5960 c2        1 1YP      0.068000
     13 C15       239.0300  -11.4590  165.6930 c2        1 1YP      0.299000
     14 C16       238.7720   -9.0270  157.9350 c2        1 1YP      0.032000
     15 N1      -1025.3150   42.1940 -688.0870 n3        1 1YP     -0.173000
     16 O1        243.3160   -4.8920  155.5990 o         1 1YP     -0.140000
     17 N2        243.1130   -7.1760  156.0050 n4        1 1YP     -0.073000
     18 C4        242.2680   -7.7260  157.0900 c2        1 1YP     -0.100000
     19 C5        240.9140   -8.0380  156.8030 c2        1 1YP     -0.082000
     20 C6        240.1850   -8.5690  157.8550 c2        1 1YP     -0.007000
     21 N3        242.8690   -7.9030  158.3000 n2        1 1YP     -0.131000
     22 N4        235.0500  -11.8440  162.0380 n2        1 1YP     -0.256000
     23 N5        240.5080  -10.4970  164.4060 na        1 1YP     -0.055000
     24 O2        238.2340  -11.9950  166.4430 o         1 1YP     -0.260000
     25 O3        238.4420  -11.2350  164.3240 os        1 1YP     -0.224000
     26 N7        237.9320   -8.9880  156.9550 n2        1 1YP     -0.097000
     27 C17       236.5570   -9.4490  157.1830 c3        1 1YP      0.035000
     28 C18       236.4030   -9.9550  158.5170 c1        1 1YP     -0.990000
     29 S1        237.0110  -10.1600  159.7500 ss        1 1YP      1.405000
     30 F1        236.8880  -11.6500  156.0840 f         1 1YP     -0.151000
     31 F2        234.8380  -10.9180  156.2210 f         1 1YP     -0.151000
     32 F3        236.2200  -10.0210  154.8080 f         1 1YP     -0.151000
     33 H1      -1025.9810   41.6710 -687.5430 hn        1 1YP      0.287000
     34 H2      -1027.3460   43.9440 -689.8200 hc        1 1YP      0.165667
     35 H3      -1027.7800   42.2980 -689.1660 hc        1 1YP      0.165667
     36 H4      -1026.9810   42.4610 -690.7970 hc        1 1YP      0.165667
     37 H5      -1024.8560   43.3890 -689.7300 h4        1 1YP      0.209000
     38 H6        241.3910  -10.0940  164.1710 hn        1 1YP      0.292000
     39 H7        242.6680   -8.5470  160.2610 h4        1 1YP      0.195000
     40 H8        241.0960   -9.4360  161.7530 ha        1 1YP      0.130000
     41 H9        238.1640  -10.5470  161.8810 ha        1 1YP      0.168000
     42 H10       234.4750  -12.3230  162.6610 hn        1 1YP      0.316000
     43 H11       244.2150   -5.7740  157.2960 hx        1 1YP      0.248000
     44 H12       242.5570   -7.1530  155.1390 hn        1 1YP      0.266500
     45 H13       240.4520   -7.8800  155.8150 ha        1 1YP      0.188000
     46 H14       235.8830   -8.5500  157.0060 h1        1 1YP      0.187000
     47 C19       236.1330  -10.5080  156.0850 c3        1 1YP      0.453000
     48 H121    -1024.3700   42.1980 -687.7410 hn        1 1YP      0.287000
     49 H22       243.9220   -7.7970  155.8620 hn        1 1YP      0.266500
@<TRIPOS>BOND
     1    1    2 1   
     2    1   34 1   
     3    1   35 1   
     4    1   36 1   
     5    2   15 1   
     6    2   37 1   
     7    3   16 1   
     8    3   17 1   
     9    3   43 1   
    10    4   13 1   
    11    4   23 1   
    12    5    6 1   
    13    5    7 1   
    14    5   20 1   
    15    6   21 1   
    16    6   39 1   
    17    7    8 1   
    18    7   11 1   
    19    8    9 1   
    20    8   40 1   
    21    9   12 1   
    22    9   41 1   
    23   10   22 1   
    24   11   14 1   
    25   11   29 1   
    26   12   23 1   
    27   12   25 1   
    28   13   24 1   
    29   13   25 1   
    30   14   20 1   
    31   14   26 1   
    32   15   33 1   
    33   15   48 1   
    34   17   18 1   
    35   17   44 1   
    36   17   49 1   
    37   18   19 1   
    38   18   21 1   
    39   19   20 1   
    40   19   45 1   
    41   22   42 1   
    42   23   38 1   
    43   26   27 1   
    44   27   28 1   
    45   27   46 1   
    46   27   47 1   
    47   28   29 1   
    48   30   47 1   
    49   31   47 1   
    50   32   47 1   
@<TRIPOS>SUBSTRUCTURE
     1 1YP         1 TEMP              0 ****  ****    0 ROOT
