@<TRIPOS>MOLECULE
1YP
   47    42     1     0     0
SMALL
bcc


@<TRIPOS>ATOM
      1 C1         -7.0380    4.2040   -1.6740 c3        1 1YP     -0.225000
      2 C2         -6.2600    2.8890   -1.6100 c3        1 1YP     -0.033000
      3 C3         -3.8890    2.0780   -1.4320 c1        1 1YP      0.395000
      4 N6          2.1450   -6.5660    3.1460 n3        1 1YP     -0.261000
      5 C7          0.2760   -0.7740   -0.6810 c1        1 1YP     -0.114000
      6 C8         -1.0750   -1.0510   -0.8770 c1        1 1YP     -0.018000
      7 C9          1.2860   -1.9410   -0.4440 c2        1 1YP     -0.097000
      8 C10         1.2540   -2.6470    0.7330 c1        1 1YP     -0.044000
      9 C11         2.0790   -3.7340    0.9040 c1        1 1YP     -0.095000
     10 C12         2.9430   -4.1170   -0.1130 c1        1 1YP     -0.020000
     11 C13         2.1510   -2.3260   -1.4600 c2        1 1YP     -0.032000
     12 C14         1.9920   -4.5770    2.2040 c2        1 1YP      0.060000
     13 C15         2.9320   -5.5740    3.9900 c1        1 1YP      0.334000
     14 C16         2.1830    0.8400   -0.3730 c1        1 1YP     -0.279000
     15 C19         5.1280    3.1710    0.6990 c3        1 1YP      0.509000
     16 N1         -4.8380    3.1660   -1.5910 n2        1 1YP     -0.358000
     17 O1         -4.2840    0.9300   -1.3890 o         1 1YP     -0.338000
     18 N2         -2.4710    2.3610   -1.3160 n3        1 1YP     -0.340000
     19 C4         -1.5200    1.2700   -1.1470 c2        1 1YP      0.156000
     20 C5         -0.1650    1.5500   -0.9510 c2        1 1YP     -0.205000
     21 C6          0.7240    0.5240   -0.7190 c1        1 1YP      0.059000
     22 N3         -1.9630   -0.0220   -1.1090 n1        1 1YP     -0.136000
     23 N4          2.9740   -3.4130   -1.2870 n1        1 1YP     -0.133000
     24 N5          1.6610   -5.8230    2.1440 n2        1 1YP     -0.066000
     25 O2          3.8250   -5.8490    4.7790 o         1 1YP     -0.269000
     26 O3          2.7630   -4.2620    3.2660 o         1 1YP     -0.192000
     27 N7          3.4470    1.4520   -0.6540 n2        1 1YP     -0.045000
     28 C17         3.8490    2.3520    0.5730 c2        1 1YP     -0.182000
     29 C18         2.8060    2.2560    1.5680 c1        1 1YP     -0.417000
     30 S1          1.7270    1.3140    1.0270 ss        1 1YP      0.610000
     31 F1          4.8230    4.4210    1.0810 f         1 1YP     -0.156333
     32 F2          5.9310    2.6080    1.6100 f         1 1YP     -0.156333
     33 F3          5.7540    3.2060   -0.4840 f         1 1YP     -0.156333
     34 H1         -7.9920    4.0130   -1.8270 hc        1 1YP      0.084333
     35 H2         -6.6930    4.7520   -2.4090 hc        1 1YP      0.084333
     36 H3         -6.9340    4.6890   -0.8260 hc        1 1YP      0.084333
     37 H4         -6.4750    2.3450   -2.3950 h1        1 1YP      0.094500
     38 H5         -6.5080    2.4000   -0.7960 h1        1 1YP      0.094500
     39 H6          2.2620   -7.4790    3.1350 hn        1 1YP      0.275000
     40 H7         -1.3910   -1.9680   -0.8520 ha        1 1YP      0.172000
     41 H8          0.6470   -2.3770    1.4480 ha        1 1YP      0.165000
     42 H9          3.5290   -4.8900    0.0090 ha        1 1YP      0.187000
     43 H10         2.1740   -1.8230   -2.2990 h4        1 1YP      0.184000
     44 H11        -4.5410    4.0240   -1.6590 hn        1 1YP      0.214000
     45 H12        -2.1710    3.2200   -1.3910 hn        1 1YP      0.243000
     46 H13         0.1500    2.4710   -0.9790 ha        1 1YP      0.157000
     47 H14         2.7930    2.7080    2.4300 DU        1 1YP      0.204000
@<TRIPOS>BOND
     1    1    2 1   
     2    1   34 1   
     3    1   35 1   
     4    1   36 1   
     5    2   16 1   
     6    2   37 1   
     7    2   38 1   
     8    3   17 1   
     9    3   18 1   
    10    4   13 1   
    11    4   24 1   
    12    4   39 1   
    13    5    6 1   
    14    5    7 1   
    15    6   40 1   
    16    7    8 1   
    17    7   11 1   
    18    8   41 1   
    19    9   10 1   
    20    9   12 1   
    21   10   42 1   
    22   11   23 1   
    23   11   43 1   
    24   12   24 1   
    25   12   26 1   
    26   13   25 1   
    27   14   27 1   
    28   14   30 1   
    29   15   28 1   
    30   15   31 1   
    31   15   32 1   
    32   15   33 1   
    33   16   44 1   
    34   18   19 1   
    35   18   45 1   
    36   19   20 1   
    37   19   22 1   
    38   20   21 1   
    39   20   46 1   
    40   27   28 1   
    41   28   29 1   
    42   29   30 1   
@<TRIPOS>SUBSTRUCTURE
     1 1YP         1 TEMP              0 ****  ****    0 ROOT
