@<TRIPOS>MOLECULE
1YQ
   45    47     1     0     0
SMALL
bcc


@<TRIPOS>ATOM
      1 O12        -0.1000   -0.6250    0.4490 o         1 1YQ     -0.610500
      2 C17         7.4080   -5.2180   -9.4310 cg        1 1YQ      0.181500
      3 C00         7.1980   -4.0000   -0.6960 ca        1 1YQ     -0.175000
      4 C01         7.4740   -5.3700   -0.6640 ca        1 1YQ      0.038400
      5 C02         6.7330   -6.2750   -1.4310 ca        1 1YQ     -0.132000
      6 C03         5.6960   -5.8110   -2.2370 ca        1 1YQ     -0.121000
      7 C04         5.3990   -4.4460   -2.2750 ca        1 1YQ      0.068100
      8 C05         6.1620   -3.5330   -1.5120 ca        1 1YQ      0.121100
      9 O0A         4.2940   -3.9420   -2.9530 os        1 1YQ     -0.242200
     10 O0B         5.8480   -2.2000   -1.6660 os        1 1YQ     -0.329900
     11 C0C         4.1820   -4.3010   -4.2950 ca        1 1YQ      0.102100
     12 C0D         2.8720   -4.3200   -4.8020 ca        1 1YQ     -0.132000
     13 C0E         2.6860   -4.5890   -6.1540 ca        1 1YQ     -0.108000
     14 C0F         3.7760   -4.8400   -6.9880 ca        1 1YQ     -0.130000
     15 C0G         5.0810   -4.8210   -6.4770 ca        1 1YQ     -0.048800
     16 C0H         5.2840   -4.5520   -5.1140 ca        1 1YQ     -0.156000
     17 C0M         6.2410   -5.0790   -7.3150 cf        1 1YQ     -0.052200
     18 C0O         6.1350   -1.3580   -0.5390 c3        1 1YQ      0.102400
     19 C0P         5.2760   -0.1020   -0.7360 c3        1 1YQ      0.090000
     20 N0S         3.8740   -0.2730   -0.4280 n         1 1YQ     -0.380000
     21 C0V         3.3060    0.4450    0.6600 c         1 1YQ      0.805500
     22 N0W         1.9370    0.2910    0.9160 n         1 1YQ     -0.584500
     23 C0X         1.1040   -0.5540    0.1560 c         1 1YQ      0.714700
     24 C0Y         1.7560   -1.2900   -0.9310 cc        1 1YQ     -0.325200
     25 C0Z         3.0830   -1.1340   -1.1770 cd        1 1YQ      0.055600
     26 C15         6.2530   -4.9550   -8.6530 ce        1 1YQ     -0.059700
     27 N19         8.3460   -5.4280  -10.0880 n1        1 1YQ     -0.359800
     28 H1          7.7910   -3.2950   -0.0950 ha        1 1YQ      0.159000
     29 H2          6.9610   -7.3510   -1.3970 ha        1 1YQ      0.157000
     30 H3          5.1030   -6.5120   -2.8450 ha        1 1YQ      0.158000
     31 H7          2.0220   -4.1190   -4.1340 ha        1 1YQ      0.154000
     32 H8          1.6660   -4.6080   -6.5680 ha        1 1YQ      0.143000
     33 H9          3.6040   -5.0640   -8.0510 ha        1 1YQ      0.140000
     34 H10         6.3010   -4.5340   -4.6930 ha        1 1YQ      0.152000
     35 H11         7.1550   -5.3840   -6.7720 ha        1 1YQ      0.141000
     36 H12         5.9100   -1.8860    0.4220 h1        1 1YQ      0.061700
     37 H13         7.2190   -1.0710   -0.5770 h1        1 1YQ      0.061700
     38 H14         5.3630    0.2230   -1.8130 h1        1 1YQ      0.091200
     39 H15         5.6960    0.7090   -0.0710 h1        1 1YQ      0.091200
     40 H16         1.5570    0.8130    1.6770 hn        1 1YQ      0.352500
     41 H17         1.1250   -1.9660   -1.5190 ha        1 1YQ      0.179000
     42 H18         3.6140   -1.6940   -1.9780 h4        1 1YQ      0.196000
     43 H19         5.3670   -4.6340   -9.2300 ha        1 1YQ      0.155000
     44 O10         4.0060    1.2000    1.3690 o         1 1YQ     -0.648500
     45 CL1         8.7340   -5.9380    0.3220 cl        1 1YQ     -0.076400
@<TRIPOS>BOND
     1    1   23 2   
     2    2   26 1   
     3    2   27 3   
     4    3    4 ar  
     5    3    8 ar  
     6    3   28 1   
     7    4    5 ar  
     8    4   45 1   
     9    5    6 ar  
    10    5   29 1   
    11    6    7 ar  
    12    6   30 1   
    13    7    8 ar  
    14    7    9 1   
    15    8   10 1   
    16    9   11 1   
    17   10   18 1   
    18   11   12 ar  
    19   11   16 ar  
    20   12   13 ar  
    21   12   31 1   
    22   13   14 ar  
    23   13   32 1   
    24   14   15 ar  
    25   14   33 1   
    26   15   16 ar  
    27   15   17 1   
    28   16   34 1   
    29   17   26 2   
    30   17   35 1   
    31   18   19 1   
    32   18   36 1   
    33   18   37 1   
    34   19   20 1   
    35   19   38 1   
    36   19   39 1   
    37   20   21 1   
    38   20   25 1   
    39   21   22 1   
    40   21   44 2   
    41   22   23 1   
    42   22   40 1   
    43   23   24 1   
    44   24   25 2   
    45   24   41 1   
    46   25   42 1   
    47   26   43 1   
@<TRIPOS>SUBSTRUCTURE
     1 1YQ         1 TEMP              0 ****  ****    0 ROOT
