@<TRIPOS>MOLECULE
1YQ
   45    47     1     0     0
SMALL
bcc


@<TRIPOS>ATOM
      1 O12        -5.1010    3.2350   -2.2870 o         1 1YQ     -0.610500
      2 C17         7.4660    0.4650    1.3340 cg        1 1YQ      0.181500
      3 C00        -0.6620   -2.8820    0.6860 ca        1 1YQ     -0.175000
      4 C01         0.0900   -3.7830   -0.0740 ca        1 1YQ      0.037400
      5 C02         1.0120   -3.3320   -1.0250 ca        1 1YQ     -0.131000
      6 C03         1.1820   -1.9650   -1.2300 ca        1 1YQ     -0.122000
      7 C04         0.4320   -1.0500   -0.4860 ca        1 1YQ      0.068100
      8 C05        -0.4850   -1.5090    0.4870 ca        1 1YQ      0.120100
      9 O0A         0.4590    0.3170   -0.7390 os        1 1YQ     -0.242200
     10 O0B        -1.1270   -0.5380    1.2250 os        1 1YQ     -0.329900
     11 C0C         1.7190    0.9130   -0.7620 ca        1 1YQ      0.102100
     12 C0D         1.8160    2.0750   -1.5450 ca        1 1YQ     -0.132000
     13 C0E         3.0190    2.7740   -1.5510 ca        1 1YQ     -0.107000
     14 C0F         4.1090    2.3240   -0.8060 ca        1 1YQ     -0.130000
     15 C0G         4.0100    1.1590   -0.0330 ca        1 1YQ     -0.048800
     16 C0H         2.7980    0.4520   -0.0050 ca        1 1YQ     -0.157000
     17 C0M         5.1230    0.6630    0.7600 cf        1 1YQ     -0.052200
     18 C0O        -2.4220   -0.8960    1.7320 c3        1 1YQ      0.102400
     19 C0P        -3.1200    0.4330    2.0500 c3        1 1YQ      0.090000
     20 N0S        -3.6170    1.1460    0.8960 n         1 1YQ     -0.380000
     21 C0V        -5.0190    1.3330    0.7410 c         1 1YQ      0.805500
     22 N0W        -5.4750    2.0590   -0.3660 n         1 1YQ     -0.584500
     23 C0X        -4.6100    2.5980   -1.3400 c         1 1YQ      0.714700
     24 C0Y        -3.1800    2.3440   -1.1410 cc        1 1YQ     -0.325200
     25 C0Z        -2.7440    1.6430   -0.0630 cd        1 1YQ      0.055600
     26 C15         6.4110    0.9720    0.5350 ce        1 1YQ     -0.060700
     27 N19         8.3460    0.0580    1.9780 n1        1 1YQ     -0.359800
     28 H1         -1.3780   -3.2460    1.4370 ha        1 1YQ      0.159000
     29 H2          1.5980   -4.0520   -1.6160 ha        1 1YQ      0.158000
     30 H3          1.9020   -1.5960   -1.9760 ha        1 1YQ      0.158000
     31 H7          0.9500    2.4180   -2.1280 ha        1 1YQ      0.154000
     32 H8          3.1100    3.6920   -2.1520 ha        1 1YQ      0.143000
     33 H9          5.0490    2.8960   -0.8220 ha        1 1YQ      0.140000
     34 H10         2.6970   -0.4610    0.6020 ha        1 1YQ      0.152000
     35 H11         4.8450   -0.0190    1.5860 ha        1 1YQ      0.142000
     36 H12        -2.9870   -1.5120    0.9870 h1        1 1YQ      0.061700
     37 H13        -2.2830   -1.4740    2.6830 h1        1 1YQ      0.061700
     38 H14        -3.9870    0.2090    2.7390 h1        1 1YQ      0.091200
     39 H15        -2.3860    1.1000    2.5870 h1        1 1YQ      0.091200
     40 H16        -6.4610    2.1890   -0.4490 hn        1 1YQ      0.352500
     41 H17        -2.4970    2.7410   -1.9010 ha        1 1YQ      0.179000
     42 H18        -1.6690    1.4110    0.1070 h4        1 1YQ      0.196000
     43 H19         6.7300    1.6350   -0.2890 ha        1 1YQ      0.155000
     44 O10        -5.8260    0.8670    1.5750 o         1 1YQ     -0.648500
     45 CL1        -0.1190   -5.4500    0.1700 cl        1 1YQ     -0.076400
@<TRIPOS>BOND
     1    1   23 2   
     2    2   26 1   
     3    2   27 3   
     4    3    4 ar  
     5    3    8 ar  
     6    3   28 1   
     7    4    5 ar  
     8    4   45 1   
     9    5    6 ar  
    10    5   29 1   
    11    6    7 ar  
    12    6   30 1   
    13    7    8 ar  
    14    7    9 1   
    15    8   10 1   
    16    9   11 1   
    17   10   18 1   
    18   11   12 ar  
    19   11   16 ar  
    20   12   13 ar  
    21   12   31 1   
    22   13   14 ar  
    23   13   32 1   
    24   14   15 ar  
    25   14   33 1   
    26   15   16 ar  
    27   15   17 1   
    28   16   34 1   
    29   17   26 2   
    30   17   35 1   
    31   18   19 1   
    32   18   36 1   
    33   18   37 1   
    34   19   20 1   
    35   19   38 1   
    36   19   39 1   
    37   20   21 1   
    38   20   25 1   
    39   21   22 1   
    40   21   44 2   
    41   22   23 1   
    42   22   40 1   
    43   23   24 1   
    44   24   25 2   
    45   24   41 1   
    46   25   42 1   
    47   26   43 1   
@<TRIPOS>SUBSTRUCTURE
     1 1YQ         1 TEMP              0 ****  ****    0 ROOT
