@<TRIPOS>MOLECULE
1YQ
   45    41     1     0     0
SMALL
bcc


@<TRIPOS>ATOM
      1 O12        -7.0300   -4.7520   -1.1740 o         1 1YQ     -0.325000
      2 C17         4.4240    5.4750    1.5960 c1        1 1YQ     -0.104000
      3 C00         1.1790   -1.1840   -2.2820 c1        1 1YQ     -0.195000
      4 C01         2.0520   -0.5860   -3.0810 c1        1 1YQ     -0.028000
      5 C02         2.4140    0.7500   -2.8520 c1        1 1YQ     -0.148000
      6 C03         1.8540    1.4500   -1.7820 c1        1 1YQ     -0.103000
      7 C04         0.9380    0.8230   -0.9440 c1        1 1YQ      0.009000
      8 C05         0.5940   -0.4550   -1.1650 c1        1 1YQ      0.078000
      9 CL1         2.7470   -1.4340   -4.3330 cl        1 1YQ      0.003000
     10 O0A         0.3440    1.5560    0.1690 os        1 1YQ     -0.144000
     11 O0B        -0.3140   -1.1440   -0.2260 os        1 1YQ     -0.188000
     12 C0C         1.3330    1.9600    1.0470 c2        1 1YQ      0.074000
     13 C0D         2.1460    1.0240    1.6440 c2        1 1YQ     -0.176000
     14 C0E         3.0650    1.4190    2.6390 c1        1 1YQ     -0.099000
     15 C0F         3.1490    2.7330    3.0110 c1        1 1YQ     -0.135000
     16 C0G         2.3260    3.6870    2.4080 c1        1 1YQ     -0.044000
     17 C0H         1.4210    3.3030    1.4310 c1        1 1YQ     -0.134000
     18 C0M         2.3170    5.0560    2.9190 c2        1 1YQ     -0.057000
     19 C0O        -1.4420   -1.7510   -0.8530 c3        1 1YQ     -0.048000
     20 C0P        -1.8450   -3.0150   -0.0730 c3        1 1YQ     -0.050000
     21 N0S        -3.1600   -3.3560   -0.3870 n         1 1YQ     -0.271000
     22 C0V        -3.4600   -4.0850   -1.6510 c2        1 1YQ      0.397000
     23 N0W        -4.8180   -4.6250   -1.8890 n         1 1YQ     -0.362000
     24 C0X        -5.8840   -4.2900   -0.9890 c2        1 1YQ      0.352000
     25 C0Y        -5.6020   -3.4490    0.2040 c2        1 1YQ     -0.296000
     26 C0Z        -4.2040   -2.9410    0.4440 c2        1 1YQ      0.048000
     27 O10        -2.5540   -4.2910   -2.4800 o         1 1YQ     -0.373000
     28 C15         3.3120    5.9360    2.5480 c1        1 1YQ     -0.101000
     29 N19         5.1990    5.1520    0.9300 n1        1 1YQ     -0.042000
     30 H1          0.9130   -2.1680   -2.4540 ha        1 1YQ      0.185000
     31 H2          3.0700    1.1970   -3.4530 ha        1 1YQ      0.155000
     32 H3          2.0920    2.3360   -1.6290 ha        1 1YQ      0.157000
     33 H7          2.0890    0.1350    1.3930 ha        1 1YQ      0.148000
     34 H8          3.6510    0.7460    3.0680 ha        1 1YQ      0.140000
     35 H9          3.7420    2.9870    3.6540 ha        1 1YQ      0.144000
     36 H10         0.8380    3.9800    1.0030 ha        1 1YQ      0.152000
     37 H11         1.5620    5.3650    3.5670 ha        1 1YQ      0.139000
     38 H12        -2.1710   -1.1380   -0.8570 h1        1 1YQ      0.116500
     39 H13        -1.1940   -2.0130   -1.8540 h1        1 1YQ      0.116500
     40 H14        -1.7780   -2.8450    0.8550 h1        1 1YQ      0.119500
     41 H15        -1.2110   -3.8010   -0.3280 h1        1 1YQ      0.119500
     42 H16        -5.0250   -5.1300   -2.7710 hn        1 1YQ      0.269000
     43 H17        -6.3790   -3.1390    0.8210 ha        1 1YQ      0.182000
     44 H18        -4.0110   -2.3790    1.2430 h4        1 1YQ      0.166000
     45 H19         3.3090    6.9010    2.9100 ha        1 1YQ      0.153000
@<TRIPOS>BOND
     1    1   24 1   
     2    2   29 1   
     3    3    8 1   
     4    3   30 1   
     5    4    5 1   
     6    4    9 1   
     7    5   31 1   
     8    6    7 1   
     9    6   32 1   
    10    7   10 1   
    11    8   11 1   
    12   10   12 1   
    13   11   19 1   
    14   12   13 1   
    15   12   17 1   
    16   13   14 1   
    17   13   33 1   
    18   14   34 1   
    19   15   16 1   
    20   15   35 1   
    21   16   18 1   
    22   17   36 1   
    23   18   28 1   
    24   18   37 1   
    25   19   20 1   
    26   19   38 1   
    27   19   39 1   
    28   20   21 1   
    29   20   40 1   
    30   20   41 1   
    31   21   22 1   
    32   21   26 1   
    33   22   23 1   
    34   22   27 1   
    35   23   24 1   
    36   23   42 1   
    37   24   25 1   
    38   25   26 1   
    39   25   43 1   
    40   26   44 1   
    41   28   45 1   
@<TRIPOS>SUBSTRUCTURE
     1 1YQ         1 TEMP              0 ****  ****    0 ROOT
