@<TRIPOS>MOLECULE
1YQ
   45    47     1     0     0
SMALL
bcc


@<TRIPOS>ATOM
      1 O12        -0.1330   -0.6630    0.4790 o         1 1YQ     -0.610500
      2 C17         7.3860   -5.7070   -9.3530 cg        1 1YQ      0.181500
      3 C00         7.2070   -3.9220   -0.7230 ca        1 1YQ     -0.175000
      4 C01         7.4940   -5.2910   -0.7370 ca        1 1YQ      0.037400
      5 C02         6.7660   -6.1740   -1.5400 ca        1 1YQ     -0.131000
      6 C03         5.7310   -5.6900   -2.3380 ca        1 1YQ     -0.122000
      7 C04         5.4230   -4.3270   -2.3290 ca        1 1YQ      0.068100
      8 C05         6.1730   -3.4350   -1.5290 ca        1 1YQ      0.120100
      9 O0A         4.3190   -3.8070   -2.9970 os        1 1YQ     -0.242200
     10 O0B         5.8500   -2.1000   -1.6390 os        1 1YQ     -0.329900
     11 C0C         4.2100   -4.1320   -4.3480 ca        1 1YQ      0.102100
     12 C0D         2.9010   -4.1270   -4.8590 ca        1 1YQ     -0.132000
     13 C0E         2.7180   -4.3580   -6.2190 ca        1 1YQ     -0.107000
     14 C0F         3.8080   -4.6020   -7.0540 ca        1 1YQ     -0.130000
     15 C0G         5.1110   -4.6140   -6.5380 ca        1 1YQ     -0.048800
     16 C0H         5.3130   -4.3680   -5.1700 ca        1 1YQ     -0.157000
     17 C0M         6.2720   -4.8590   -7.3790 cf        1 1YQ     -0.052200
     18 C0O         6.1170   -1.2980   -0.4790 c3        1 1YQ      0.102400
     19 C0P         5.2470   -0.0430   -0.6370 c3        1 1YQ      0.090000
     20 N0S         3.8450   -0.2390   -0.3490 n         1 1YQ     -0.380000
     21 C0V         3.2600    0.4330    0.7590 c         1 1YQ      0.805500
     22 N0W         1.8910    0.2570    0.9970 n         1 1YQ     -0.584500
     23 C0X         1.0730   -0.5690    0.2000 c         1 1YQ      0.714700
     24 C0Y         1.7420   -1.2590   -0.9070 cc        1 1YQ     -0.325200
     25 C0Z         3.0690   -1.0800   -1.1350 cd        1 1YQ      0.055600
     26 C15         6.2280   -5.4880   -8.5650 ce        1 1YQ     -0.060700
     27 N19         8.3250   -5.8970  -10.0140 n1        1 1YQ     -0.359800
     28 H1          7.7900   -3.2350   -0.0930 ha        1 1YQ      0.159000
     29 H2          7.0020   -7.2490   -1.5430 ha        1 1YQ      0.158000
     30 H3          5.1470   -6.3740   -2.9740 ha        1 1YQ      0.158000
     31 H7          2.0510   -3.9350   -4.1900 ha        1 1YQ      0.154000
     32 H8          1.7000   -4.3490   -6.6390 ha        1 1YQ      0.143000
     33 H9          3.6400   -4.7770   -8.1280 ha        1 1YQ      0.140000
     34 H10         6.3280   -4.3650   -4.7470 ha        1 1YQ      0.152000
     35 H11         7.2330   -4.4970   -6.9700 ha        1 1YQ      0.142000
     36 H12         5.8900   -1.8630    0.4600 h1        1 1YQ      0.061700
     37 H13         7.1990   -0.9990   -0.4960 h1        1 1YQ      0.061700
     38 H14         5.3410    0.3210   -1.7020 h1        1 1YQ      0.091200
     39 H15         5.6540    0.7470    0.0600 h1        1 1YQ      0.091200
     40 H16         1.4990    0.7470    1.7720 hn        1 1YQ      0.352500
     41 H17         1.1230   -1.9200   -1.5250 ha        1 1YQ      0.179000
     42 H18         3.6130   -1.6060   -1.9510 h4        1 1YQ      0.196000
     43 H19         5.2910   -5.8800   -8.9990 ha        1 1YQ      0.155000
     44 O10         3.9470    1.1690    1.5010 o         1 1YQ     -0.648500
     45 CL1         8.7510   -5.8830    0.2380 cl        1 1YQ     -0.076400
@<TRIPOS>BOND
     1    1   23 2   
     2    2   26 1   
     3    2   27 3   
     4    3    4 ar  
     5    3    8 ar  
     6    3   28 1   
     7    4    5 ar  
     8    4   45 1   
     9    5    6 ar  
    10    5   29 1   
    11    6    7 ar  
    12    6   30 1   
    13    7    8 ar  
    14    7    9 1   
    15    8   10 1   
    16    9   11 1   
    17   10   18 1   
    18   11   12 ar  
    19   11   16 ar  
    20   12   13 ar  
    21   12   31 1   
    22   13   14 ar  
    23   13   32 1   
    24   14   15 ar  
    25   14   33 1   
    26   15   16 ar  
    27   15   17 1   
    28   16   34 1   
    29   17   26 2   
    30   17   35 1   
    31   18   19 1   
    32   18   36 1   
    33   18   37 1   
    34   19   20 1   
    35   19   38 1   
    36   19   39 1   
    37   20   21 1   
    38   20   25 1   
    39   21   22 1   
    40   21   44 2   
    41   22   23 1   
    42   22   40 1   
    43   23   24 1   
    44   24   25 2   
    45   24   41 1   
    46   25   42 1   
    47   26   43 1   
@<TRIPOS>SUBSTRUCTURE
     1 1YQ         1 TEMP              0 ****  ****    0 ROOT
