@<TRIPOS>MOLECULE
1YR
   45    41     1     0     0
SMALL
bcc


@<TRIPOS>ATOM
      1 C15        -2.6030   -3.7200   -4.8570 c1        1 1YR     -0.085000
      2 C17        -3.0320   -4.5810   -3.6890 c1        1 1YR     -0.114000
      3 C00         2.8460    0.9880    0.5630 c1        1 1YR     -0.119000
      4 C01         3.7670    0.8330   -0.4600 c1        1 1YR     -0.063000
      5 C02         3.5180   -0.0650   -1.4860 c1        1 1YR     -0.110000
      6 C03         2.3470   -0.8070   -1.4890 c1        1 1YR     -0.145000
      7 C04         1.4260   -0.6510   -0.4660 c1        1 1YR      0.028000
      8 C05         1.6750    0.2460    0.5600 c1        1 1YR      0.054000
      9 CL1         5.2830    1.6930   -0.4050 cl        1 1YR      0.003000
     10 O0A         0.2170   -1.3710   -0.4940 os        1 1YR     -0.159000
     11 O0B         0.7880    0.3320    1.6460 os        1 1YR     -0.233000
     12 C0C         0.2730   -2.3430   -1.5090 c2        1 1YR      0.057000
     13 C0D         1.0230   -3.4950   -1.3240 c2        1 1YR     -0.138000
     14 C0E         0.9980   -4.4990   -2.2790 c1        1 1YR     -0.144000
     15 C0F         0.2230   -4.3520   -3.4190 c1        1 1YR     -0.100000
     16 C0G        -0.5260   -3.2020   -3.6050 c1        1 1YR     -0.043000
     17 C0H        -0.5020   -2.1970   -2.6490 c1        1 1YR     -0.117000
     18 BR1         1.9770   -6.1160   -1.9900 br        1 1YR      0.076000
     19 C0M        -1.4220   -3.0700   -4.8170 c2        1 1YR     -0.070000
     20 C0O         0.2730    1.6250    1.8620 c3        1 1YR     -0.045000
     21 C0P        -0.7660    1.5770    2.9600 c3        1 1YR     -0.025000
     22 N0S        -1.1530    2.9010    3.3060 n         1 1YR     -0.270000
     23 C0V        -2.4240    3.4390    2.8200 c2        1 1YR      0.396000
     24 N0W        -2.9350    4.7050    3.3470 n         1 1YR     -0.365000
     25 C0X        -2.1550    5.4580    4.2630 c2        1 1YR      0.353000
     26 C0Y        -0.8790    4.9220    4.7520 c2        1 1YR     -0.307000
     27 C0Z        -0.3690    3.6510    4.2210 c2        1 1YR      0.057000
     28 O10        -3.0440    2.8470    1.9590 o         1 1YR     -0.372000
     29 O12        -2.5800    6.5090    4.7000 o         1 1YR     -0.333000
     30 N19        -3.3560   -5.2300   -2.8090 n1        1 1YR     -0.027000
     31 H1         -3.1810   -3.6350   -5.6390 ha        1 1YR      0.157000
     32 H3          3.0210    1.6200    1.2860 ha        1 1YR      0.167000
     33 H4          4.1670   -0.1740   -2.2070 ha        1 1YR      0.157000
     34 H5          2.1720   -1.4390   -2.2120 ha        1 1YR      0.157000
     35 H9          1.5680   -3.5980   -0.5210 ha        1 1YR      0.166000
     36 H10         0.2060   -5.0600   -4.0920 ha        1 1YR      0.161000
     37 H11        -1.0300   -1.3870   -2.7800 ha        1 1YR      0.156000
     38 H12        -1.1460   -2.5150   -5.5710 ha        1 1YR      0.143000
     39 H14        -0.1390    1.9550    1.0370 h1        1 1YR      0.103500
     40 H15         1.0000    2.2270    2.1260 h1        1 1YR      0.103500
     41 H16        -1.5490    1.0790    2.6470 h1        1 1YR      0.129500
     42 H17        -0.3890    1.1310    3.7470 h1        1 1YR      0.129500
     43 H18        -3.7270    5.0380    3.0430 hn        1 1YR      0.266000
     44 H19        -0.3420    5.4390    5.3820 ha        1 1YR      0.180000
     45 H20         0.4790    3.2920    4.5450 h4        1 1YR      0.182000
@<TRIPOS>BOND
     1    1   19 1   
     2    1   31 1   
     3    2   30 1   
     4    3    8 1   
     5    3   32 1   
     6    4    5 1   
     7    4    9 1   
     8    5   33 1   
     9    6    7 1   
    10    6   34 1   
    11    7   10 1   
    12    8   11 1   
    13   10   12 1   
    14   11   20 1   
    15   12   13 1   
    16   12   17 1   
    17   13   14 1   
    18   13   35 1   
    19   14   18 1   
    20   15   16 1   
    21   15   36 1   
    22   16   19 1   
    23   17   37 1   
    24   19   38 1   
    25   20   21 1   
    26   20   39 1   
    27   20   40 1   
    28   21   22 1   
    29   21   41 1   
    30   21   42 1   
    31   22   23 1   
    32   22   27 1   
    33   23   24 1   
    34   23   28 1   
    35   24   25 1   
    36   24   43 1   
    37   25   26 1   
    38   25   29 1   
    39   26   27 1   
    40   26   44 1   
    41   27   45 1   
@<TRIPOS>SUBSTRUCTURE
     1 1YR         1 TEMP              0 ****  ****    0 ROOT
