@<TRIPOS>MOLECULE
1YR
   45    47     1     0     0
SMALL
bcc


@<TRIPOS>ATOM
      1 C15        -5.4560    0.8470    2.0960 ce        1 1YR     -0.053700
      2 C17        -6.2290    1.7500    2.8680 cg        1 1YR      0.179500
      3 C00         1.7580    3.2230   -0.0130 ca        1 1YR     -0.182000
      4 C01         1.0920    3.9790   -0.9820 ca        1 1YR      0.045400
      5 C02         0.0440    3.4350   -1.7320 ca        1 1YR     -0.138000
      6 C03        -0.3450    2.1150   -1.5180 ca        1 1YR     -0.108000
      7 C04         0.3130    1.3410   -0.5580 ca        1 1YR      0.055100
      8 C05         1.3630    1.8990    0.2060 ca        1 1YR      0.128100
      9 O0A         0.0540   -0.0190   -0.4150 os        1 1YR     -0.239200
     10 O0B         1.9100    1.0820    1.1710 os        1 1YR     -0.330900
     11 C0C        -1.2280   -0.3530    0.0160 ca        1 1YR      0.108100
     12 C0D        -1.6370   -1.6570   -0.3060 ca        1 1YR     -0.113000
     13 C0E        -2.8790   -2.0980    0.1490 ca        1 1YR     -0.005900
     14 C0F        -3.7040   -1.2520    0.8980 ca        1 1YR     -0.111000
     15 C0G        -3.2900    0.0500    1.2060 ca        1 1YR     -0.043800
     16 C0H        -2.0360    0.5020    0.7670 ca        1 1YR     -0.150000
     17 C0M        -4.1210    0.9530    1.9870 cf        1 1YR     -0.057200
     18 C0O         3.2600    1.3820    1.5540 c3        1 1YR      0.102400
     19 C0P         3.7880    0.1070    2.2270 c3        1 1YR      0.090000
     20 N0S         4.1400   -0.9550    1.3140 n         1 1YR     -0.380000
     21 C0V         5.5000   -1.3560    1.2020 c         1 1YR      0.805500
     22 N0W         5.8140   -2.4110    0.3350 n         1 1YR     -0.584500
     23 C0X         4.8460   -3.0780   -0.4430 c         1 1YR      0.714700
     24 C0Y         3.4680   -2.5980   -0.3060 cc        1 1YR     -0.322200
     25 C0Z         3.1700   -1.5780    0.5400 cd        1 1YR      0.054600
     26 O10         6.3960   -0.7870    1.8640 o         1 1YR     -0.648500
     27 O12         5.2120   -4.0070   -1.1810 o         1 1YR     -0.607500
     28 N19        -6.8810    2.4820    3.4960 n1        1 1YR     -0.354800
     29 H1         -6.0360    0.0550    1.5890 ha        1 1YR      0.157000
     30 H3          2.5760    3.6640    0.5750 ha        1 1YR      0.160000
     31 H4         -0.4700    4.0420   -2.4920 ha        1 1YR      0.159000
     32 H5         -1.1650    1.6710   -2.1040 ha        1 1YR      0.159000
     33 H9         -0.9730   -2.3040   -0.9000 ha        1 1YR      0.168000
     34 H10        -4.6800   -1.6130    1.2590 ha        1 1YR      0.153000
     35 H11        -1.6920    1.5190    1.0090 ha        1 1YR      0.155000
     36 H12        -3.5780    1.7700    2.4970 ha        1 1YR      0.143000
     37 H14         3.8700    1.6820    0.6650 h1        1 1YR      0.062700
     38 H15         3.2400    2.2150    2.3060 h1        1 1YR      0.062700
     39 H16         4.7030    0.3900    2.8260 h1        1 1YR      0.091700
     40 H17         2.9930   -0.2790    2.9290 h1        1 1YR      0.091700
     41 H18         6.7720   -2.6840    0.2810 hn        1 1YR      0.352500
     42 H19         2.7070   -3.0960   -0.9180 ha        1 1YR      0.180000
     43 H20         2.1410   -1.1720    0.6510 h4        1 1YR      0.193000
     44 BR1        -3.4490   -3.8360   -0.2520 br        1 1YR     -0.067100
     45 CL1         1.5660    5.5880   -1.2460 cl        1 1YR     -0.073400
@<TRIPOS>BOND
     1    1    2 1   
     2    1   17 2   
     3    1   29 1   
     4    2   28 3   
     5    3    4 ar  
     6    3    8 ar  
     7    3   30 1   
     8    4    5 ar  
     9    4   45 1   
    10    5    6 ar  
    11    5   31 1   
    12    6    7 ar  
    13    6   32 1   
    14    7    8 ar  
    15    7    9 1   
    16    8   10 1   
    17    9   11 1   
    18   10   18 1   
    19   11   12 ar  
    20   11   16 ar  
    21   12   13 ar  
    22   12   33 1   
    23   13   14 ar  
    24   13   44 1   
    25   14   15 ar  
    26   14   34 1   
    27   15   16 ar  
    28   15   17 1   
    29   16   35 1   
    30   17   36 1   
    31   18   19 1   
    32   18   37 1   
    33   18   38 1   
    34   19   20 1   
    35   19   39 1   
    36   19   40 1   
    37   20   21 1   
    38   20   25 1   
    39   21   22 1   
    40   21   26 2   
    41   22   23 1   
    42   22   41 1   
    43   23   24 1   
    44   23   27 2   
    45   24   25 2   
    46   24   42 1   
    47   25   43 1   
@<TRIPOS>SUBSTRUCTURE
     1 1YR         1 TEMP              0 ****  ****    0 ROOT
