@<TRIPOS>MOLECULE
1YR
   45    46     1     0     0
SMALL
bcc


@<TRIPOS>ATOM
      1 C15         0.0000    0.0000    0.0000 c2        1 1YR     -0.177000
      2 C17        -0.7160    0.0000    1.2400 c1        1 1YR     -0.054000
      3 C00         6.1030    1.0670    6.0820 c2        1 1YR     -0.226000
      4 C01         6.7090    0.0000    6.5540 c2        1 1YR      0.014000
      5 C02         6.7040   -1.5260    5.7910 c2        1 1YR      0.023000
      6 C03         5.9120   -1.2010    4.6420 c2        1 1YR     -0.325000
      7 C04         5.2050    0.0080    4.0720 c1        1 1YR      0.332000
      8 C05         5.9850    1.1410    4.9100 c2        1 1YR      0.088000
      9 O0A         5.5240    0.0000   -2.4910 o         1 1YR     -0.383000
     10 O0B         5.9340    2.4760    4.4170 os        1 1YR     -0.190000
     11 C0C         4.1650    0.0010   -2.4840 ca        1 1YR      0.188000
     12 C0D         3.4640    0.0020   -3.6820 ca        1 1YR     -0.102000
     13 C0E         2.0800    0.0020   -3.6820 ca        1 1YR     -0.116000
     14 C0F         1.3870    0.0010   -2.4880 ca        1 1YR     -0.267000
     15 C0G         2.0830    0.0000   -1.2750 ca        1 1YR      0.128000
     16 C0H         3.4810   -0.0060   -1.2800 ca        1 1YR     -0.074000
     17 C0M         1.3480    0.0000    0.0000 c2        1 1YR     -0.169000
     18 C0O         6.6840    3.5580    4.9670 c3        1 1YR      0.067000
     19 C0P         6.9970    4.4790    3.8410 c3        1 1YR     -0.029000
     20 N0S         8.4400    4.6410    3.9460 n         1 1YR     -0.140000
     21 C0V         9.6600    4.1050    3.3590 c2        1 1YR      0.361000
     22 N0W        10.8420    4.7770    3.1990 ns        1 1YR      0.050000
     23 C0X        11.1670    5.6730    4.2900 c2        1 1YR      0.125000
     24 C0Y        10.2060    6.4810    5.1060 c2        1 1YR     -0.079000
     25 C0Z         8.8340    6.1590    4.3360 c2        1 1YR     -0.130000
     26 O10         9.5090    3.3520    2.7010 o         1 1YR     -0.292000
     27 O12        12.6110    6.2560    4.3340 o         1 1YR     -0.452000
     28 N19        -1.2970   -0.0120    2.2170 n1        1 1YR     -0.098000
     29 H1         -0.5970    0.0040   -0.9040 ha        1 1YR      0.118000
     30 H3          6.3160    1.7340    6.9080 ha        1 1YR      0.154000
     31 H4          7.0630   -2.4850    6.1460 ha        1 1YR      0.165000
     32 H5          5.8180   -2.0430    3.9660 ha        1 1YR      0.115000
     33 H9          3.8790   -0.7990   -4.2830 ha        1 1YR      0.126000
     34 H10         0.3240   -0.1230   -2.6600 ha        1 1YR      0.149000
     35 H11         4.1790   -0.4480   -0.5790 ha        1 1YR      0.143000
     36 H12         1.5600    0.0800   -1.0590 ha        1 1YR      0.150000
     37 H14         6.2460    4.2340    5.6920 h1        1 1YR      0.060500
     38 H15         7.5190    2.9660    5.3220 h1        1 1YR      0.060500
     39 H16         7.0520    4.0320    2.8560 h1        1 1YR      0.090500
     40 H17         6.4800    5.4180    3.6860 h1        1 1YR      0.090500
     41 H18        11.6850    4.5380    2.7140 hn        1 1YR      0.153000
     42 H19        10.2650    7.1960    5.9180 ha        1 1YR      0.166000
     43 H20         7.9670    6.6780    4.7260 h4        1 1YR      0.089000
     44 Br1         1.0060   -0.6780   -4.8840 br        1 1YR      0.045000
     45 Cl1         7.1520   -0.3530    8.4070 cl        1 1YR      0.052000
@<TRIPOS>BOND
     1    1    2 1   
     2    1   17 1   
     3    1   29 1   
     4    2   28 1   
     5    3    4 1   
     6    3    8 1   
     7    3   30 1   
     8    4    5 1   
     9    4   45 1   
    10    5    6 1   
    11    5   31 1   
    12    6    7 1   
    13    6   32 1   
    14    7    8 1   
    15    8   10 1   
    16    9   11 1   
    17   10   18 1   
    18   11   12 1   
    19   11   16 1   
    20   12   13 1   
    21   12   33 1   
    22   13   14 1   
    23   13   44 1   
    24   14   15 1   
    25   14   34 1   
    26   15   16 1   
    27   15   17 1   
    28   16   35 1   
    29   17   36 1   
    30   18   19 1   
    31   18   37 1   
    32   18   38 1   
    33   19   20 1   
    34   19   39 1   
    35   19   40 1   
    36   20   21 1   
    37   20   25 1   
    38   21   22 1   
    39   21   26 1   
    40   22   23 1   
    41   22   41 1   
    42   23   24 1   
    43   23   27 1   
    44   24   25 1   
    45   24   42 1   
    46   25   43 1   
@<TRIPOS>SUBSTRUCTURE
     1 1YR         1 TEMP              0 ****  ****    0 ROOT
