@<TRIPOS>MOLECULE
1YS
   71    73     1     0     0
SMALL
bcc


@<TRIPOS>ATOM
      1 F1          0.2200    1.9910   -2.1330 f         1 1YS     -0.217300
      2 C2          0.9110    1.2930   -1.1790 c3        1 1YS      0.630900
      3 F3          0.4060    1.7390    0.0160 f         1 1YS     -0.217300
      4 F4          0.4990   -0.0030   -1.2880 f         1 1YS     -0.217300
      5 C5          2.4660    1.5070   -1.2750 c3        1 1YS      0.048100
      6 O7          3.0420    0.8210   -0.1740 os        1 1YS     -0.293900
      7 C8          3.8180    1.6230    0.6670 ca        1 1YS     -0.011900
      8 C9          5.2310    1.6050    0.5070 ca        1 1YS      0.184600
      9 C10         5.9820    2.3150    1.5050 ca        1 1YS      0.049900
     10 C11         5.3420    2.9900    2.5480 ca        1 1YS     -0.104000
     11 C13         3.9470    2.9900    2.6550 ca        1 1YS     -0.140300
     12 C14         3.1880    2.2990    1.7110 ca        1 1YS     -0.080000
     13 C16         3.2760    3.6880    3.7860 c3        1 1YS     -0.018100
     14 C19         2.5360    4.9390    3.3180 c3        1 1YS     -0.068700
     15 C21         1.6770    5.5330    4.4450 c3        1 1YS      0.129100
     16 C23         0.8660    6.7440    3.8870 c3        1 1YS      0.141500
     17 C25         1.8160    7.8600    3.5050 c3        1 1YS     -0.127100
     18 S28         2.8160    7.4020    2.1040 s4        1 1YS      0.332600
     19 C29         3.5220    5.9730    2.8160 c3        1 1YS     -0.119100
     20 O32         1.8290    6.9260    1.1140 o         1 1YS     -0.481200
     21 N33        -0.1860    7.1930    4.8640 ny        1 1YS     -0.761000
     22 C35        -1.3230    7.9150    4.2010 c3        1 1YS      0.177100
     23 C38        -2.3150    8.3710    5.2150 ca        1 1YS     -0.189300
     24 C39        -3.3890    7.5450    5.5560 ca        1 1YS     -0.100000
     25 C41        -4.3550    7.9710    6.4800 ca        1 1YS     -0.046300
     26 C42        -4.2170    9.2410    7.0540 ca        1 1YS     -0.083000
     27 C44        -3.1440   10.0670    6.7120 ca        1 1YS     -0.118000
     28 C46        -2.1900    9.6390    5.7940 ca        1 1YS     -0.112000
     29 C48        -5.5040    7.0540    6.8140 c3        1 1YS     -0.017700
     30 C49        -6.2980    6.7580    5.5440 c3        1 1YS     -0.090100
     31 C53        -4.9610    5.7480    7.3880 c3        1 1YS     -0.090100
     32 C57        -6.4530    7.6660    7.8370 c3        1 1YS     -0.090100
     33 O61         0.6980    4.6220    4.9220 oh        1 1YS     -0.629800
     34 F63         7.3370    2.3270    1.4350 f         1 1YS     -0.130900
     35 N64         5.8360    1.0090   -0.5720 nv        1 1YS     -0.828200
     36 C67         3.0780    0.8780   -2.5830 c3        1 1YS      0.630900
     37 F68         2.1920    0.7550   -3.6160 f         1 1YS     -0.217300
     38 F69         4.1130    1.6300   -3.0760 f         1 1YS     -0.217300
     39 F70         3.6110   -0.3680   -2.3940 f         1 1YS     -0.217300
     40 H1          2.6700    2.6100   -1.2750 h1        1 1YS      0.124700
     41 H2          5.9600    3.5140    3.2950 ha        1 1YS      0.152000
     42 H3          2.0880    2.2630    1.7800 ha        1 1YS      0.157000
     43 H4          4.0270    3.9700    4.5700 hc        1 1YS      0.054200
     44 H5          2.5500    2.9680    4.2520 hc        1 1YS      0.054200
     45 H6          1.8500    4.6440    2.4700 hc        1 1YS      0.098700
     46 H7          2.3310    5.8640    5.3010 h1        1 1YS      0.056700
     47 H8          0.3110    6.3880    2.9590 hx        1 1YS      0.143700
     48 H9          2.4910    8.1250    4.3550 h1        1 1YS      0.101700
     49 H10         1.2560    8.7840    3.2130 h1        1 1YS      0.101700
     50 H11         4.1740    5.4780    2.0440 h1        1 1YS      0.111700
     51 H12         4.2040    6.2820    3.6500 h1        1 1YS      0.111700
     52 H14        -0.5600    6.3610    5.3460 hn        1 1YS      0.454800
     53 H16        -1.7960    7.2040    3.4640 hx        1 1YS      0.106700
     54 H17        -0.8950    8.7900    3.6340 hx        1 1YS      0.106700
     55 H18        -3.4900    6.5550    5.0830 ha        1 1YS      0.142000
     56 H19        -4.9570    9.6120    7.7820 ha        1 1YS      0.161000
     57 H20        -3.0580   11.0660    7.1680 ha        1 1YS      0.156000
     58 H21        -1.3570   10.3020    5.5150 ha        1 1YS      0.134000
     59 H22        -7.1590    6.0880    5.7850 hc        1 1YS      0.043922
     60 H23        -6.6950    7.7030    5.1040 hc        1 1YS      0.043922
     61 H24        -5.6570    6.2490    4.7850 hc        1 1YS      0.043922
     62 H25        -4.3720    5.9460    8.3150 hc        1 1YS      0.043922
     63 H26        -4.3060    5.2310    6.6470 hc        1 1YS      0.043922
     64 H27        -5.8090    5.0680    7.6440 hc        1 1YS      0.043922
     65 H28        -7.2820    6.9480    8.0540 hc        1 1YS      0.043922
     66 H29        -6.9030    8.6100    7.4450 hc        1 1YS      0.043922
     67 H30        -5.9190    7.8810    8.7940 hc        1 1YS      0.043922
     68 H31         1.1510    3.8320    5.2450 ho        1 1YS      0.451000
     69 H32         5.3090    0.3370   -1.0830 hn        1 1YS      0.440300
     70 H33         6.8200    0.8750   -0.5280 hn        1 1YS      0.440300
     71 H332        0.2370    7.8050    5.5680 hn        1 1YS      0.454800
@<TRIPOS>BOND
     1    1    2 1   
     2    2    3 1   
     3    2    4 1   
     4    2    5 1   
     5    5    6 1   
     6    5   36 1   
     7    5   40 1   
     8    6    7 1   
     9    7    8 ar  
    10    7   12 ar  
    11    8    9 ar  
    12    8   35 1   
    13    9   10 ar  
    14    9   34 1   
    15   10   11 ar  
    16   10   41 1   
    17   11   12 ar  
    18   11   13 1   
    19   12   42 1   
    20   13   14 1   
    21   13   43 1   
    22   13   44 1   
    23   14   15 1   
    24   14   19 1   
    25   14   45 1   
    26   15   16 1   
    27   15   33 1   
    28   15   46 1   
    29   16   17 1   
    30   16   21 1   
    31   16   47 1   
    32   17   18 1   
    33   17   48 1   
    34   17   49 1   
    35   18   19 1   
    36   18   20 2   
    37   19   50 1   
    38   19   51 1   
    39   21   22 1   
    40   21   52 1   
    41   21   71 1   
    42   22   23 1   
    43   22   53 1   
    44   22   54 1   
    45   23   24 ar  
    46   23   28 ar  
    47   24   25 ar  
    48   24   55 1   
    49   25   26 ar  
    50   25   29 1   
    51   26   27 ar  
    52   26   56 1   
    53   27   28 ar  
    54   27   57 1   
    55   28   58 1   
    56   29   30 1   
    57   29   31 1   
    58   29   32 1   
    59   30   59 1   
    60   30   60 1   
    61   30   61 1   
    62   31   62 1   
    63   31   63 1   
    64   31   64 1   
    65   32   65 1   
    66   32   66 1   
    67   32   67 1   
    68   33   68 1   
    69   35   69 1   
    70   35   70 1   
    71   36   37 1   
    72   36   38 1   
    73   36   39 1   
@<TRIPOS>SUBSTRUCTURE
     1 1YS         1 TEMP              0 ****  ****    0 ROOT
