@<TRIPOS>MOLECULE
1YS
   71    73     1     0     0
SMALL
bcc


@<TRIPOS>ATOM
      1 F1          0.0380    2.2200   -1.8780 f         1 1YS     -0.218133
      2 C2          0.6910    1.5340   -0.8900 c3        1 1YS      0.631400
      3 F3          0.3330    2.1720    0.2720 f         1 1YS     -0.218133
      4 F4          0.0950    0.3080   -0.8250 f         1 1YS     -0.218133
      5 C5          2.2500    1.5080   -1.0910 c3        1 1YS      0.049100
      6 O7          2.8050    0.8590    0.0430 os        1 1YS     -0.293900
      7 C8          3.6920    1.6460    0.7820 ca        1 1YS     -0.009900
      8 C9          5.0840    1.5390    0.5210 ca        1 1YS      0.177600
      9 C10         5.9470    2.2520    1.4210 ca        1 1YS      0.054900
     10 C11         5.4270    3.0110    2.4730 ca        1 1YS     -0.102000
     11 C13         4.0470    3.0940    2.6860 ca        1 1YS     -0.136300
     12 C14         3.1820    2.4030    1.8380 ca        1 1YS     -0.084000
     13 C16         3.5020    3.8820    3.8230 c3        1 1YS     -0.024100
     14 C19         2.7670    5.1320    3.3400 c3        1 1YS     -0.067700
     15 C21         1.8000    5.6260    4.4240 c3        1 1YS      0.123100
     16 C23         1.0050    6.8650    3.9010 c3        1 1YS      0.105500
     17 C25         1.9520    8.0170    3.6430 c3        1 1YS     -0.122100
     18 S28         3.0350    7.6570    2.2750 s4        1 1YS      0.331600
     19 C29         3.7490    6.2160    2.9580 c3        1 1YS     -0.115100
     20 O32         2.1120    7.1940    1.2180 o         1 1YS     -0.483200
     21 N33        -0.0940    7.2230    4.8630 n4        1 1YS     -0.762000
     22 C35        -1.2290    7.9540    4.2080 c3        1 1YS      0.177100
     23 C38        -2.2600    8.3330    5.2160 ca        1 1YS     -0.188300
     24 C39        -3.3350    7.4770    5.4660 ca        1 1YS     -0.100000
     25 C41        -4.3340    7.8310    6.3850 ca        1 1YS     -0.046300
     26 C42        -4.2280    9.0610    7.0460 ca        1 1YS     -0.083000
     27 C44        -3.1540    9.9180    6.7950 ca        1 1YS     -0.118000
     28 C46        -2.1660    9.5610    5.8810 ca        1 1YS     -0.112000
     29 C48        -5.4820    6.8840    6.6210 c3        1 1YS     -0.017700
     30 C49        -6.2320    6.6650    5.3090 c3        1 1YS     -0.090100
     31 C53        -4.9430    5.5480    7.1250 c3        1 1YS     -0.090100
     32 C57        -6.4700    7.4190    7.6510 c3        1 1YS     -0.090100
     33 O61         0.8680    4.6410    4.8260 oh        1 1YS     -0.607800
     34 F63         7.2910    2.1840    1.2480 f         1 1YS     -0.129900
     35 N64         5.5710    0.8610   -0.5720 nh        1 1YS     -0.826200
     36 C67         2.6780    0.6660   -2.3530 c3        1 1YS      0.631400
     37 F68         1.6880    0.4980   -3.2800 f         1 1YS     -0.218133
     38 F69         3.7170    1.2520   -3.0280 f         1 1YS     -0.218133
     39 F70         3.1240   -0.5900   -2.0450 f         1 1YS     -0.218133
     40 H1          2.6050    2.5640   -1.2240 h1        1 1YS      0.125700
     41 H2          6.1280    3.5350    3.1430 ha        1 1YS      0.153000
     42 H3          2.0910    2.4320    1.9900 ha        1 1YS      0.148000
     43 H4          2.7960    3.2350    4.4120 hc        1 1YS      0.065700
     44 H5          4.3290    4.1840    4.5200 hc        1 1YS      0.065700
     45 H6          2.1600    4.8610    2.4250 hc        1 1YS      0.088700
     46 H7          2.3630    5.8970    5.3630 h1        1 1YS      0.093700
     47 H8          0.4990    6.5750    2.9250 hx        1 1YS      0.133700
     48 H9          2.5740    8.2390    4.5440 h1        1 1YS      0.101700
     49 H10         1.3920    8.9490    3.3770 h1        1 1YS      0.101700
     50 H11         4.3670    6.5020    3.8480 h1        1 1YS      0.112700
     51 H12         4.4630    5.7790    2.2050 h1        1 1YS      0.112700
     52 H14         0.2870    7.8000    5.6190 hn        1 1YS      0.455300
     53 H16        -0.8040    8.8680    3.7030 hx        1 1YS      0.105200
     54 H17        -1.6650    7.2760    3.4190 hx        1 1YS      0.105200
     55 H18        -3.4100    6.5190    4.9260 ha        1 1YS      0.140000
     56 H19        -4.9940    9.3770    7.7730 ha        1 1YS      0.161000
     57 H20        -3.0920   10.8850    7.3190 ha        1 1YS      0.156000
     58 H21        -1.3320   10.2480    5.6740 ha        1 1YS      0.134000
     59 H22        -6.6260    7.6340    4.9190 hc        1 1YS      0.044033
     60 H23        -5.5620    6.2130    4.5390 hc        1 1YS      0.044033
     61 H24        -7.0920    5.9730    5.4780 hc        1 1YS      0.044033
     62 H25        -4.2590    5.0870    6.3740 hc        1 1YS      0.044033
     63 H26        -5.7910    4.8450    7.3080 hc        1 1YS      0.044033
     64 H27        -4.3850    5.6900    8.0820 hc        1 1YS      0.044033
     65 H28        -6.9180    8.3820    7.3070 hc        1 1YS      0.044033
     66 H29        -7.2970    6.6810    7.7920 hc        1 1YS      0.044033
     67 H30        -5.9690    7.5750    8.6360 hc        1 1YS      0.044033
     68 H31         0.7240    4.0270    4.0920 ho        1 1YS      0.437000
     69 H32         6.5480    0.6770   -0.5930 hn        1 1YS      0.437300
     70 H33         4.9780    0.1760   -0.9850 hn        1 1YS      0.437300
     71 H332       -0.4540    6.3500    5.2810 hn        1 1YS      0.455300
@<TRIPOS>BOND
     1    1    2 1   
     2    2    3 1   
     3    2    4 1   
     4    2    5 1   
     5    5    6 1   
     6    5   36 1   
     7    5   40 1   
     8    6    7 1   
     9    7    8 ar  
    10    7   12 ar  
    11    8    9 ar  
    12    8   35 1   
    13    9   10 ar  
    14    9   34 1   
    15   10   11 ar  
    16   10   41 1   
    17   11   12 ar  
    18   11   13 1   
    19   12   42 1   
    20   13   14 1   
    21   13   43 1   
    22   13   44 1   
    23   14   15 1   
    24   14   19 1   
    25   14   45 1   
    26   15   16 1   
    27   15   33 1   
    28   15   46 1   
    29   16   17 1   
    30   16   21 1   
    31   16   47 1   
    32   17   18 1   
    33   17   48 1   
    34   17   49 1   
    35   18   19 1   
    36   18   20 2   
    37   19   50 1   
    38   19   51 1   
    39   21   22 1   
    40   21   52 1   
    41   21   71 1   
    42   22   23 1   
    43   22   53 1   
    44   22   54 1   
    45   23   24 ar  
    46   23   28 ar  
    47   24   25 ar  
    48   24   55 1   
    49   25   26 ar  
    50   25   29 1   
    51   26   27 ar  
    52   26   56 1   
    53   27   28 ar  
    54   27   57 1   
    55   28   58 1   
    56   29   30 1   
    57   29   31 1   
    58   29   32 1   
    59   30   59 1   
    60   30   60 1   
    61   30   61 1   
    62   31   62 1   
    63   31   63 1   
    64   31   64 1   
    65   32   65 1   
    66   32   66 1   
    67   32   67 1   
    68   33   68 1   
    69   35   69 1   
    70   35   70 1   
    71   36   37 1   
    72   36   38 1   
    73   36   39 1   
@<TRIPOS>SUBSTRUCTURE
     1 1YS         1 TEMP              0 ****  ****    0 ROOT
