@<TRIPOS>MOLECULE
1YS
   70    66     1     0     0
SMALL
bcc


@<TRIPOS>ATOM
      1 F1          7.7330   -5.8630   -0.7770 f         1 1YS     -0.148667
      2 C2          7.0550   -4.7140   -0.8660 c3        1 1YS      0.415500
      3 F3          7.8640   -3.6860   -0.5200 f         1 1YS     -0.148667
      4 F4          6.6170   -4.5390   -2.1530 f         1 1YS     -0.148667
      5 C5          5.8470   -4.7630    0.0740 c3        1 1YS     -0.057000
      6 O7          4.9330   -5.7490   -0.3870 os        1 1YS     -0.176000
      7 C8          3.7330   -5.1920   -1.0570 c1        1 1YS     -0.053000
      8 C9          3.4970   -5.4730   -2.3890 c1        1 1YS      0.086000
      9 C10         2.2800   -5.0710   -2.9910 c1        1 1YS      0.018000
     10 C11         1.3340   -4.4020   -2.2530 c1        1 1YS     -0.111000
     11 C13         1.5670   -4.1200   -0.9210 c1        1 1YS     -0.093000
     12 C14         2.7790   -4.5180   -0.3150 c1        1 1YS     -0.107000
     13 C16         0.4680   -3.4470   -0.0810 c2        1 1YS     -0.115000
     14 C19        -0.0980   -2.2440   -0.8500 c3        1 1YS     -0.100000
     15 C21        -0.9050   -1.3400    0.1540 c3        1 1YS      0.017000
     16 C23        -1.4180    0.0330   -0.4800 c3        1 1YS      0.017000
     17 C25        -0.3470    0.8460   -1.1380 c3        1 1YS     -0.604000
     18 S28         0.4760   -0.1130   -2.2110 s4        1 1YS      1.384000
     19 C29         1.0540   -1.5390   -1.5330 c3        1 1YS     -0.599000
     20 O32         1.1910    0.5050   -3.3650 o         1 1YS     -0.772000
     21 N33        -2.0060    0.8170    0.5590 n3        1 1YS     -0.296000
     22 C35        -2.7110    1.9460   -0.0280 c3        1 1YS     -0.034000
     23 C38        -2.8020    3.0830    0.9960 c2        1 1YS     -0.090000
     24 C39        -3.5830    4.2120    0.7230 c2        1 1YS     -0.121000
     25 C41        -3.5740    5.2970    1.6050 c1        1 1YS     -0.059000
     26 C42        -2.7950    5.2550    2.7440 c2        1 1YS     -0.123000
     27 C44        -2.0150    4.1280    3.0170 c1        1 1YS     -0.134000
     28 C46        -2.0220    3.0440    2.1390 c1        1 1YS     -0.112000
     29 C48        -4.5160    6.5550    1.3330 c2        1 1YS     -0.017000
     30 C49        -4.2660    7.0950   -0.1070 c3        1 1YS     -0.203667
     31 C53        -5.9840    6.1290    1.4770 c3        1 1YS     -0.203667
     32 C57        -4.1900    7.6650    2.3560 c3        1 1YS     -0.203667
     33 O61        -1.9800   -2.0420    0.5890 oh        1 1YS     -0.328000
     34 F63         2.0030   -5.4430   -4.2500 f         1 1YS     -0.104000
     35 N64         4.4380   -6.2410   -3.1320 n3        1 1YS     -0.333000
     36 C67         6.3020   -5.1110    1.4690 c3        1 1YS      0.415500
     37 F68         7.1660   -4.2330    1.8710 f         1 1YS     -0.148667
     38 F69         5.2400   -5.1120    2.3010 f         1 1YS     -0.148667
     39 F70         6.8820   -6.3570    1.4670 f         1 1YS     -0.148667
     40 H1          5.4110   -3.8990    0.0850 h1        1 1YS      0.164000
     41 H2          0.5140   -4.1330   -2.6620 ha        1 1YS      0.156000
     42 H3          2.9470   -4.3150    0.6420 ha        1 1YS      0.155000
     43 H4         -0.2400   -4.0820    0.0910 ha        1 1YS      0.095500
     44 H5          0.8490   -3.1400    0.7720 ha        1 1YS      0.095500
     45 H6         -0.6940   -2.5620   -1.5130 hc        1 1YS      0.104000
     46 H7         -0.3410   -1.1390    0.9120 h1        1 1YS      0.096000
     47 H8         -2.1350   -0.1760   -1.1720 h1        1 1YS      0.068000
     48 H9         -0.5810    1.6850   -1.5230 h1        1 1YS      0.140500
     49 H10         0.2380    1.1360   -0.4380 h1        1 1YS      0.140500
     50 H11         1.9040   -1.4860   -1.0150 h1        1 1YS      0.131500
     51 H12         1.3490   -2.1130   -2.2850 h1        1 1YS      0.131500
     52 H14        -2.5760    0.3190    1.0220 hn        1 1YS      0.177000
     53 H16        -2.2340    2.2540   -0.8060 h1        1 1YS      0.076000
     54 H17        -3.6140    1.6660   -0.2880 h1        1 1YS      0.076000
     55 H18        -4.1470    4.2410   -0.0980 ha        1 1YS      0.131000
     56 H19        -2.7870    6.0250    3.3690 ha        1 1YS      0.134000
     57 H20        -1.4900    4.1000    3.7850 ha        1 1YS      0.132000
     58 H21        -1.4630    2.2390    2.3360 ha        1 1YS      0.144000
     59 H22        -4.8830    7.8510   -0.2900 hc        1 1YS      0.076222
     60 H23        -4.4250    6.3780   -0.7610 hc        1 1YS      0.076222
     61 H24        -3.3320    7.4070   -0.1810 hc        1 1YS      0.076222
     62 H25        -6.1930    5.4590    0.8050 hc        1 1YS      0.076222
     63 H26        -6.5680    6.9110    1.3540 hc        1 1YS      0.076222
     64 H27        -6.1210    5.7680    2.3310 hc        1 1YS      0.076222
     65 H28        -4.3740    7.3220    3.2990 hc        1 1YS      0.076222
     66 H29        -4.7450    8.4440    2.1800 hc        1 1YS      0.076222
     67 H30        -3.2420    7.9130    2.2750 hc        1 1YS      0.076222
     68 H31        -1.8060   -2.3850    1.3920 ho        1 1YS      0.208000
     69 H32         4.6400   -7.1290   -2.8670 hn        1 1YS      0.224000
     70 H33         4.8940   -5.8580   -3.8230 hn        1 1YS      0.224000
@<TRIPOS>BOND
     1    1    2 1   
     2    2    3 1   
     3    2    4 1   
     4    2    5 1   
     5    5    6 1   
     6    5   36 1   
     7    5   40 1   
     8    6    7 1   
     9    7    8 1   
    10    8   35 1   
    11    9   10 1   
    12    9   34 1   
    13   10   41 1   
    14   11   12 1   
    15   12   42 1   
    16   13   14 1   
    17   13   43 1   
    18   13   44 1   
    19   14   15 1   
    20   14   19 1   
    21   14   45 1   
    22   15   16 1   
    23   15   33 1   
    24   15   46 1   
    25   16   17 1   
    26   16   21 1   
    27   16   47 1   
    28   17   18 1   
    29   17   48 1   
    30   17   49 1   
    31   18   19 1   
    32   18   20 1   
    33   19   50 1   
    34   19   51 1   
    35   21   22 1   
    36   21   52 1   
    37   22   23 1   
    38   22   53 1   
    39   22   54 1   
    40   23   24 1   
    41   23   28 1   
    42   24   25 1   
    43   24   55 1   
    44   25   26 1   
    45   26   27 1   
    46   26   56 1   
    47   27   57 1   
    48   28   58 1   
    49   29   30 1   
    50   29   31 1   
    51   29   32 1   
    52   30   59 1   
    53   30   60 1   
    54   30   61 1   
    55   31   62 1   
    56   31   63 1   
    57   31   64 1   
    58   32   65 1   
    59   32   66 1   
    60   32   67 1   
    61   33   68 1   
    62   35   69 1   
    63   35   70 1   
    64   36   37 1   
    65   36   38 1   
    66   36   39 1   
@<TRIPOS>SUBSTRUCTURE
     1 1YS         1 TEMP              0 ****  ****    0 ROOT
