@<TRIPOS>MOLECULE
1YS
   72    74     1     0     0
SMALL
bcc


@<TRIPOS>ATOM
      1 F1         -0.0540    1.9670   -1.7930 f         1 1YS     -0.205467
      2 C2          0.8320    1.4170   -0.9120 c3        1 1YS      0.647400
      3 F3          0.3630    1.7360    0.3370 f         1 1YS     -0.205467
      4 F4          0.7180    0.0640   -1.0220 f         1 1YS     -0.205467
      5 C5          2.3000    1.9570   -1.1140 c3        1 1YS      0.029100
      6 O7          3.1640    1.1110   -0.3580 os        1 1YS     -0.322900
      7 C8          3.9010    1.7220    0.6470 ca        1 1YS      0.162100
      8 C9          5.2830    1.4100    0.6780 ca        1 1YS     -0.121400
      9 C10         6.0620    1.9280    1.7460 ca        1 1YS      0.199900
     10 C11         5.4620    2.7280    2.7350 ca        1 1YS     -0.154000
     11 C13         4.0940    3.0100    2.6880 ca        1 1YS      0.025700
     12 C14         3.3130    2.5050    1.6380 ca        1 1YS     -0.161000
     13 C16         3.4580    3.7890    3.7910 c3        1 1YS     -0.052100
     14 C19         2.6960    5.0110    3.2960 c3        1 1YS     -0.067700
     15 C21         1.8000    5.5990    4.4030 c3        1 1YS      0.126100
     16 C23         0.8760    6.6880    3.7710 c3        1 1YS      0.145500
     17 C25         1.7220    7.8420    3.2700 c3        1 1YS     -0.131100
     18 S28         2.8040    7.3780    1.9420 s4        1 1YS      0.353600
     19 C29         3.6370    6.0840    2.7900 c3        1 1YS     -0.120100
     20 O32         1.9320    6.6720    0.9810 o         1 1YS     -0.490200
     21 N33        -0.1860    7.1270    4.7390 n4        1 1YS     -0.765000
     22 C35        -1.3970    7.7080    4.0570 c3        1 1YS      0.184100
     23 C38        -2.3690    8.2040    5.0690 ca        1 1YS     -0.200300
     24 C39        -3.4190    7.3830    5.4890 ca        1 1YS     -0.098000
     25 C41        -4.3710    7.8500    6.4070 ca        1 1YS     -0.043300
     26 C42        -4.2430    9.1570    6.8960 ca        1 1YS     -0.075000
     27 C44        -3.1930    9.9780    6.4760 ca        1 1YS     -0.115000
     28 C46        -2.2540    9.5100    5.5630 ca        1 1YS     -0.114000
     29 C48        -5.4970    6.9390    6.8250 c3        1 1YS     -0.018700
     30 C49        -6.3130    6.5500    5.5950 c3        1 1YS     -0.090767
     31 C53        -4.9180    5.6820    7.4690 c3        1 1YS     -0.090767
     32 C57        -6.4330    7.6010    7.8300 c3        1 1YS     -0.090767
     33 O61         0.9210    4.6210    4.9360 oh        1 1YS     -0.611800
     34 F63         7.3810    1.6530    1.8040 f         1 1YS     -0.097900
     35 N64         5.8730    0.5580   -0.3440 n4        1 1YS     -0.693000
     36 C67         2.8060    1.8420   -2.6060 c3        1 1YS      0.647400
     37 F68         2.6670    3.0090   -3.2970 f         1 1YS     -0.205467
     38 F69         4.1530    1.5540   -2.6440 f         1 1YS     -0.205467
     39 F70         2.2080    0.8670   -3.3430 f         1 1YS     -0.205467
     40 H1          2.3340    3.0340   -0.7980 h1        1 1YS      0.137700
     41 H2          6.0940    3.1120    3.5550 ha        1 1YS      0.193000
     42 H3          2.2250    2.6930    1.6000 ha        1 1YS      0.189000
     43 H4          4.2360    4.1110    4.5360 hc        1 1YS      0.081700
     44 H5          2.7470    3.0910    4.3190 hc        1 1YS      0.081700
     45 H6          2.0230    4.6890    2.4470 hc        1 1YS      0.093700
     46 H7          2.4330    6.0470    5.2180 h1        1 1YS      0.065700
     47 H8          0.3310    6.2130    2.8930 hx        1 1YS      0.138700
     48 H9          1.0710    8.6680    2.8780 h1        1 1YS      0.112200
     49 H10         2.3440    8.2720    4.0950 h1        1 1YS      0.112200
     50 H11         4.3720    5.6210    2.0820 h1        1 1YS      0.104700
     51 H12         4.2340    6.5110    3.6350 h1        1 1YS      0.104700
     52 H14        -0.4820    6.3090    5.2920 hn        1 1YS      0.456800
     53 H16        -1.0480    8.5460    3.3890 hx        1 1YS      0.105700
     54 H17        -1.8510    6.8960    3.4190 hx        1 1YS      0.105700
     55 H18        -3.5140    6.3630    5.0820 ha        1 1YS      0.140000
     56 H19        -4.9740    9.5620    7.6150 ha        1 1YS      0.168000
     57 H20        -3.1160   11.0070    6.8650 ha        1 1YS      0.161000
     58 H21        -1.4430   10.1690    5.2200 ha        1 1YS      0.132000
     59 H22        -5.6820    6.0040    4.8550 hc        1 1YS      0.045478
     60 H23        -6.7360    7.4600    5.1060 hc        1 1YS      0.045478
     61 H24        -7.1570    5.8850    5.8990 hc        1 1YS      0.045478
     62 H25        -5.7500    5.0050    7.7840 hc        1 1YS      0.045478
     63 H26        -4.3150    5.9470    8.3700 hc        1 1YS      0.045478
     64 H27        -4.2690    5.1290    6.7490 hc        1 1YS      0.045478
     65 H28        -5.8820    7.8860    8.7580 hc        1 1YS      0.045478
     66 H29        -7.2440    6.8860    8.1110 hc        1 1YS      0.045478
     67 H30        -6.9080    8.5100    7.3880 hc        1 1YS      0.045478
     68 H31         1.4180    4.0860    5.5690 ho        1 1YS      0.444000
     69 H32         5.3660    0.6890   -1.2370 hn        1 1YS      0.481467
     70 H33         6.8660    0.7940   -0.4680 hn        1 1YS      0.481467
     71 H332        0.1980    7.8260    5.3830 hn        1 1YS      0.456800
     72 H643        5.7910   -0.4270   -0.0580 hn        1 1YS      0.481467
@<TRIPOS>BOND
     1    1    2 1   
     2    2    3 1   
     3    2    4 1   
     4    2    5 1   
     5    5    6 1   
     6    5   36 1   
     7    5   40 1   
     8    6    7 1   
     9    7    8 ar  
    10    7   12 ar  
    11    8    9 ar  
    12    8   35 1   
    13    9   10 ar  
    14    9   34 1   
    15   10   11 ar  
    16   10   41 1   
    17   11   12 ar  
    18   11   13 1   
    19   12   42 1   
    20   13   14 1   
    21   13   43 1   
    22   13   44 1   
    23   14   15 1   
    24   14   19 1   
    25   14   45 1   
    26   15   16 1   
    27   15   33 1   
    28   15   46 1   
    29   16   17 1   
    30   16   21 1   
    31   16   47 1   
    32   17   18 1   
    33   17   48 1   
    34   17   49 1   
    35   18   19 1   
    36   18   20 2   
    37   19   50 1   
    38   19   51 1   
    39   21   22 1   
    40   21   52 1   
    41   21   71 1   
    42   22   23 1   
    43   22   53 1   
    44   22   54 1   
    45   23   24 ar  
    46   23   28 ar  
    47   24   25 ar  
    48   24   55 1   
    49   25   26 ar  
    50   25   29 1   
    51   26   27 ar  
    52   26   56 1   
    53   27   28 ar  
    54   27   57 1   
    55   28   58 1   
    56   29   30 1   
    57   29   31 1   
    58   29   32 1   
    59   30   59 1   
    60   30   60 1   
    61   30   61 1   
    62   31   62 1   
    63   31   63 1   
    64   31   64 1   
    65   32   65 1   
    66   32   66 1   
    67   32   67 1   
    68   33   68 1   
    69   35   69 1   
    70   35   70 1   
    71   35   72 1   
    72   36   37 1   
    73   36   38 1   
    74   36   39 1   
@<TRIPOS>SUBSTRUCTURE
     1 1YS         1 TEMP              0 ****  ****    0 ROOT
