@<TRIPOS>MOLECULE
1YS
   70    72     1     0     0
SMALL
bcc


@<TRIPOS>ATOM
      1 F1         -3.6760    3.1410   -2.0420 f         1 1YS     -0.220133
      2 C2         -4.0560    2.6420   -0.8240 c3        1 1YS      0.628400
      3 F3         -2.9210    2.6700   -0.0570 f         1 1YS     -0.220133
      4 F4         -4.8870    3.5810   -0.2830 f         1 1YS     -0.220133
      5 C5         -4.6680    1.1960   -0.9220 c3        1 1YS      0.056100
      6 O7         -4.9110    0.7740    0.4100 os        1 1YS     -0.300900
      7 C8         -4.3690   -0.4760    0.7250 ca        1 1YS     -0.000900
      8 C9         -5.2530   -1.5840    0.8090 ca        1 1YS      0.145600
      9 C10        -4.6830   -2.8020    1.2990 ca        1 1YS      0.052900
     10 C11        -3.3240   -2.8870    1.6250 ca        1 1YS     -0.115000
     11 C13        -2.4850   -1.7760    1.4970 ca        1 1YS     -0.095300
     12 C14        -3.0170   -0.5640    1.0560 ca        1 1YS     -0.091000
     13 C16        -1.0400   -1.8750    1.8440 c3        1 1YS     -0.027100
     14 C19        -0.1480   -1.7140    0.6170 c3        1 1YS     -0.040700
     15 C21         1.3190   -1.5280    1.0440 c3        1 1YS      0.153100
     16 C23         2.2130   -1.2070   -0.1910 c3        1 1YS      0.160500
     17 C25         2.1450   -2.3660   -1.1890 c3        1 1YS     -0.125100
     18 S28         0.5540   -2.7110   -1.8360 s4        1 1YS      0.263600
     19 C29        -0.2860   -2.8980   -0.3120 c3        1 1YS     -0.095100
     20 O32         0.0560   -1.4440   -2.4400 o         1 1YS     -0.500200
     21 N33         3.5640   -0.8710    0.2380 n3        1 1YS     -0.828200
     22 C35         4.2880   -0.0260   -0.6950 c3        1 1YS      0.211100
     23 C38         5.7650    0.0040   -0.4310 ca        1 1YS     -0.091300
     24 C39         6.3700    1.1710    0.0370 ca        1 1YS     -0.110000
     25 C41         7.7540    1.2250    0.2610 ca        1 1YS     -0.061300
     26 C42         8.5190    0.0820    0.0120 ca        1 1YS     -0.124000
     27 C44         7.9160   -1.0890   -0.4520 ca        1 1YS     -0.128000
     28 C46         6.5430   -1.1330   -0.6740 ca        1 1YS     -0.134000
     29 C48         8.3630    2.5090    0.7630 c3        1 1YS     -0.010700
     30 C49         8.0850    3.6270   -0.2390 c3        1 1YS     -0.086433
     31 C53         7.7400    2.8720    2.1090 c3        1 1YS     -0.086433
     32 C57         9.8710    2.4020    0.9500 c3        1 1YS     -0.086433
     33 O61         1.3170   -0.4540    1.9700 oh        1 1YS     -0.601800
     34 F63        -5.4730   -3.8970    1.4480 f         1 1YS     -0.141900
     35 N64        -6.5620   -1.5140    0.3660 nh        1 1YS     -0.820200
     36 C67        -6.0460    1.1890   -1.6820 c3        1 1YS      0.628400
     37 F68        -6.1760    2.1780   -2.6180 f         1 1YS     -0.220133
     38 F69        -6.2580    0.0210   -2.3660 f         1 1YS     -0.220133
     39 F70        -7.1330    1.3180   -0.8600 f         1 1YS     -0.220133
     40 H1         -3.9430    0.5410   -1.4760 h1        1 1YS      0.132700
     41 H2         -2.9260   -3.8460    1.9900 ha        1 1YS      0.150000
     42 H3         -2.3820    0.3350    0.9710 ha        1 1YS      0.164000
     43 H4         -0.7850   -1.0680    2.5850 hc        1 1YS      0.066200
     44 H5         -0.8220   -2.8620    2.3320 hc        1 1YS      0.066200
     45 H6         -0.4670   -0.7810    0.0660 hc        1 1YS      0.084700
     46 H7          1.6940   -2.4580    1.5550 h1        1 1YS      0.031700
     47 H8          1.7680   -0.2910   -0.6890 h1        1 1YS      0.093700
     48 H9          2.8170   -2.1370   -2.0570 h1        1 1YS      0.084200
     49 H10         2.5300   -3.2990   -0.7060 h1        1 1YS      0.084200
     50 H11         0.0890   -3.8230    0.1930 h1        1 1YS      0.090200
     51 H12        -1.3760   -3.0580   -0.5220 h1        1 1YS      0.090200
     52 H14         4.0840   -1.7010    0.4530 hn        1 1YS      0.363800
     53 H16         4.1350   -0.3500   -1.7690 h1        1 1YS      0.044200
     54 H17         3.8580    1.0130   -0.5980 h1        1 1YS      0.044200
     55 H18         5.7490    2.0590    0.2340 ha        1 1YS      0.138000
     56 H19         9.6070    0.0840    0.1760 ha        1 1YS      0.136000
     57 H20         8.5320   -1.9800   -0.6420 ha        1 1YS      0.131000
     58 H21         6.0720   -2.0540   -1.0450 ha        1 1YS      0.125000
     59 H22         6.9870    3.7810   -0.3640 hc        1 1YS      0.037811
     60 H23         8.5380    4.5810    0.1230 hc        1 1YS      0.037811
     61 H24         8.5270    3.3740   -1.2320 hc        1 1YS      0.037811
     62 H25         7.9280    2.0620    2.8530 hc        1 1YS      0.037811
     63 H26         8.1890    3.8210    2.4910 hc        1 1YS      0.037811
     64 H27         6.6380    3.0160    2.0080 hc        1 1YS      0.037811
     65 H28        10.3720    2.1610   -0.0180 hc        1 1YS      0.037811
     66 H29        10.2730    3.3770    1.3200 hc        1 1YS      0.037811
     67 H30        10.1210    1.6130    1.6990 hc        1 1YS      0.037811
     68 H31         2.2360   -0.2190    2.1520 ho        1 1YS      0.426000
     69 H32        -6.9570   -0.6000    0.3230 hn        1 1YS      0.419800
     70 H33        -7.1700   -2.2250    0.7060 hn        1 1YS      0.419800
@<TRIPOS>BOND
     1    1    2 1   
     2    2    3 1   
     3    2    4 1   
     4    2    5 1   
     5    5    6 1   
     6    5   36 1   
     7    5   40 1   
     8    6    7 1   
     9    7    8 ar  
    10    7   12 ar  
    11    8    9 ar  
    12    8   35 1   
    13    9   10 ar  
    14    9   34 1   
    15   10   11 ar  
    16   10   41 1   
    17   11   12 ar  
    18   11   13 1   
    19   12   42 1   
    20   13   14 1   
    21   13   43 1   
    22   13   44 1   
    23   14   15 1   
    24   14   19 1   
    25   14   45 1   
    26   15   16 1   
    27   15   33 1   
    28   15   46 1   
    29   16   17 1   
    30   16   21 1   
    31   16   47 1   
    32   17   18 1   
    33   17   48 1   
    34   17   49 1   
    35   18   19 1   
    36   18   20 2   
    37   19   50 1   
    38   19   51 1   
    39   21   22 1   
    40   21   52 1   
    41   22   23 1   
    42   22   53 1   
    43   22   54 1   
    44   23   24 ar  
    45   23   28 ar  
    46   24   25 ar  
    47   24   55 1   
    48   25   26 ar  
    49   25   29 1   
    50   26   27 ar  
    51   26   56 1   
    52   27   28 ar  
    53   27   57 1   
    54   28   58 1   
    55   29   30 1   
    56   29   31 1   
    57   29   32 1   
    58   30   59 1   
    59   30   60 1   
    60   30   61 1   
    61   31   62 1   
    62   31   63 1   
    63   31   64 1   
    64   32   65 1   
    65   32   66 1   
    66   32   67 1   
    67   33   68 1   
    68   35   69 1   
    69   35   70 1   
    70   36   37 1   
    71   36   38 1   
    72   36   39 1   
@<TRIPOS>SUBSTRUCTURE
     1 1YS         1 TEMP              0 ****  ****    0 ROOT
