@<TRIPOS>MOLECULE
1YT
   76    78     1     0     0
SMALL
bcc


@<TRIPOS>ATOM
      1 F1          0.5940    1.3280    0.0220 f         1 1YT     -0.216633
      2 C2          1.8330    1.2340    0.5880 c3        1 1YT      0.625900
      3 F3          2.6650    0.7840   -0.4050 f         1 1YT     -0.216633
      4 F4          2.2320    2.5170    0.8450 f         1 1YT     -0.216633
      5 C5          1.8940    0.3170    1.8690 c3        1 1YT      0.062100
      6 O7          1.3190   -0.9360    1.4690 os        1 1YT     -0.325900
      7 C8          2.1150   -2.0500    1.6670 ca        1 1YT      0.170100
      8 C9          1.5810   -3.0700    2.4910 ca        1 1YT     -0.122400
      9 C10         2.3090   -4.2820    2.6230 ca        1 1YT      0.189900
     10 C11         3.5330   -4.4420    1.9530 ca        1 1YT     -0.157000
     11 C13         4.0440   -3.4190    1.1490 ca        1 1YT      0.016700
     12 C14         3.3330   -2.2200    1.0080 ca        1 1YT     -0.157000
     13 C16         5.3600   -3.5870    0.4650 c3        1 1YT     -0.050100
     14 C19         5.2160   -3.6940   -1.0500 c3        1 1YT     -0.064700
     15 C21         6.5810   -3.5280   -1.7450 c3        1 1YT      0.125100
     16 C23         6.3570   -3.4620   -3.2880 c3        1 1YT      0.143500
     17 C25         5.8320   -4.7960   -3.7760 c3        1 1YT     -0.132100
     18 S28         4.2040   -5.1410   -3.1530 s4        1 1YT      0.351600
     19 C29         4.6020   -5.0190   -1.4470 c3        1 1YT     -0.121100
     20 O32         3.4390   -3.9160   -3.4510 o         1 1YT     -0.478200
     21 N33         7.6070   -3.0350   -4.0050 n4        1 1YT     -0.764000
     22 C35         7.3280   -2.4170   -5.3490 c3        1 1YT      0.182100
     23 C38         8.6030   -2.1110   -6.0520 ca        1 1YT     -0.198300
     24 C39         9.1480   -0.8260   -5.9820 ca        1 1YT     -0.097000
     25 C41        10.3250   -0.5080   -6.6760 ca        1 1YT     -0.044300
     26 C42        10.9440   -1.5090   -7.4360 ca        1 1YT     -0.076000
     27 C44        10.4000   -2.7940   -7.5050 ca        1 1YT     -0.115000
     28 C46         9.2310   -3.1020   -6.8170 ca        1 1YT     -0.115000
     29 C48        10.8720    0.8940   -6.5880 c3        1 1YT     -0.017700
     30 C49         9.8350    1.8750   -7.1290 c3        1 1YT     -0.090767
     31 C53        11.1760    1.2290   -5.1300 c3        1 1YT     -0.090767
     32 C57        12.1550    1.0640   -7.3930 c3        1 1YT     -0.090767
     33 O61         7.1950   -2.2970   -1.3960 oh        1 1YT     -0.613800
     34 F63         1.8190   -5.2740    3.3950 f         1 1YT     -0.102900
     35 N64         0.3100   -2.8740    3.1730 n4        1 1YT     -0.698000
     36 C67         1.0760    0.8730    3.0430 c3        1 1YT      0.117400
     37 O70        -0.0810    0.0880    3.2750 os        1 1YT     -0.469600
     38 C71        -1.2720    0.6130    2.6840 c3        1 1YT      0.100700
     39 H1          2.9760    0.2170    2.1500 h1        1 1YT      0.102700
     40 H2          4.0840   -5.3910    2.0810 ha        1 1YT      0.188000
     41 H3          3.7140   -1.4050    0.3660 ha        1 1YT      0.187000
     42 H4          5.9920   -2.6920    0.7200 hc        1 1YT      0.075700
     43 H5          5.8850   -4.5000    0.8570 hc        1 1YT      0.075700
     44 H6          4.5420   -2.8570   -1.4010 hc        1 1YT      0.101700
     45 H7          7.2550   -4.3910   -1.4860 h1        1 1YT      0.063700
     46 H8          5.5800   -2.6550   -3.4920 hx        1 1YT      0.142700
     47 H9          6.5120   -5.6330   -3.4780 h1        1 1YT      0.110200
     48 H10         5.7550   -4.8110   -4.8950 h1        1 1YT      0.110200
     49 H11         3.6570   -5.1670   -0.8600 h1        1 1YT      0.103200
     50 H12         5.2860   -5.8610   -1.1700 h1        1 1YT      0.103200
     51 H14         8.2260   -3.8420   -4.1330 hn        1 1YT      0.456300
     52 H16         6.7220   -1.4810   -5.1750 hx        1 1YT      0.106200
     53 H17         6.7070   -3.1480   -5.9420 hx        1 1YT      0.106200
     54 H18         8.6390   -0.0460   -5.3930 ha        1 1YT      0.140000
     55 H19        11.8690   -1.2960   -7.9980 ha        1 1YT      0.167000
     56 H20        10.8980   -3.5640   -8.1160 ha        1 1YT      0.161000
     57 H21         8.7960   -4.1090   -6.8940 ha        1 1YT      0.132000
     58 H22         8.8960    1.8320   -6.5280 hc        1 1YT      0.045033
     59 H23         9.5930    1.6380   -8.1920 hc        1 1YT      0.045033
     60 H24        10.2390    2.9150   -7.0790 hc        1 1YT      0.045033
     61 H25        10.2510    1.1740   -4.5090 hc        1 1YT      0.045033
     62 H26        11.9310    0.5190   -4.7170 hc        1 1YT      0.045033
     63 H27        11.5860    2.2650   -5.0610 hc        1 1YT      0.045033
     64 H28        11.9720    0.8630   -8.4760 hc        1 1YT      0.045033
     65 H29        12.5220    2.1150   -7.2920 hc        1 1YT      0.045033
     66 H30        12.9530    0.3790   -7.0190 hc        1 1YT      0.045033
     67 H31         7.6090   -2.4060   -0.5290 ho        1 1YT      0.442000
     68 H32        -0.3880   -3.5260    2.7970 hn        1 1YT      0.481467
     69 H33        -0.0130   -1.8950    3.0230 hn        1 1YT      0.481467
     70 H34         1.6780    0.7860    3.9900 h1        1 1YT      0.093700
     71 H35         0.8210    1.9500    2.8560 h1        1 1YT      0.093700
     72 H36        -1.1650    0.6430    1.5710 h1        1 1YT      0.062033
     73 H37        -1.4850    1.6330    3.0880 h1        1 1YT      0.062033
     74 H38        -2.0710   -0.1040    2.9960 h1        1 1YT      0.062033
     75 H332        8.0990   -2.3430   -3.4200 hn        1 1YT      0.456300
     76 H643        0.4260   -3.0480    4.1780 hn        1 1YT      0.481467
@<TRIPOS>BOND
     1    1    2 1   
     2    2    3 1   
     3    2    4 1   
     4    2    5 1   
     5    5    6 1   
     6    5   36 1   
     7    5   39 1   
     8    6    7 1   
     9    7    8 ar  
    10    7   12 ar  
    11    8    9 ar  
    12    8   35 1   
    13    9   10 ar  
    14    9   34 1   
    15   10   11 ar  
    16   10   40 1   
    17   11   12 ar  
    18   11   13 1   
    19   12   41 1   
    20   13   14 1   
    21   13   42 1   
    22   13   43 1   
    23   14   15 1   
    24   14   19 1   
    25   14   44 1   
    26   15   16 1   
    27   15   33 1   
    28   15   45 1   
    29   16   17 1   
    30   16   21 1   
    31   16   46 1   
    32   17   18 1   
    33   17   47 1   
    34   17   48 1   
    35   18   19 1   
    36   18   20 2   
    37   19   49 1   
    38   19   50 1   
    39   21   22 1   
    40   21   51 1   
    41   21   75 1   
    42   22   23 1   
    43   22   52 1   
    44   22   53 1   
    45   23   24 ar  
    46   23   28 ar  
    47   24   25 ar  
    48   24   54 1   
    49   25   26 ar  
    50   25   29 1   
    51   26   27 ar  
    52   26   55 1   
    53   27   28 ar  
    54   27   56 1   
    55   28   57 1   
    56   29   30 1   
    57   29   31 1   
    58   29   32 1   
    59   30   58 1   
    60   30   59 1   
    61   30   60 1   
    62   31   61 1   
    63   31   62 1   
    64   31   63 1   
    65   32   64 1   
    66   32   65 1   
    67   32   66 1   
    68   33   67 1   
    69   35   68 1   
    70   35   69 1   
    71   35   76 1   
    72   36   37 1   
    73   36   70 1   
    74   36   71 1   
    75   37   38 1   
    76   38   72 1   
    77   38   73 1   
    78   38   74 1   
@<TRIPOS>SUBSTRUCTURE
     1 1YT         1 TEMP              0 ****  ****    0 ROOT
