@<TRIPOS>MOLECULE
1YT
   74    76     1     0     0
SMALL
bcc


@<TRIPOS>ATOM
      1 F1         -5.6440    3.1580   -2.6560 f         1 1YT     -0.229967
      2 C2         -4.8700    3.5460   -1.6010 c3        1 1YT      0.638900
      3 F3         -3.5940    3.6200   -2.0990 f         1 1YT     -0.229967
      4 F4         -5.2170    4.8520   -1.3570 f         1 1YT     -0.229967
      5 C5         -4.9700    2.6430   -0.3190 c3        1 1YT      0.108100
      6 O7         -4.8010    1.3110   -0.8050 os        1 1YT     -0.310900
      7 C8         -4.3380    0.4140    0.1560 ca        1 1YT      0.024100
      8 C9         -5.2580   -0.5370    0.6750 ca        1 1YT      0.125600
      9 C10        -4.7070   -1.5580    1.5080 ca        1 1YT      0.057900
     10 C11        -3.3430   -1.5740    1.8290 ca        1 1YT     -0.127000
     11 C13        -2.4790   -0.5970    1.3280 ca        1 1YT     -0.092300
     12 C14        -2.9820    0.3940    0.4810 ca        1 1YT     -0.105000
     13 C16        -1.0380   -0.6000    1.7000 c3        1 1YT     -0.027100
     14 C19        -0.1450   -1.0910    0.5630 c3        1 1YT     -0.037700
     15 C21         1.3280   -0.7850    0.8910 c3        1 1YT      0.152100
     16 C23         2.2570   -1.1830   -0.2940 c3        1 1YT      0.159500
     17 C25         2.1390   -2.6870   -0.5480 c3        1 1YT     -0.126100
     18 S28         0.5450   -3.2340   -1.0240 s4        1 1YT      0.263600
     19 C29        -0.3490   -2.5700    0.3250 c3        1 1YT     -0.095100
     20 O32         0.1740   -2.4430   -2.2280 o         1 1YT     -0.495200
     21 N33         3.6190   -0.7290   -0.0440 n3        1 1YT     -0.831200
     22 C35         4.3990   -0.5150   -1.2520 c3        1 1YT      0.210100
     23 C38         5.8760   -0.4410   -1.0000 ca        1 1YT     -0.100300
     24 C39         6.3890    0.4630   -0.0680 ca        1 1YT     -0.111000
     25 C41         7.7710    0.5640    0.1550 ca        1 1YT     -0.066300
     26 C42         8.6300   -0.2590   -0.5800 ca        1 1YT     -0.124000
     27 C44         8.1210   -1.1600   -1.5150 ca        1 1YT     -0.132000
     28 C46         6.7480   -1.2580   -1.7270 ca        1 1YT     -0.127000
     29 C48         8.2760    1.5540    1.1720 c3        1 1YT     -0.009700
     30 C49         7.8460    2.9620    0.7650 c3        1 1YT     -0.086100
     31 C53         7.6850    1.2230    2.5400 c3        1 1YT     -0.086100
     32 C57         9.7950    1.5380    1.2940 c3        1 1YT     -0.086100
     33 O61         1.3810    0.6110    1.1410 oh        1 1YT     -0.602800
     34 F63        -5.5150   -2.5330    2.0000 f         1 1YT     -0.144900
     35 N64        -6.6260   -0.4330    0.4560 nh        1 1YT     -0.820200
     36 C67        -6.2960    2.8270    0.4110 c3        1 1YT      0.096400
     37 O70        -7.3400    2.3760   -0.4470 os        1 1YT     -0.412600
     38 C71        -8.6170    2.4580    0.1670 c3        1 1YT      0.111700
     39 H1         -4.1250    2.9320    0.3660 h1        1 1YT      0.086700
     40 H2         -2.9610   -2.3700    2.4860 ha        1 1YT      0.147000
     41 H3         -2.3100    1.1540    0.0520 ha        1 1YT      0.157000
     42 H4         -0.7290    0.4470    1.9720 hc        1 1YT      0.062200
     43 H5         -0.8730   -1.2450    2.6030 hc        1 1YT      0.062200
     44 H6         -0.4180   -0.5280   -0.3760 hc        1 1YT      0.089700
     45 H7          1.6390   -1.3390    1.8210 h1        1 1YT      0.030700
     46 H8          1.8710   -0.6410   -1.2120 h1        1 1YT      0.095700
     47 H9          2.8510   -2.9760   -1.3640 h1        1 1YT      0.084700
     48 H10         2.4410   -3.2480    0.3720 h1        1 1YT      0.084700
     49 H11        -0.0690   -3.1420    1.2450 h1        1 1YT      0.089700
     50 H12        -1.4430   -2.7460    0.1490 h1        1 1YT      0.089700
     51 H14         4.0900   -1.3540    0.5820 hn        1 1YT      0.363800
     52 H16         4.1990   -1.3120   -2.0290 h1        1 1YT      0.045700
     53 H17         4.0580    0.4680   -1.6920 h1        1 1YT      0.045700
     54 H18         5.6940    1.1050    0.4960 ha        1 1YT      0.142000
     55 H19         9.7200   -0.2070   -0.4360 ha        1 1YT      0.135000
     56 H20         8.8100   -1.7980   -2.0870 ha        1 1YT      0.131000
     57 H21         6.3540   -1.9700   -2.4670 ha        1 1YT      0.131000
     58 H22         6.7340    3.0360    0.7180 hc        1 1YT      0.037367
     59 H23         8.2200    3.7040    1.5100 hc        1 1YT      0.037367
     60 H24         8.2640    3.2190   -0.2370 hc        1 1YT      0.037367
     61 H25         7.9850    0.1950    2.8520 hc        1 1YT      0.037367
     62 H26         8.0560    1.9510    3.3000 hc        1 1YT      0.037367
     63 H27         6.5710    1.2770    2.5110 hc        1 1YT      0.037367
     64 H28        10.2710    1.8040    0.3200 hc        1 1YT      0.037367
     65 H29        10.1180    2.2860    2.0580 hc        1 1YT      0.037367
     66 H30        10.1540    0.5310    1.6140 hc        1 1YT      0.037367
     67 H31         2.3100    0.8670    1.1970 ho        1 1YT      0.424000
     68 H32        -6.8830    0.1810   -0.2920 hn        1 1YT      0.416800
     69 H33        -7.1160   -1.3000    0.4720 hn        1 1YT      0.416800
     70 H34        -6.2900    2.2210    1.3570 h1        1 1YT      0.056200
     71 H35        -6.4460    3.9140    0.6530 h1        1 1YT      0.056200
     72 H36        -8.6650    1.7860    1.0600 h1        1 1YT      0.040033
     73 H37        -8.8450    3.5110    0.4650 h1        1 1YT      0.040033
     74 H38        -9.3250    2.1130   -0.6270 h1        1 1YT      0.040033
@<TRIPOS>BOND
     1    1    2 1   
     2    2    3 1   
     3    2    4 1   
     4    2    5 1   
     5    5    6 1   
     6    5   36 1   
     7    5   39 1   
     8    6    7 1   
     9    7    8 ar  
    10    7   12 ar  
    11    8    9 ar  
    12    8   35 1   
    13    9   10 ar  
    14    9   34 1   
    15   10   11 ar  
    16   10   40 1   
    17   11   12 ar  
    18   11   13 1   
    19   12   41 1   
    20   13   14 1   
    21   13   42 1   
    22   13   43 1   
    23   14   15 1   
    24   14   19 1   
    25   14   44 1   
    26   15   16 1   
    27   15   33 1   
    28   15   45 1   
    29   16   17 1   
    30   16   21 1   
    31   16   46 1   
    32   17   18 1   
    33   17   47 1   
    34   17   48 1   
    35   18   19 1   
    36   18   20 2   
    37   19   49 1   
    38   19   50 1   
    39   21   22 1   
    40   21   51 1   
    41   22   23 1   
    42   22   52 1   
    43   22   53 1   
    44   23   24 ar  
    45   23   28 ar  
    46   24   25 ar  
    47   24   54 1   
    48   25   26 ar  
    49   25   29 1   
    50   26   27 ar  
    51   26   55 1   
    52   27   28 ar  
    53   27   56 1   
    54   28   57 1   
    55   29   30 1   
    56   29   31 1   
    57   29   32 1   
    58   30   58 1   
    59   30   59 1   
    60   30   60 1   
    61   31   61 1   
    62   31   62 1   
    63   31   63 1   
    64   32   64 1   
    65   32   65 1   
    66   32   66 1   
    67   33   67 1   
    68   35   68 1   
    69   35   69 1   
    70   36   37 1   
    71   36   70 1   
    72   36   71 1   
    73   37   38 1   
    74   38   72 1   
    75   38   73 1   
    76   38   74 1   
@<TRIPOS>SUBSTRUCTURE
     1 1YT         1 TEMP              0 ****  ****    0 ROOT
