@<TRIPOS>MOLECULE
1YT
   74    70     1     0     0
SMALL
bcc


@<TRIPOS>ATOM
      1 F1         -2.6290   -3.8250    6.3310 f         1 1YT     -0.158667
      2 C2         -2.8180   -2.4850    6.4440 c3        1 1YT      0.423000
      3 F3         -2.8820   -2.1540    7.7240 f         1 1YT     -0.158667
      4 F4         -1.8000   -1.8420    5.8700 f         1 1YT     -0.158667
      5 C5         -4.0910   -2.1030    5.7720 c3        1 1YT     -0.003000
      6 O7         -4.1560   -0.7090    5.6580 os        1 1YT     -0.194000
      7 C8         -4.0780   -0.2300    4.3210 c1        1 1YT     -0.026000
      8 C9         -5.2480   -0.0160    3.5890 c1        1 1YT      0.053000
      9 C10        -5.1840    0.5900    2.3380 c1        1 1YT      0.024000
     10 C11        -3.9400    0.9870    1.8120 c1        1 1YT     -0.121000
     11 C13        -2.7730    0.7740    2.5420 c1        1 1YT     -0.092000
     12 C14        -2.8370    0.1680    3.7930 c1        1 1YT     -0.107000
     13 C16        -1.3840    1.2930    1.9820 c2        1 1YT     -0.114000
     14 C19        -1.2960    0.9970    0.5050 c3        1 1YT     -0.101000
     15 C21         0.1960    1.2870    0.0140 c3        1 1YT      0.017000
     16 C23         0.4640    0.8860   -1.5030 c3        1 1YT      0.018000
     17 C25         0.0870   -0.5300   -1.8440 c3        1 1YT     -0.603000
     18 S28        -1.4880   -0.7980   -1.3320 s4        1 1YT      1.383000
     19 C29        -1.7540   -0.4000    0.2710 c3        1 1YT     -0.599000
     20 O32        -2.2890   -1.7960   -1.9650 o         1 1YT     -0.774000
     21 N33         1.8500    1.0580   -1.7730 n3        1 1YT     -0.296000
     22 C35         2.0500    1.1710   -3.1780 c3        1 1YT     -0.034000
     23 C38         3.5340    0.8410   -3.5180 c2        1 1YT     -0.090000
     24 C39         4.0190    1.0480   -4.8060 c2        1 1YT     -0.122000
     25 C41         5.3400    0.7120   -5.1160 c1        1 1YT     -0.060000
     26 C42         6.1620    0.1740   -4.1420 c2        1 1YT     -0.124000
     27 C44         5.6750   -0.0310   -2.8550 c1        1 1YT     -0.134000
     28 C46         4.3610    0.3030   -2.5460 c1        1 1YT     -0.112000
     29 C48         5.8880    0.9460   -6.5500 c2        1 1YT     -0.017000
     30 C49         4.9840    0.1700   -7.6060 c3        1 1YT     -0.203667
     31 C53         5.8640    2.4070   -6.8580 c3        1 1YT     -0.203667
     32 C57         7.3280    0.4270   -6.6330 c3        1 1YT     -0.203667
     33 O61         0.4440    2.5990    0.1590 oh        1 1YT     -0.329000
     34 F63        -6.2930    0.8260    1.6620 f         1 1YT     -0.107000
     35 N64        -6.5220   -0.3040    4.1760 n3        1 1YT     -0.331000
     36 C67        -5.2920   -2.6070    6.6200 c3        1 1YT     -0.053000
     37 O70        -5.2310   -2.0370    7.8900 os        1 1YT     -0.270000
     38 C71        -6.1200   -2.6450    8.8530 c3        1 1YT     -0.079000
     39 H1         -4.1240   -2.5000    4.8970 h1        1 1YT      0.126000
     40 H2         -3.8950    1.4010    0.9580 ha        1 1YT      0.153000
     41 H3         -2.0160    0.0180    4.3070 ha        1 1YT      0.151000
     42 H4         -0.6510    0.8400    2.4510 ha        1 1YT      0.093500
     43 H5         -1.3140    2.2780    2.1270 ha        1 1YT      0.093500
     44 H6         -1.9260    1.6270    0.0130 hc        1 1YT      0.105000
     45 H7          0.8210    0.7830    0.5890 h1        1 1YT      0.095000
     46 H8         -0.0460    1.4930   -2.0800 h1        1 1YT      0.069000
     47 H9          0.3280   -0.8410   -2.7700 h1        1 1YT      0.139500
     48 H10         0.6560   -1.1150   -1.3170 h1        1 1YT      0.139500
     49 H11        -2.6420   -0.5920    0.5650 h1        1 1YT      0.133500
     50 H12        -1.2360   -1.0000    0.8550 h1        1 1YT      0.133500
     51 H14         2.1440    1.7970   -1.3690 hn        1 1YT      0.177000
     52 H16         1.4720    0.5520   -3.6330 h1        1 1YT      0.075500
     53 H17         1.8440    2.0780   -3.4630 h1        1 1YT      0.075500
     54 H18         3.4480    1.4210   -5.4790 ha        1 1YT      0.131000
     55 H19         7.1150   -0.0700   -4.3650 ha        1 1YT      0.134000
     56 H20         6.2440   -0.4020   -2.1810 ha        1 1YT      0.131000
     57 H21         4.0210    0.1590   -1.6420 ha        1 1YT      0.145000
     58 H22         5.4310    0.1790   -8.4940 hc        1 1YT      0.076222
     59 H23         4.1020    0.6140   -7.6750 hc        1 1YT      0.076222
     60 H24         4.8620   -0.7480   -7.3150 hc        1 1YT      0.076222
     61 H25         4.9230    2.7010   -6.9950 hc        1 1YT      0.076222
     62 H26         6.3970    2.5820   -7.6950 hc        1 1YT      0.076222
     63 H27         6.2690    2.9220   -6.0860 hc        1 1YT      0.076222
     64 H28         7.9110    0.9980   -6.0960 hc        1 1YT      0.076222
     65 H29         7.6270    0.4390   -7.5600 hc        1 1YT      0.076222
     66 H30         7.3640   -0.4830   -6.2940 hc        1 1YT      0.076222
     67 H31         0.9650    2.7270    0.8640 ho        1 1YT      0.208000
     68 H32        -6.7020   -0.0350    5.0270 hn        1 1YT      0.216500
     69 H33        -7.1750   -0.7120    3.6780 hn        1 1YT      0.216500
     70 H34        -6.1340   -2.3470    6.1830 h1        1 1YT      0.096500
     71 H35        -5.2520   -3.5680    6.6960 h1        1 1YT      0.096500
     72 H36        -7.0440   -2.3590    8.6710 h1        1 1YT      0.080000
     73 H37        -6.0610   -3.6180    8.7840 h1        1 1YT      0.080000
     74 H38        -5.8660   -2.3710    9.7430 h1        1 1YT      0.080000
@<TRIPOS>BOND
     1    1    2 1   
     2    2    3 1   
     3    2    4 1   
     4    2    5 1   
     5    5    6 1   
     6    5   36 1   
     7    5   39 1   
     8    6    7 1   
     9    7    8 1   
    10    8   35 1   
    11    9   10 1   
    12    9   34 1   
    13   10   40 1   
    14   11   12 1   
    15   12   41 1   
    16   13   14 1   
    17   13   42 1   
    18   13   43 1   
    19   14   15 1   
    20   14   19 1   
    21   14   44 1   
    22   15   16 1   
    23   15   33 1   
    24   15   45 1   
    25   16   17 1   
    26   16   21 1   
    27   16   46 1   
    28   17   18 1   
    29   17   47 1   
    30   17   48 1   
    31   18   19 1   
    32   18   20 1   
    33   19   49 1   
    34   19   50 1   
    35   21   22 1   
    36   21   51 1   
    37   22   23 1   
    38   22   52 1   
    39   22   53 1   
    40   23   24 1   
    41   23   28 1   
    42   24   25 1   
    43   24   54 1   
    44   25   26 1   
    45   26   27 1   
    46   26   55 1   
    47   27   56 1   
    48   28   57 1   
    49   29   30 1   
    50   29   31 1   
    51   29   32 1   
    52   30   58 1   
    53   30   59 1   
    54   30   60 1   
    55   31   61 1   
    56   31   62 1   
    57   31   63 1   
    58   32   64 1   
    59   32   65 1   
    60   32   66 1   
    61   33   67 1   
    62   35   68 1   
    63   35   69 1   
    64   36   37 1   
    65   36   70 1   
    66   36   71 1   
    67   37   38 1   
    68   38   72 1   
    69   38   73 1   
    70   38   74 1   
@<TRIPOS>SUBSTRUCTURE
     1 1YT         1 TEMP              0 ****  ****    0 ROOT
