@<TRIPOS>MOLECULE
1YT
   75    77     1     0     0
SMALL
bcc


@<TRIPOS>ATOM
      1 F1          1.6450    2.0520    0.2900 f         1 1YT     -0.234633
      2 C2          2.5750    1.5510    1.1540 c3        1 1YT      0.614900
      3 F3          3.6250    1.1570    0.3600 f         1 1YT     -0.234633
      4 F4          3.0530    2.6380    1.8410 f         1 1YT     -0.234633
      5 C5          2.0680    0.4030    2.1070 c3        1 1YT      0.107100
      6 O7          1.6470   -0.6530    1.2450 os        1 1YT     -0.295900
      7 C8          2.2630   -1.8760    1.5010 ca        1 1YT      0.009100
      8 C9          1.5440   -2.8490    2.2520 ca        1 1YT      0.172600
      9 C10         2.1470   -4.1470    2.3360 ca        1 1YT      0.048900
     10 C11         3.3820   -4.4140    1.7350 ca        1 1YT     -0.110000
     11 C13         4.0600   -3.4210    1.0240 ca        1 1YT     -0.138300
     12 C14         3.4950   -2.1500    0.9120 ca        1 1YT     -0.097000
     13 C16         5.3770   -3.7040    0.3930 c3        1 1YT     -0.022100
     14 C19         5.2410   -3.8800   -1.1210 c3        1 1YT     -0.067700
     15 C21         6.5820   -3.5820   -1.8040 c3        1 1YT      0.123100
     16 C23         6.4300   -3.7200   -3.3530 c3        1 1YT      0.104500
     17 C25         6.1090   -5.1540   -3.7130 c3        1 1YT     -0.122100
     18 S28         4.4780   -5.5960   -3.1460 s4        1 1YT      0.329600
     19 C29         4.7590   -5.2750   -1.4520 c3        1 1YT     -0.114100
     20 O32         3.6350   -4.4920   -3.6480 o         1 1YT     -0.480200
     21 N33         7.6630   -3.2100   -4.0460 ny        1 1YT     -0.761000
     22 C35         7.3970   -2.7520   -5.4500 c3        1 1YT      0.176100
     23 C38         8.6580   -2.3060   -6.1050 ca        1 1YT     -0.187300
     24 C39         9.0530   -0.9680   -6.0160 ca        1 1YT     -0.101000
     25 C41        10.2180   -0.5200   -6.6550 ca        1 1YT     -0.046300
     26 C42        10.9780   -1.4450   -7.3830 ca        1 1YT     -0.083000
     27 C44        10.5830   -2.7810   -7.4740 ca        1 1YT     -0.118000
     28 C46         9.4250   -3.2190   -6.8380 ca        1 1YT     -0.111000
     29 C48        10.6050    0.9320   -6.5420 c3        1 1YT     -0.017700
     30 C49         9.4920    1.7970   -7.1300 c3        1 1YT     -0.090100
     31 C53        10.8020    1.2910   -5.0720 c3        1 1YT     -0.090100
     32 C57        11.8970    1.2450   -7.2860 c3        1 1YT     -0.090100
     33 O61         7.0670   -2.2830   -1.5240 oh        1 1YT     -0.610800
     34 F63         1.5070   -5.1380    3.0090 f         1 1YT     -0.134900
     35 N64         0.3820   -2.5340    2.9170 nv        1 1YT     -0.828200
     36 C67         0.9050    0.8720    2.9820 c3        1 1YT      0.110400
     37 O70        -0.3100    0.4590    2.3690 os        1 1YT     -0.415600
     38 C71        -1.4380    1.1790    2.8490 c3        1 1YT      0.110700
     39 H1          2.9390    0.1090    2.7520 h1        1 1YT      0.092700
     40 H2          3.8140   -5.4220    1.8390 ha        1 1YT      0.148000
     41 H3          4.0050   -1.3470    0.3550 ha        1 1YT      0.144000
     42 H4          6.0810   -2.8540    0.6090 hc        1 1YT      0.062700
     43 H5          5.8320   -4.6290    0.8360 hc        1 1YT      0.062700
     44 H6          4.4780   -3.1380   -1.5020 hc        1 1YT      0.093700
     45 H7          7.3820   -4.2830   -1.4320 h1        1 1YT      0.091700
     46 H8          5.5720   -3.0530   -3.6870 hx        1 1YT      0.134700
     47 H9          6.8500   -5.8610   -3.2650 h1        1 1YT      0.100700
     48 H10         6.1200   -5.3070   -4.8220 h1        1 1YT      0.100700
     49 H11         3.7960   -5.4390   -0.8920 h1        1 1YT      0.112700
     50 H12         5.4860   -6.0320   -1.0590 h1        1 1YT      0.112700
     51 H14         8.3760   -3.9460   -4.0620 hn        1 1YT      0.454800
     52 H16         6.9320   -3.6120   -6.0110 hx        1 1YT      0.105200
     53 H17         6.6480   -1.9090   -5.3990 hx        1 1YT      0.105200
     54 H18         8.4340   -0.2520   -5.4520 ha        1 1YT      0.140000
     55 H19        11.8990   -1.1310   -7.9020 ha        1 1YT      0.161000
     56 H20        11.1900   -3.4910   -8.0580 ha        1 1YT      0.155000
     57 H21         9.1100   -4.2690   -6.9270 ha        1 1YT      0.134000
     58 H22         9.3280    1.5410   -8.2040 hc        1 1YT      0.043922
     59 H23         9.7770    2.8750   -7.0600 hc        1 1YT      0.043922
     60 H24         8.5370    1.6470   -6.5740 hc        1 1YT      0.043922
     61 H25        11.0960    2.3650   -4.9830 hc        1 1YT      0.043922
     62 H26         9.8590    1.1360   -4.4950 hc        1 1YT      0.043922
     63 H27        11.6070    0.6630   -4.6220 hc        1 1YT      0.043922
     64 H28        12.1420    2.3290   -7.1680 hc        1 1YT      0.043922
     65 H29        11.7890    1.0290   -8.3760 hc        1 1YT      0.043922
     66 H30        12.7460    0.6490   -6.8740 hc        1 1YT      0.043922
     67 H31         6.3190   -1.7060   -1.3150 ho        1 1YT      0.439000
     68 H32        -0.1900   -3.2950    3.2040 hn        1 1YT      0.438800
     69 H33        -0.0870   -1.7010    2.6270 hn        1 1YT      0.438800
     70 H34         0.9420    1.9890    3.0960 h1        1 1YT      0.057700
     71 H35         0.9780    0.3860    3.9930 h1        1 1YT      0.057700
     72 H36        -1.5600    1.0270    3.9500 h1        1 1YT      0.045033
     73 H37        -2.3000    0.7380    2.2890 h1        1 1YT      0.045033
     74 H38        -1.3360    2.2680    2.6190 h1        1 1YT      0.045033
     75 H332        8.0360   -2.4170   -3.5000 hn        1 1YT      0.454800
@<TRIPOS>BOND
     1    1    2 1   
     2    2    3 1   
     3    2    4 1   
     4    2    5 1   
     5    5    6 1   
     6    5   36 1   
     7    5   39 1   
     8    6    7 1   
     9    7    8 ar  
    10    7   12 ar  
    11    8    9 ar  
    12    8   35 1   
    13    9   10 ar  
    14    9   34 1   
    15   10   11 ar  
    16   10   40 1   
    17   11   12 ar  
    18   11   13 1   
    19   12   41 1   
    20   13   14 1   
    21   13   42 1   
    22   13   43 1   
    23   14   15 1   
    24   14   19 1   
    25   14   44 1   
    26   15   16 1   
    27   15   33 1   
    28   15   45 1   
    29   16   17 1   
    30   16   21 1   
    31   16   46 1   
    32   17   18 1   
    33   17   47 1   
    34   17   48 1   
    35   18   19 1   
    36   18   20 2   
    37   19   49 1   
    38   19   50 1   
    39   21   22 1   
    40   21   51 1   
    41   21   75 1   
    42   22   23 1   
    43   22   52 1   
    44   22   53 1   
    45   23   24 ar  
    46   23   28 ar  
    47   24   25 ar  
    48   24   54 1   
    49   25   26 ar  
    50   25   29 1   
    51   26   27 ar  
    52   26   55 1   
    53   27   28 ar  
    54   27   56 1   
    55   28   57 1   
    56   29   30 1   
    57   29   31 1   
    58   29   32 1   
    59   30   58 1   
    60   30   59 1   
    61   30   60 1   
    62   31   61 1   
    63   31   62 1   
    64   31   63 1   
    65   32   64 1   
    66   32   65 1   
    67   32   66 1   
    68   33   67 1   
    69   35   68 1   
    70   35   69 1   
    71   36   37 1   
    72   36   70 1   
    73   36   71 1   
    74   37   38 1   
    75   38   72 1   
    76   38   73 1   
    77   38   74 1   
@<TRIPOS>SUBSTRUCTURE
     1 1YT         1 TEMP              0 ****  ****    0 ROOT
