@<TRIPOS>MOLECULE
1YT
   75    77     1     0     0
SMALL
bcc


@<TRIPOS>ATOM
      1 F1          1.8640    1.9320    0.5060 f         1 1YT     -0.237300
      2 C2          2.6440    1.4420    1.5190 c3        1 1YT      0.605900
      3 F3          3.7950    1.0220    0.9000 f         1 1YT     -0.237300
      4 F4          3.0240    2.5430    2.2420 f         1 1YT     -0.237300
      5 C5          1.9620    0.3300    2.4020 c3        1 1YT      0.074100
      6 O7          1.6120   -0.7340    1.5180 os        1 1YT     -0.308900
      7 C8          2.2960   -1.9260    1.7530 ca        1 1YT      0.003100
      8 C9          1.6930   -2.9080    2.5880 ca        1 1YT      0.177600
      9 C10         2.3610   -4.1770    2.6510 ca        1 1YT      0.043900
     10 C11         3.5510   -4.4050    1.9520 ca        1 1YT     -0.106000
     11 C13         4.1190   -3.4030    1.1610 ca        1 1YT     -0.143300
     12 C14         3.4850   -2.1630    1.0660 ca        1 1YT     -0.089000
     13 C16         5.3990   -3.6410    0.4430 c3        1 1YT     -0.021100
     14 C19         5.1880   -3.7450   -1.0670 c3        1 1YT     -0.066700
     15 C21         6.5160   -3.5010   -1.7960 c3        1 1YT      0.123100
     16 C23         6.2970   -3.5680   -3.3410 c3        1 1YT      0.105500
     17 C25         5.8690   -4.9630   -3.7420 c3        1 1YT     -0.122100
     18 S28         4.2370   -5.3230   -3.1220 s4        1 1YT      0.329600
     19 C29         4.6090   -5.0930   -1.4310 c3        1 1YT     -0.115100
     20 O32         3.4480   -4.1460   -3.5410 o         1 1YT     -0.481200
     21 N33         7.5340   -3.1110   -4.0640 n4        1 1YT     -0.761000
     22 C35         7.2470   -2.5810   -5.4370 c3        1 1YT      0.176100
     23 C38         8.5100   -2.1980   -6.1280 ca        1 1YT     -0.188300
     24 C39         9.0070   -0.8980   -5.9980 ca        1 1YT     -0.101000
     25 C41        10.1750   -0.5070   -6.6680 ca        1 1YT     -0.046300
     26 C42        10.8340   -1.4500   -7.4680 ca        1 1YT     -0.083000
     27 C44        10.3370   -2.7480   -7.5990 ca        1 1YT     -0.118000
     28 C46         9.1760   -3.1300   -6.9320 ca        1 1YT     -0.111000
     29 C48        10.6730    0.9060   -6.5100 c3        1 1YT     -0.017700
     30 C49         9.6050    1.8770   -7.0080 c3        1 1YT     -0.090100
     31 C53        10.9590    1.1800   -5.0350 c3        1 1YT     -0.090100
     32 C57        11.9530    1.1600   -7.2970 c3        1 1YT     -0.090100
     33 O61         7.0930   -2.2470   -1.4880 oh        1 1YT     -0.610800
     34 F63         1.8290   -5.1750    3.4020 f         1 1YT     -0.134900
     35 N64         0.5810   -2.6330    3.3450 nh        1 1YT     -0.833200
     36 C67         0.6930    0.8670    3.0820 c3        1 1YT      0.120400
     37 O70        -0.4750    0.1890    2.6690 os        1 1YT     -0.416600
     38 C71        -1.0040    0.6400    1.4270 c3        1 1YT      0.107700
     39 H1          2.7180    0.0160    3.1690 h1        1 1YT      0.097700
     40 H2          4.0370   -5.3890    2.0440 ha        1 1YT      0.149000
     41 H3          3.9120   -1.3550    0.4510 ha        1 1YT      0.146000
     42 H4          6.1060   -2.7940    0.6630 hc        1 1YT      0.062200
     43 H5          5.8870   -4.5810    0.8150 hc        1 1YT      0.062200
     44 H6          4.4560   -2.9430   -1.3850 hc        1 1YT      0.091700
     45 H7          7.2850   -4.2630   -1.4830 h1        1 1YT      0.091700
     46 H8          5.4730   -2.8330   -3.6150 hx        1 1YT      0.133700
     47 H9          5.8240   -5.0690   -4.8550 h1        1 1YT      0.101200
     48 H10         6.5790   -5.7320   -3.3530 h1        1 1YT      0.101200
     49 H11         5.3030   -5.9080   -1.1010 h1        1 1YT      0.113700
     50 H12         3.6620   -5.2250   -0.8360 h1        1 1YT      0.113700
     51 H14         7.9790   -2.3670   -3.5030 hn        1 1YT      0.454800
     52 H16         6.5620   -1.6910   -5.3250 hx        1 1YT      0.105200
     53 H17         6.7010   -3.3840   -6.0100 hx        1 1YT      0.105200
     54 H18         8.4670   -0.1660   -5.3770 ha        1 1YT      0.140000
     55 H19        11.7530   -1.1800   -8.0130 ha        1 1YT      0.161000
     56 H20        10.8650   -3.4730   -8.2400 ha        1 1YT      0.156000
     57 H21         8.7800   -4.1490   -7.0530 ha        1 1YT      0.135000
     58 H22         9.3760    1.6830   -8.0830 hc        1 1YT      0.043811
     59 H23         8.6650    1.7710   -6.4160 hc        1 1YT      0.043811
     60 H24         9.9720    2.9260   -6.9050 hc        1 1YT      0.043811
     61 H25        11.7340    0.4760   -4.6510 hc        1 1YT      0.043811
     62 H26        11.3350    2.2250   -4.9120 hc        1 1YT      0.043811
     63 H27        10.0320    1.0670   -4.4230 hc        1 1YT      0.043811
     64 H28        12.7720    0.4850   -6.9500 hc        1 1YT      0.043811
     65 H29        12.2820    2.2170   -7.1440 hc        1 1YT      0.043811
     66 H30        11.7830    1.0030   -8.3890 hc        1 1YT      0.043811
     67 H31         6.3920   -1.6330   -1.2240 ho        1 1YT      0.439000
     68 H32         0.0390   -1.8350    3.0890 hn        1 1YT      0.443300
     69 H33         0.0970   -3.4040    3.7420 hn        1 1YT      0.443300
     70 H34         0.7530    0.6570    4.1860 h1        1 1YT      0.075200
     71 H35         0.6050    1.9720    2.9060 h1        1 1YT      0.075200
     72 H36        -1.8820   -0.0280    1.2450 h1        1 1YT      0.047700
     73 H37        -1.3300    1.7060    1.5130 h1        1 1YT      0.047700
     74 H38        -0.2420    0.5320    0.6160 h1        1 1YT      0.047700
     75 H332        8.1950   -3.8910   -4.1350 hn        1 1YT      0.454800
@<TRIPOS>BOND
     1    1    2 1   
     2    2    3 1   
     3    2    4 1   
     4    2    5 1   
     5    5    6 1   
     6    5   36 1   
     7    5   39 1   
     8    6    7 1   
     9    7    8 ar  
    10    7   12 ar  
    11    8    9 ar  
    12    8   35 1   
    13    9   10 ar  
    14    9   34 1   
    15   10   11 ar  
    16   10   40 1   
    17   11   12 ar  
    18   11   13 1   
    19   12   41 1   
    20   13   14 1   
    21   13   42 1   
    22   13   43 1   
    23   14   15 1   
    24   14   19 1   
    25   14   44 1   
    26   15   16 1   
    27   15   33 1   
    28   15   45 1   
    29   16   17 1   
    30   16   21 1   
    31   16   46 1   
    32   17   18 1   
    33   17   47 1   
    34   17   48 1   
    35   18   19 1   
    36   18   20 2   
    37   19   49 1   
    38   19   50 1   
    39   21   22 1   
    40   21   51 1   
    41   21   75 1   
    42   22   23 1   
    43   22   52 1   
    44   22   53 1   
    45   23   24 ar  
    46   23   28 ar  
    47   24   25 ar  
    48   24   54 1   
    49   25   26 ar  
    50   25   29 1   
    51   26   27 ar  
    52   26   55 1   
    53   27   28 ar  
    54   27   56 1   
    55   28   57 1   
    56   29   30 1   
    57   29   31 1   
    58   29   32 1   
    59   30   58 1   
    60   30   59 1   
    61   30   60 1   
    62   31   61 1   
    63   31   62 1   
    64   31   63 1   
    65   32   64 1   
    66   32   65 1   
    67   32   66 1   
    68   33   67 1   
    69   35   68 1   
    70   35   69 1   
    71   36   37 1   
    72   36   70 1   
    73   36   71 1   
    74   37   38 1   
    75   38   72 1   
    76   38   73 1   
    77   38   74 1   
@<TRIPOS>SUBSTRUCTURE
     1 1YT         1 TEMP              0 ****  ****    0 ROOT
