@<TRIPOS>MOLECULE
1YU
   72    74     1     0     0
SMALL
bcc


@<TRIPOS>ATOM
      1 F1         -0.1120   -0.0530    0.3070 f         1 1YU     -0.204133
      2 C2          1.0610    0.6400    0.3200 c3        1 1YU      0.647900
      3 F3          1.0620    1.4110    1.4450 f         1 1YU     -0.204133
      4 F4          2.0520   -0.2910    0.5020 f         1 1YU     -0.204133
      5 C5          1.3240    1.4830   -0.9890 c3        1 1YU      0.029100
      6 O7          1.0140    0.6430   -2.0980 os        1 1YU     -0.321900
      7 C8          2.0490    0.3770   -2.9830 ca        1 1YU      0.162100
      8 C9          1.7370    0.5310   -4.3570 ca        1 1YU     -0.119400
      9 C10         2.7220    0.1630   -5.3120 ca        1 1YU      0.200900
     10 C11         3.9610   -0.3460   -4.8860 ca        1 1YU     -0.155000
     11 C13         4.2370   -0.5040   -3.5250 ca        1 1YU      0.025700
     12 C14         3.2820   -0.1260   -2.5710 ca        1 1YU     -0.161000
     13 C16         5.5080   -1.1540   -3.0910 c3        1 1YU     -0.059100
     14 C19         6.6680   -0.1830   -2.8740 c3        1 1YU     -0.044700
     15 C21         7.9010   -0.9730   -2.3930 c3        1 1YU      0.120100
     16 C23         9.0510    0.0100   -2.0190 c3        1 1YU      0.167500
     17 C25         9.5280    0.7360   -3.2550 c3        1 1YU     -0.151100
     18 S28         8.2730    1.7600   -3.9800 s4        1 1YU      0.338600
     19 C29         6.9940    0.5660   -4.1420 c3        1 1YU     -0.137100
     20 O32         8.7390    1.9790   -5.3510 o         1 1YU     -0.435200
     21 N33        10.1750   -0.7220   -1.3310 n4        1 1YU     -0.770000
     22 C35        11.0370    0.1790   -0.4870 c3        1 1YU      0.184100
     23 C38        12.1460   -0.5990    0.1280 ca        1 1YU     -0.202300
     24 C39        13.4000   -0.6340   -0.4880 ca        1 1YU     -0.099000
     25 C41        14.4690   -1.3250    0.1010 ca        1 1YU     -0.042300
     26 C42        14.2490   -1.9820    1.3190 ca        1 1YU     -0.074000
     27 C44        12.9960   -1.9480    1.9350 ca        1 1YU     -0.115000
     28 C46        11.9400   -1.2590    1.3470 ca        1 1YU     -0.111000
     29 C48        15.8090   -1.3290   -0.5880 c3        1 1YU     -0.018700
     30 C49        16.8520   -2.1310    0.1810 c3        1 1YU     -0.090767
     31 C53        15.6640   -1.9440   -1.9780 c3        1 1YU     -0.090767
     32 C57        16.3120    0.1070   -0.7200 c3        1 1YU     -0.090767
     33 O61         7.6130   -1.6870   -1.2000 oh        1 1YU     -0.615800
     34 F63         2.4610    0.3040   -6.6280 f         1 1YU     -0.095900
     35 N64         0.4300    1.0180   -4.7720 n4        1 1YU     -0.693000
     36 C67         0.3660    2.7310   -1.1290 c3        1 1YU      0.647900
     37 F68        -0.8200    2.6260   -0.4720 f         1 1YU     -0.204133
     38 F69         0.9550    3.8890   -0.7130 f         1 1YU     -0.204133
     39 F70         0.0360    2.9460   -2.4500 f         1 1YU     -0.204133
     40 H1          2.3880    1.8390   -0.9790 h1        1 1YU      0.127700
     41 H2          4.7040   -0.6380   -5.6510 ha        1 1YU      0.194000
     42 H3          3.4770   -0.2640   -1.4920 ha        1 1YU      0.187000
     43 H4          5.3110   -1.7040   -2.1280 hc        1 1YU      0.080700
     44 H5          5.8090   -1.9150   -3.8630 hc        1 1YU      0.080700
     45 H6          6.3730    0.5410   -2.0620 hc        1 1YU      0.073700
     46 H7          8.2420   -1.6760   -3.2030 h1        1 1YU      0.071700
     47 H8          8.6470    0.7440   -1.2570 hx        1 1YU      0.111700
     48 H9         10.3760    1.4310   -3.0110 h1        1 1YU      0.117200
     49 H10         9.9260    0.0160   -4.0180 h1        1 1YU      0.117200
     50 H11         7.2240   -0.1600   -4.9650 h1        1 1YU      0.104700
     51 H12         6.0820    1.1270   -4.4830 h1        1 1YU      0.104700
     52 H14         9.7700   -1.4500   -0.7240 hn        1 1YU      0.458800
     53 H16        11.4350    0.9970   -1.1520 hx        1 1YU      0.102200
     54 H17        10.3770    0.6350    0.3060 hx        1 1YU      0.102200
     55 H18        13.5610   -0.0980   -1.4380 ha        1 1YU      0.139000
     56 H19        15.0660   -2.5330    1.8150 ha        1 1YU      0.168000
     57 H20        12.8470   -2.4630    2.8970 ha        1 1YU      0.161000
     58 H21        10.9610   -1.2180    1.8470 ha        1 1YU      0.135000
     59 H22        16.5360   -3.1960    0.2850 hc        1 1YU      0.045256
     60 H23        17.0190   -1.6940    1.1950 hc        1 1YU      0.045256
     61 H24        17.8230   -2.1070   -0.3720 hc        1 1YU      0.045256
     62 H25        15.2940   -2.9950   -1.9010 hc        1 1YU      0.045256
     63 H26        14.9520   -1.3540   -2.6020 hc        1 1YU      0.045256
     64 H27        16.6560   -1.9530   -2.4900 hc        1 1YU      0.045256
     65 H28        17.3120    0.1110   -1.2190 hc        1 1YU      0.045256
     66 H29        16.4160    0.5770    0.2870 hc        1 1YU      0.045256
     67 H30        15.6100    0.7200   -1.3330 hc        1 1YU      0.045256
     68 H31         7.1360   -2.4930   -1.4410 ho        1 1YU      0.445000
     69 H32        -0.2190    0.2240   -4.8640 hn        1 1YU      0.482133
     70 H33         0.0600    1.6680   -4.0550 hn        1 1YU      0.482133
     71 H332       10.7640   -1.1820   -2.0330 hn        1 1YU      0.458800
     72 H643        0.5050    1.5030   -5.6760 hn        1 1YU      0.482133
@<TRIPOS>BOND
     1    1    2 1   
     2    2    3 1   
     3    2    4 1   
     4    2    5 1   
     5    5    6 1   
     6    5   36 1   
     7    5   40 1   
     8    6    7 1   
     9    7    8 ar  
    10    7   12 ar  
    11    8    9 ar  
    12    8   35 1   
    13    9   10 ar  
    14    9   34 1   
    15   10   11 ar  
    16   10   41 1   
    17   11   12 ar  
    18   11   13 1   
    19   12   42 1   
    20   13   14 1   
    21   13   43 1   
    22   13   44 1   
    23   14   15 1   
    24   14   19 1   
    25   14   45 1   
    26   15   16 1   
    27   15   33 1   
    28   15   46 1   
    29   16   17 1   
    30   16   21 1   
    31   16   47 1   
    32   17   18 1   
    33   17   48 1   
    34   17   49 1   
    35   18   19 1   
    36   18   20 2   
    37   19   50 1   
    38   19   51 1   
    39   21   22 1   
    40   21   52 1   
    41   21   71 1   
    42   22   23 1   
    43   22   53 1   
    44   22   54 1   
    45   23   24 ar  
    46   23   28 ar  
    47   24   25 ar  
    48   24   55 1   
    49   25   26 ar  
    50   25   29 1   
    51   26   27 ar  
    52   26   56 1   
    53   27   28 ar  
    54   27   57 1   
    55   28   58 1   
    56   29   30 1   
    57   29   31 1   
    58   29   32 1   
    59   30   59 1   
    60   30   60 1   
    61   30   61 1   
    62   31   62 1   
    63   31   63 1   
    64   31   64 1   
    65   32   65 1   
    66   32   66 1   
    67   32   67 1   
    68   33   68 1   
    69   35   69 1   
    70   35   70 1   
    71   35   72 1   
    72   36   37 1   
    73   36   38 1   
    74   36   39 1   
@<TRIPOS>SUBSTRUCTURE
     1 1YU         1 TEMP              0 ****  ****    0 ROOT
