@<TRIPOS>MOLECULE
1YU
   70    65     1     0     0
SMALL
bcc


@<TRIPOS>ATOM
      1 F1         -8.0080   -0.2140   -4.3320 f         1 1YU     -0.149000
      2 C2         -7.6360   -1.3700   -4.9030 c3        1 1YU      0.415000
      3 F3         -8.7120   -2.1560   -5.0630 f         1 1YU     -0.149000
      4 F4         -7.0840   -1.1190   -6.0980 f         1 1YU     -0.149000
      5 C5         -6.6130   -2.0770   -4.0070 c3        1 1YU     -0.056000
      6 O7         -7.0400   -1.9980   -2.6360 os        1 1YU     -0.176000
      7 C8         -6.2340   -1.1330   -1.8250 c1        1 1YU     -0.052000
      8 C9         -6.7890    0.0190   -1.2720 c1        1 1YU      0.081000
      9 C10        -6.0260    0.8270   -0.4400 c1        1 1YU      0.019000
     10 C11        -4.7040    0.4870   -0.1590 c1        1 1YU     -0.112000
     11 C13        -4.1500   -0.6620   -0.7110 c1        1 1YU     -0.089000
     12 C14        -4.9160   -1.4730   -1.5450 c1        1 1YU     -0.111000
     13 C16        -2.7350   -1.0990   -0.3070 c3        1 1YU     -0.115000
     14 C19        -1.8570    0.1170   -0.1560 c3        1 1YU     -0.071000
     15 C21        -0.3880   -0.3630    0.2410 c3        1 1YU      0.038000
     16 C23         0.6860    0.8170    0.2830 c3        1 1YU     -0.028000
     17 C25         0.7420    1.6460   -0.9800 c3        1 1YU     -0.638000
     18 S28        -0.8070    2.1510   -1.3630 s4        1 1YU      1.395000
     19 C29        -1.9180    0.9100   -1.4310 c3        1 1YU     -0.604000
     20 O32        -1.0010    3.3310   -2.1550 o         1 1YU     -0.773000
     21 N33         1.9720    0.2550    0.5150 n3        1 1YU     -0.309000
     22 C35         2.6780    1.0490    1.5030 c3        1 1YU     -0.032000
     23 C38         3.9810    0.3250    1.9140 c1        1 1YU     -0.096000
     24 C39         5.1110    1.0650    2.2640 c1        1 1YU     -0.121000
     25 C41         6.2920    0.4100    2.6190 c1        1 1YU     -0.057000
     26 C42         6.3410   -0.9780    2.6250 c2        1 1YU     -0.121000
     27 C44         5.2090   -1.7180    2.2750 c1        1 1YU     -0.133000
     28 C46         4.0300   -1.0650    1.9200 c1        1 1YU     -0.113000
     29 C48         7.5210    1.2260    3.0720 c2        1 1YU     -0.018000
     30 C49         8.5790    0.2800    3.6470 c3        1 1YU     -0.204000
     31 C53         8.1010    1.9700    1.8810 c3        1 1YU     -0.204000
     32 C57         7.1010    2.2270    4.1410 c3        1 1YU     -0.204000
     33 O61        -0.4390   -0.9470    1.4580 oh        1 1YU     -0.330000
     34 F63        -6.5430    1.9700    0.0460 f         1 1YU     -0.106000
     35 N64        -8.1660    0.3010   -1.4600 n3        1 1YU     -0.332000
     36 C67        -6.4990   -3.5610   -4.4260 c3        1 1YU      0.415000
     37 F68        -7.6980   -4.1560   -4.3010 f         1 1YU     -0.149000
     38 F69        -6.0940   -3.6350   -5.7040 f         1 1YU     -0.149000
     39 F70        -5.6080   -4.1820   -3.6380 f         1 1YU     -0.149000
     40 H1         -5.7450   -1.6460   -4.1020 h1        1 1YU      0.163000
     41 H2         -4.1660    1.0570    0.4270 ha        1 1YU      0.158000
     42 H3         -4.5280   -2.2790   -1.9330 ha        1 1YU      0.154000
     43 H4         -2.3650   -1.6840   -0.9960 hc        1 1YU      0.108000
     44 H5         -2.7730   -1.5820    0.5450 hc        1 1YU      0.108000
     45 H6         -2.2090    0.6680    0.5690 hc        1 1YU      0.102000
     46 H7         -0.0920   -1.0290   -0.4120 h1        1 1YU      0.081000
     47 H8          0.4660    1.4070    1.0290 h1        1 1YU      0.106000
     48 H9          1.4070    2.3590   -0.9910 h1        1 1YU      0.132500
     49 H10         1.0810    1.0770   -1.7010 h1        1 1YU      0.132500
     50 H11        -2.7810    1.3100   -1.6580 h1        1 1YU      0.133000
     51 H12        -1.7870    0.3000   -2.1830 h1        1 1YU      0.133000
     52 H14         2.4470    0.2480   -0.2660 hn        1 1YU      0.165000
     53 H16         2.8980    1.9240    1.1220 h1        1 1YU      0.079000
     54 H17         2.1090    1.1710    2.2930 h1        1 1YU      0.079000
     55 H18         5.0770    2.0390    2.2590 ha        1 1YU      0.132000
     56 H19         7.1660   -1.4370    2.8740 ha        1 1YU      0.136000
     57 H20         5.2430   -2.6940    2.2790 ha        1 1YU      0.133000
     58 H21         3.2410   -1.5820    1.6760 ha        1 1YU      0.141000
     59 H22         8.7580   -0.4400    3.0040 hc        1 1YU      0.076778
     60 H23         8.2510   -0.1060    4.4870 hc        1 1YU      0.076778
     61 H24         9.4080    0.7810    3.8170 hc        1 1YU      0.076778
     62 H25         7.5340    2.7420    1.6700 hc        1 1YU      0.076778
     63 H26         8.1370    1.3700    1.1070 hc        1 1YU      0.076778
     64 H27         9.0070    2.2790    2.0980 hc        1 1YU      0.076778
     65 H28         6.6170    1.7600    4.8530 hc        1 1YU      0.076778
     66 H29         7.8990    2.6590    4.5170 hc        1 1YU      0.076778
     67 H30         6.5180    2.9070    3.7410 hc        1 1YU      0.076778
     68 H31        -0.2640   -1.8130    1.3780 ho        1 1YU      0.224000
     69 H32        -8.5410    1.0400   -1.0660 hn        1 1YU      0.221500
     70 H33        -8.6890   -0.2780   -1.9310 hn        1 1YU      0.221500
@<TRIPOS>BOND
     1    1    2 1   
     2    2    3 1   
     3    2    4 1   
     4    2    5 1   
     5    5    6 1   
     6    5   36 1   
     7    5   40 1   
     8    6    7 1   
     9    7    8 1   
    10    8   35 1   
    11    9   10 1   
    12   10   41 1   
    13   11   12 1   
    14   11   13 1   
    15   12   42 1   
    16   13   14 1   
    17   13   43 1   
    18   13   44 1   
    19   14   15 1   
    20   14   19 1   
    21   14   45 1   
    22   15   16 1   
    23   15   33 1   
    24   15   46 1   
    25   16   17 1   
    26   16   21 1   
    27   16   47 1   
    28   17   18 1   
    29   17   48 1   
    30   17   49 1   
    31   18   19 1   
    32   18   20 1   
    33   19   50 1   
    34   19   51 1   
    35   21   22 1   
    36   21   52 1   
    37   22   23 1   
    38   22   53 1   
    39   22   54 1   
    40   23   28 1   
    41   24   25 1   
    42   24   55 1   
    43   25   26 1   
    44   26   27 1   
    45   26   56 1   
    46   27   57 1   
    47   28   58 1   
    48   29   30 1   
    49   29   31 1   
    50   29   32 1   
    51   30   59 1   
    52   30   60 1   
    53   30   61 1   
    54   31   62 1   
    55   31   63 1   
    56   31   64 1   
    57   32   65 1   
    58   32   66 1   
    59   32   67 1   
    60   33   68 1   
    61   35   69 1   
    62   35   70 1   
    63   36   37 1   
    64   36   38 1   
    65   36   39 1   
@<TRIPOS>SUBSTRUCTURE
     1 1YU         1 TEMP              0 ****  ****    0 ROOT
