@<TRIPOS>MOLECULE
1YU
   71    73     1     0     0
SMALL
bcc


@<TRIPOS>ATOM
      1 F1          1.9410    1.8600    1.0390 f         1 1YU     -0.218133
      2 C2          2.4460    2.4230   -0.0970 c3        1 1YU      0.631400
      3 F3          2.6070    3.7540    0.1780 f         1 1YU     -0.218133
      4 F4          3.7260    1.9330   -0.2000 f         1 1YU     -0.218133
      5 C5          1.6100    2.1630   -1.4020 c3        1 1YU      0.047100
      6 O7          1.5700    0.7590   -1.6130 os        1 1YU     -0.291900
      7 C8          2.2720    0.3280   -2.7420 ca        1 1YU      0.000100
      8 C9          1.6550    0.3990   -4.0190 ca        1 1YU      0.155600
      9 C10         2.3860   -0.1910   -5.1020 ca        1 1YU      0.062900
     10 C11         3.6320   -0.7930   -4.8920 ca        1 1YU     -0.105000
     11 C13         4.1970   -0.8420   -3.6140 ca        1 1YU     -0.130300
     12 C14         3.5110   -0.2790   -2.5380 ca        1 1YU     -0.084000
     13 C16         5.5000   -1.5280   -3.3900 c3        1 1YU     -0.022100
     14 C19         6.5990   -0.5490   -2.9810 c3        1 1YU     -0.057700
     15 C21         7.8830   -1.2970   -2.5880 c3        1 1YU      0.124100
     16 C23         8.9020   -0.2840   -1.9860 c3        1 1YU      0.166500
     17 C25         9.3330    0.7120   -3.0350 c3        1 1YU     -0.142100
     18 S28         7.9830    1.6980   -3.6620 s4        1 1YU      0.327600
     19 C29         6.8940    0.4110   -4.1100 c3        1 1YU     -0.131100
     20 O32         8.5130    2.2220   -4.9280 o         1 1YU     -0.452200
     21 N33        10.0840   -1.0120   -1.3920 ny        1 1YU     -0.767000
     22 C35        10.8100   -0.2040   -0.3570 c3        1 1YU      0.177100
     23 C38        11.9830   -0.9580    0.1680 ca        1 1YU     -0.191300
     24 C39        13.2540   -0.7340   -0.3680 ca        1 1YU     -0.101000
     25 C41        14.3740   -1.4090    0.1390 ca        1 1YU     -0.046300
     26 C42        14.1890   -2.3130    1.1920 ca        1 1YU     -0.082000
     27 C44        12.9190   -2.5370    1.7280 ca        1 1YU     -0.117000
     28 C46        11.8120   -1.8630    1.2220 ca        1 1YU     -0.111000
     29 C48        15.7290   -1.1320   -0.4590 c3        1 1YU     -0.017700
     30 C49        16.8310   -1.9520    0.2020 c3        1 1YU     -0.090433
     31 C53        15.7060   -1.4750   -1.9470 c3        1 1YU     -0.090433
     32 C57        16.0640    0.3470   -0.2860 c3        1 1YU     -0.090433
     33 O61         7.6620   -2.2510   -1.5590 oh        1 1YU     -0.629800
     34 F63         1.8580   -0.1710   -6.3510 f         1 1YU     -0.126900
     35 N64         0.4700    1.0790   -4.2150 nv        1 1YU     -0.821200
     36 C67         0.1130    2.6360   -1.2630 c3        1 1YU      0.631400
     37 F68        -0.7840    1.6030   -1.2910 f         1 1YU     -0.218133
     38 F69        -0.1590    3.3400   -0.1250 f         1 1YU     -0.218133
     39 F70        -0.2610    3.4510   -2.3000 f         1 1YU     -0.218133
     40 H1          2.0890    2.7280   -2.2450 h1        1 1YU      0.126700
     41 H2          4.1540   -1.2400   -5.7540 ha        1 1YU      0.157000
     42 H3          3.9240   -0.3110   -1.5170 ha        1 1YU      0.155000
     43 H4          5.3500   -2.2880   -2.5760 hc        1 1YU      0.057700
     44 H5          5.8160   -2.0740   -4.3180 hc        1 1YU      0.057700
     45 H6          6.2310    0.0210   -2.0800 hc        1 1YU      0.075700
     46 H7          8.3240   -1.8050   -3.4910 h1        1 1YU      0.064700
     47 H8          8.3960    0.2430   -1.1200 hx        1 1YU      0.112700
     48 H9          9.8470    0.2020   -3.8900 h1        1 1YU      0.106700
     49 H10        10.0660    1.4490   -2.6140 h1        1 1YU      0.106700
     50 H11         7.2520   -0.1540   -5.0100 h1        1 1YU      0.117700
     51 H12         5.9260    0.8890   -4.4330 h1        1 1YU      0.117700
     52 H14         9.7450   -1.8820   -0.9540 hn        1 1YU      0.456800
     53 H16        11.1330    0.7640   -0.8360 hx        1 1YU      0.103200
     54 H17        10.0790    0.0250    0.4720 hx        1 1YU      0.103200
     55 H18        13.3830   -0.0080   -1.1870 ha        1 1YU      0.139000
     56 H19        15.0460   -2.8610    1.6200 ha        1 1YU      0.162000
     57 H20        12.7960   -3.2470    2.5620 ha        1 1YU      0.157000
     58 H21        10.8160   -2.0300    1.6600 ha        1 1YU      0.138000
     59 H22        17.8120   -1.7140   -0.2790 hc        1 1YU      0.043922
     60 H23        16.6390   -3.0450    0.0810 hc        1 1YU      0.043922
     61 H24        16.9070   -1.7080    1.2880 hc        1 1YU      0.043922
     62 H25        16.7110   -1.2780   -2.3940 hc        1 1YU      0.043922
     63 H26        14.9540   -0.8530   -2.4870 hc        1 1YU      0.043922
     64 H27        15.4570   -2.5530   -2.0940 hc        1 1YU      0.043922
     65 H28        15.3170    0.9880   -0.8100 hc        1 1YU      0.043922
     66 H29        17.0730    0.5580   -0.7170 hc        1 1YU      0.043922
     67 H30        16.0760    0.6190    0.7970 hc        1 1YU      0.043922
     68 H31         7.0750   -2.9360   -1.9070 ho        1 1YU      0.450000
     69 H32         0.0320    0.9510   -5.1010 hn        1 1YU      0.430300
     70 H33        -0.1490    1.1220   -3.4340 hn        1 1YU      0.430300
     71 H332       10.7380   -1.2650   -2.1400 hn        1 1YU      0.456800
@<TRIPOS>BOND
     1    1    2 1   
     2    2    3 1   
     3    2    4 1   
     4    2    5 1   
     5    5    6 1   
     6    5   36 1   
     7    5   40 1   
     8    6    7 1   
     9    7    8 ar  
    10    7   12 ar  
    11    8    9 ar  
    12    8   35 1   
    13    9   10 ar  
    14    9   34 1   
    15   10   11 ar  
    16   10   41 1   
    17   11   12 ar  
    18   11   13 1   
    19   12   42 1   
    20   13   14 1   
    21   13   43 1   
    22   13   44 1   
    23   14   15 1   
    24   14   19 1   
    25   14   45 1   
    26   15   16 1   
    27   15   33 1   
    28   15   46 1   
    29   16   17 1   
    30   16   21 1   
    31   16   47 1   
    32   17   18 1   
    33   17   48 1   
    34   17   49 1   
    35   18   19 1   
    36   18   20 2   
    37   19   50 1   
    38   19   51 1   
    39   21   22 1   
    40   21   52 1   
    41   21   71 1   
    42   22   23 1   
    43   22   53 1   
    44   22   54 1   
    45   23   24 ar  
    46   23   28 ar  
    47   24   25 ar  
    48   24   55 1   
    49   25   26 ar  
    50   25   29 1   
    51   26   27 ar  
    52   26   56 1   
    53   27   28 ar  
    54   27   57 1   
    55   28   58 1   
    56   29   30 1   
    57   29   31 1   
    58   29   32 1   
    59   30   59 1   
    60   30   60 1   
    61   30   61 1   
    62   31   62 1   
    63   31   63 1   
    64   31   64 1   
    65   32   65 1   
    66   32   66 1   
    67   32   67 1   
    68   33   68 1   
    69   35   69 1   
    70   35   70 1   
    71   36   37 1   
    72   36   38 1   
    73   36   39 1   
@<TRIPOS>SUBSTRUCTURE
     1 1YU         1 TEMP              0 ****  ****    0 ROOT
