@<TRIPOS>MOLECULE
1YU
   70    72     1     0     0
SMALL
bcc


@<TRIPOS>ATOM
      1 F1         -5.1980    3.3070    0.0830 f         1 1YU     -0.220300
      2 C2         -4.6230    2.4050   -0.7650 c3        1 1YU      0.628400
      3 F3         -4.6460    2.9910   -2.0040 f         1 1YU     -0.220300
      4 F4         -3.2970    2.3720   -0.4170 f         1 1YU     -0.220300
      5 C5         -5.2770    0.9740   -0.7580 c3        1 1YU      0.057100
      6 O7         -5.1080    0.4360    0.5430 os        1 1YU     -0.295900
      7 C8         -4.3050   -0.7090    0.5910 ca        1 1YU      0.005100
      8 C9         -4.8940   -1.9770    0.3510 ca        1 1YU      0.121600
      9 C10        -4.0510   -3.1120    0.5640 ca        1 1YU      0.060900
     10 C11        -2.7200   -2.9590    0.9730 ca        1 1YU     -0.115000
     11 C13        -2.1800   -1.6890    1.1950 ca        1 1YU     -0.092300
     12 C14        -2.9790   -0.5600    0.9990 ca        1 1YU     -0.088000
     13 C16        -0.7730   -1.5350    1.6580 c3        1 1YU     -0.030100
     14 C19         0.1600   -1.1050    0.5280 c3        1 1YU     -0.031700
     15 C21         1.4970   -0.6200    1.1160 c3        1 1YU      0.150100
     16 C23         2.4420   -0.0770    0.0010 c3        1 1YU      0.168500
     17 C25         2.7270   -1.1780   -1.0190 c3        1 1YU     -0.134100
     18 S28         1.2820   -1.7250   -1.8470 s4        1 1YU      0.272600
     19 C29         0.3750   -2.2430   -0.4420 c3        1 1YU     -0.102100
     20 O32         1.6910   -2.9820   -2.5330 o         1 1YU     -0.500200
     21 N33         3.6400    0.4980    0.6000 n3        1 1YU     -0.827200
     22 C35         4.2990    1.4900   -0.2300 c3        1 1YU      0.212100
     23 C38         5.7160    1.7550    0.1870 ca        1 1YU     -0.094300
     24 C39         6.6990    0.7870   -0.0320 ca        1 1YU     -0.127000
     25 C41         8.0350    1.0200    0.3250 ca        1 1YU     -0.061300
     26 C42         8.3660    2.2480    0.9090 ca        1 1YU     -0.122000
     27 C44         7.3860    3.2160    1.1300 ca        1 1YU     -0.129000
     28 C46         6.0610    2.9750    0.7750 ca        1 1YU     -0.115000
     29 C48         9.0600   -0.0530    0.0670 c3        1 1YU     -0.010700
     30 C49        10.4570    0.3590    0.5160 c3        1 1YU     -0.086100
     31 C53         8.6700   -1.3190    0.8260 c3        1 1YU     -0.086100
     32 C57         9.1100   -0.3570   -1.4280 c3        1 1YU     -0.086100
     33 O61         1.1590    0.4110    2.0310 oh        1 1YU     -0.603800
     34 F63        -4.5500   -4.3600    0.3710 f         1 1YU     -0.138900
     35 N64        -6.1830   -2.0970   -0.1540 nh        1 1YU     -0.816200
     36 C67        -6.8280    1.0360   -1.0300 c3        1 1YU      0.628400
     37 F68        -7.5900    0.7300    0.0640 f         1 1YU     -0.220300
     38 F69        -7.2820    2.2510   -1.4640 f         1 1YU     -0.220300
     39 F70        -7.2220    0.1430   -1.9920 f         1 1YU     -0.220300
     40 H1         -4.7950    0.3590   -1.5640 h1        1 1YU      0.128700
     41 H2         -2.1040   -3.8600    1.1250 ha        1 1YU      0.156000
     42 H3         -2.5780    0.4520    1.1710 ha        1 1YU      0.166000
     43 H4         -0.7380   -0.7590    2.4720 hc        1 1YU      0.069200
     44 H5         -0.4030   -2.5000    2.0950 hc        1 1YU      0.069200
     45 H6         -0.3180   -0.2350   -0.0060 hc        1 1YU      0.063700
     46 H7          2.0020   -1.4620    1.6660 h1        1 1YU      0.040700
     47 H8          1.8870    0.7630   -0.5160 h1        1 1YU      0.068700
     48 H9          3.4290   -0.7930   -1.8040 h1        1 1YU      0.091700
     49 H10         3.2560   -2.0300   -0.5210 h1        1 1YU      0.091700
     50 H11         0.8660   -3.1030    0.0800 h1        1 1YU      0.096200
     51 H12        -0.6220   -2.6230   -0.7880 h1        1 1YU      0.096200
     52 H14         4.2790   -0.2260    0.8730 hn        1 1YU      0.367800
     53 H16         4.3090    1.1940   -1.3220 h1        1 1YU      0.041200
     54 H17         3.6930    2.4390   -0.1480 h1        1 1YU      0.041200
     55 H18         6.4170   -0.1700   -0.4980 ha        1 1YU      0.129000
     56 H19         9.4030    2.4710    1.2020 ha        1 1YU      0.136000
     57 H20         7.6630    4.1750    1.5920 ha        1 1YU      0.133000
     58 H21         5.2910    3.7380    0.9580 ha        1 1YU      0.136000
     59 H22        10.4730    0.5680    1.6130 hc        1 1YU      0.037367
     60 H23        11.1770   -0.4690    0.3060 hc        1 1YU      0.037367
     61 H24        10.7960    1.2680   -0.0350 hc        1 1YU      0.037367
     62 H25         7.6760   -1.6940    0.4840 hc        1 1YU      0.037367
     63 H26         9.4300   -2.1180    0.6480 hc        1 1YU      0.037367
     64 H27         8.6180   -1.1130    1.9210 hc        1 1YU      0.037367
     65 H28         9.3870    0.5600   -2.0000 hc        1 1YU      0.037367
     66 H29         9.8730   -1.1480   -1.6290 hc        1 1YU      0.037367
     67 H30         8.1190   -0.7200   -1.7910 hc        1 1YU      0.037367
     68 H31         1.9820    0.7850    2.3710 ho        1 1YU      0.427000
     69 H32        -6.8140   -1.3800    0.1350 hn        1 1YU      0.412800
     70 H33        -6.5640   -3.0180   -0.1070 hn        1 1YU      0.412800
@<TRIPOS>BOND
     1    1    2 1   
     2    2    3 1   
     3    2    4 1   
     4    2    5 1   
     5    5    6 1   
     6    5   36 1   
     7    5   40 1   
     8    6    7 1   
     9    7    8 ar  
    10    7   12 ar  
    11    8    9 ar  
    12    8   35 1   
    13    9   10 ar  
    14    9   34 1   
    15   10   11 ar  
    16   10   41 1   
    17   11   12 ar  
    18   11   13 1   
    19   12   42 1   
    20   13   14 1   
    21   13   43 1   
    22   13   44 1   
    23   14   15 1   
    24   14   19 1   
    25   14   45 1   
    26   15   16 1   
    27   15   33 1   
    28   15   46 1   
    29   16   17 1   
    30   16   21 1   
    31   16   47 1   
    32   17   18 1   
    33   17   48 1   
    34   17   49 1   
    35   18   19 1   
    36   18   20 2   
    37   19   50 1   
    38   19   51 1   
    39   21   22 1   
    40   21   52 1   
    41   22   23 1   
    42   22   53 1   
    43   22   54 1   
    44   23   24 ar  
    45   23   28 ar  
    46   24   25 ar  
    47   24   55 1   
    48   25   26 ar  
    49   25   29 1   
    50   26   27 ar  
    51   26   56 1   
    52   27   28 ar  
    53   27   57 1   
    54   28   58 1   
    55   29   30 1   
    56   29   31 1   
    57   29   32 1   
    58   30   59 1   
    59   30   60 1   
    60   30   61 1   
    61   31   62 1   
    62   31   63 1   
    63   31   64 1   
    64   32   65 1   
    65   32   66 1   
    66   32   67 1   
    67   33   68 1   
    68   35   69 1   
    69   35   70 1   
    70   36   37 1   
    71   36   38 1   
    72   36   39 1   
@<TRIPOS>SUBSTRUCTURE
     1 1YU         1 TEMP              0 ****  ****    0 ROOT
