@<TRIPOS>MOLECULE
1YV
   47    48     1     0     0
SMALL
bcc


@<TRIPOS>ATOM
      1 O23         0.0660   -0.6190   -1.1770 o         1 1YV     -0.549800
      2 S24         1.0500   -0.3860   -0.2390 s6        1 1YV      1.354900
      3 O22         0.7450   -0.1940    1.0960 o         1 1YV     -0.549800
      4 C18         2.4650   -1.2740   -0.4730 c3        1 1YV     -0.319900
      5 C2          2.9300   -1.3130   -1.9150 c3        1 1YV     -0.099600
      6 C1          2.1940   -2.6950    0.0110 c3        1 1YV     -0.099600
      7 N21         1.7020    1.3190   -0.6820 ny        1 1YV     -0.714900
      8 C12         1.1560    1.8400   -1.9610 c3        1 1YV      0.101800
      9 C19         1.5830    3.2820   -2.2790 c3        1 1YV     -0.021400
     10 C3          1.0860    4.2530   -1.2270 c3        1 1YV     -0.115100
     11 C17         1.0590    3.6240   -3.6380 ca        1 1YV     -0.126300
     12 C10         1.9530    3.8420   -4.6930 ca        1 1YV     -0.115500
     13 C11        -0.3160    3.7450   -3.8690 ca        1 1YV     -0.115500
     14 C9         -0.7910    4.0740   -5.1350 ca        1 1YV     -0.111000
     15 C16         0.1020    4.2930   -6.1950 cp        1 1YV     -0.004000
     16 C8          1.4790    4.1750   -5.9590 ca        1 1YV     -0.111000
     17 C15        -0.3960    4.6420   -7.5240 cp        1 1YV     -0.044000
     18 C6          0.2620    5.6110   -8.2950 ca        1 1YV     -0.118000
     19 C7         -1.5370    4.0110   -8.0410 ca        1 1YV     -0.118000
     20 C5         -2.0110    4.3390   -9.3080 ca        1 1YV     -0.089500
     21 C14        -1.3490    5.3100  -10.0730 ca        1 1YV      0.006000
     22 C4         -0.2110    5.9470   -9.5600 ca        1 1YV     -0.089500
     23 C13        -1.8320    5.6470  -11.3670 cg        1 1YV      0.217800
     24 N20        -2.2280    5.9230  -12.4250 n1        1 1YV     -0.331800
     25 H1          3.3270   -0.8960    0.1540 h1        1 1YV      0.148700
     26 H2          3.3710   -0.3350   -2.2260 hc        1 1YV      0.080367
     27 H3          2.0830   -1.5770   -2.5980 hc        1 1YV      0.080367
     28 H4          3.7230   -2.0950   -2.0400 hc        1 1YV      0.080367
     29 H5          1.8510   -2.6910    1.0760 hc        1 1YV      0.080367
     30 H6          3.1350   -3.2980   -0.0430 hc        1 1YV      0.080367
     31 H7          1.4310   -3.1950   -0.6350 hc        1 1YV      0.080367
     32 H8          2.7190    1.3380   -0.7390 hn        1 1YV      0.454300
     33 H9          1.5050    1.1550   -2.7880 hx        1 1YV      0.111700
     34 H10         0.0280    1.7880   -1.9070 hx        1 1YV      0.111700
     35 H11         2.7110    3.3290   -2.3040 hc        1 1YV      0.064700
     36 H12         1.2450    5.3030   -1.5810 hc        1 1YV      0.056367
     37 H13         1.6440    4.1300   -0.2670 hc        1 1YV      0.056367
     38 H14        -0.0060    4.1170   -1.0350 hc        1 1YV      0.056367
     39 H15         3.0380    3.7620   -4.5260 ha        1 1YV      0.133000
     40 H16        -1.0310    3.5940   -3.0460 ha        1 1YV      0.133000
     41 H17        -1.8750    4.1760   -5.3040 ha        1 1YV      0.153000
     42 H18         2.1910    4.3440   -6.7820 ha        1 1YV      0.153000
     43 H19         1.1520    6.1200   -7.8940 ha        1 1YV      0.141500
     44 H20        -2.0580    3.2450   -7.4470 ha        1 1YV      0.141500
     45 H21        -2.9060    3.8370   -9.7100 ha        1 1YV      0.155500
     46 H22         0.3080    6.7130  -10.1580 ha        1 1YV      0.155500
     47 H212        1.4430    1.9770    0.0620 hn        1 1YV      0.454300
@<TRIPOS>BOND
     1    1    2 2   
     2    2    3 2   
     3    2    4 1   
     4    2    7 1   
     5    4    5 1   
     6    4    6 1   
     7    4   25 1   
     8    5   26 1   
     9    5   27 1   
    10    5   28 1   
    11    6   29 1   
    12    6   30 1   
    13    6   31 1   
    14    7    8 1   
    15    7   32 1   
    16    7   47 1   
    17    8    9 1   
    18    8   33 1   
    19    8   34 1   
    20    9   10 1   
    21    9   11 1   
    22    9   35 1   
    23   10   36 1   
    24   10   37 1   
    25   10   38 1   
    26   11   12 ar  
    27   11   13 ar  
    28   12   16 ar  
    29   12   39 1   
    30   13   14 ar  
    31   13   40 1   
    32   14   15 ar  
    33   14   41 1   
    34   15   16 ar  
    35   15   17 1   
    36   16   42 1   
    37   17   18 ar  
    38   17   19 ar  
    39   18   22 ar  
    40   18   43 1   
    41   19   20 ar  
    42   19   44 1   
    43   20   21 ar  
    44   20   45 1   
    45   21   22 ar  
    46   21   23 1   
    47   22   46 1   
    48   23   24 3   
@<TRIPOS>SUBSTRUCTURE
     1 1YV         1 TEMP              0 ****  ****    0 ROOT
