@<TRIPOS>MOLECULE
1YV
   47    48     1     0     0
SMALL
bcc


@<TRIPOS>ATOM
      1 O23         0.3300   -0.8460   -1.4000 o         1 1YV     -0.549800
      2 S24         1.1830   -0.5270   -0.3640 s6        1 1YV      1.354900
      3 O22         0.7390   -0.4650    0.9440 o         1 1YV     -0.549800
      4 C18         2.7330   -1.1780   -0.5070 c3        1 1YV     -0.319900
      5 C2          3.3190   -1.0600   -1.8990 c3        1 1YV     -0.099600
      6 C1          2.6440   -2.6500   -0.1170 c3        1 1YV     -0.099600
      7 N21         1.5990    1.2800   -0.6620 n4        1 1YV     -0.714900
      8 C12         1.0880    1.7940   -1.9580 c3        1 1YV      0.101800
      9 C19         1.3100    3.3010   -2.1630 c3        1 1YV     -0.021400
     10 C3          0.5830    4.1160   -1.1140 c3        1 1YV     -0.115100
     11 C17         0.8530    3.6460   -3.5450 ca        1 1YV     -0.126300
     12 C10         1.7840    4.0740   -4.4990 ca        1 1YV     -0.115500
     13 C11        -0.4990    3.5640   -3.8960 ca        1 1YV     -0.115500
     14 C9         -0.9150    3.9020   -5.1810 ca        1 1YV     -0.110500
     15 C16         0.0150    4.3280   -6.1410 cp        1 1YV     -0.004000
     16 C8          1.3690    4.4120   -5.7840 ca        1 1YV     -0.110500
     17 C15        -0.4210    4.6840   -7.4890 cp        1 1YV     -0.043000
     18 C6          0.3450    4.3100   -8.6030 ca        1 1YV     -0.118000
     19 C7         -1.6080    5.4040   -7.6830 ca        1 1YV     -0.118000
     20 C5         -2.0260    5.7460   -8.9660 ca        1 1YV     -0.089500
     21 C14        -1.2570    5.3660  -10.0750 ca        1 1YV      0.006000
     22 C4         -0.0690    4.6450   -9.8890 ca        1 1YV     -0.089500
     23 C13        -1.6820    5.7100  -11.3870 cg        1 1YV      0.217800
     24 N20        -2.0300    5.9910  -12.4610 n1        1 1YV     -0.331800
     25 H1          3.4690   -0.7140    0.2150 h1        1 1YV      0.148700
     26 H2          2.5840   -1.4060   -2.6690 hc        1 1YV      0.080200
     27 H3          3.6270   -0.0100   -2.1220 hc        1 1YV      0.080200
     28 H4          4.2310   -1.7040   -1.9860 hc        1 1YV      0.080200
     29 H5          2.0250   -3.2190   -0.8550 hc        1 1YV      0.080200
     30 H6          2.2140   -2.7620    0.9100 hc        1 1YV      0.080200
     31 H7          3.6680   -3.1020   -0.1120 hc        1 1YV      0.080200
     32 H8          2.6030    1.4540   -0.6250 hn        1 1YV      0.454300
     33 H9         -0.0180    1.5690   -2.0120 hx        1 1YV      0.111700
     34 H10         1.6070    1.2230   -2.7820 hx        1 1YV      0.111700
     35 H11         2.4150    3.5190   -2.0830 hc        1 1YV      0.065700
     36 H12         1.0710    4.0160   -0.1140 hc        1 1YV      0.056367
     37 H13        -0.4870    3.8070   -1.0310 hc        1 1YV      0.056367
     38 H14         0.6080    5.1990   -1.3980 hc        1 1YV      0.056367
     39 H15         2.8490    4.1590   -4.2350 ha        1 1YV      0.132500
     40 H16        -1.2450    3.2420   -3.1540 ha        1 1YV      0.132500
     41 H17        -1.9820    3.8300   -5.4480 ha        1 1YV      0.153000
     42 H18         2.1090    4.7590   -6.5240 ha        1 1YV      0.153000
     43 H19         1.2760    3.7400   -8.4630 ha        1 1YV      0.141500
     44 H20        -2.2120    5.7120   -6.8150 ha        1 1YV      0.141500
     45 H21        -2.9570    6.3160   -9.1100 ha        1 1YV      0.155000
     46 H22         0.5350    4.3440  -10.7590 ha        1 1YV      0.155000
     47 H212        1.1820    1.8450    0.0870 hn        1 1YV      0.454300
@<TRIPOS>BOND
     1    1    2 2   
     2    2    3 2   
     3    2    4 1   
     4    2    7 1   
     5    4    5 1   
     6    4    6 1   
     7    4   25 1   
     8    5   26 1   
     9    5   27 1   
    10    5   28 1   
    11    6   29 1   
    12    6   30 1   
    13    6   31 1   
    14    7    8 1   
    15    7   32 1   
    16    7   47 1   
    17    8    9 1   
    18    8   33 1   
    19    8   34 1   
    20    9   10 1   
    21    9   11 1   
    22    9   35 1   
    23   10   36 1   
    24   10   37 1   
    25   10   38 1   
    26   11   12 ar  
    27   11   13 ar  
    28   12   16 ar  
    29   12   39 1   
    30   13   14 ar  
    31   13   40 1   
    32   14   15 ar  
    33   14   41 1   
    34   15   16 ar  
    35   15   17 1   
    36   16   42 1   
    37   17   18 ar  
    38   17   19 ar  
    39   18   22 ar  
    40   18   43 1   
    41   19   20 ar  
    42   19   44 1   
    43   20   21 ar  
    44   20   45 1   
    45   21   22 ar  
    46   21   23 1   
    47   22   46 1   
    48   23   24 3   
@<TRIPOS>SUBSTRUCTURE
     1 1YV         1 TEMP              0 ****  ****    0 ROOT
