@<TRIPOS>MOLECULE
1YV
   46    47     1     0     0
SMALL
bcc


@<TRIPOS>ATOM
      1 O23         4.4130    0.4250   -1.5940 o         1 1YV     -0.649800
      2 S24         4.9070    0.1820   -0.2930 s6        1 1YV      1.441900
      3 O22         6.0210   -0.6760   -0.1770 o         1 1YV     -0.649800
      4 C18         5.3250    1.7230    0.4060 c3        1 1YV     -0.270900
      5 C2          5.8490    1.6000    1.8160 c3        1 1YV     -0.077100
      6 C1          6.3580    2.3880   -0.4790 c3        1 1YV     -0.077100
      7 N21         3.7270   -0.3470    0.6700 n3        1 1YV     -0.922100
      8 C12         2.3270   -0.1890    0.4060 c3        1 1YV      0.224800
      9 C19         1.4980   -1.4810    0.5440 c3        1 1YV     -0.034400
     10 C3          1.9210   -2.5260   -0.4690 c3        1 1YV     -0.093100
     11 C17         0.0480   -1.1400    0.3950 ca        1 1YV     -0.074300
     12 C10        -0.8280   -1.3160    1.4720 ca        1 1YV     -0.125000
     13 C11        -0.4540   -0.6480   -0.8160 ca        1 1YV     -0.125000
     14 C9         -1.8040   -0.3340   -0.9470 ca        1 1YV     -0.112500
     15 C16        -2.6820   -0.5120    0.1320 cp        1 1YV     -0.048000
     16 C8         -2.1790   -1.0080    1.3430 ca        1 1YV     -0.112500
     17 C15        -4.1000   -0.1850   -0.0050 cp        1 1YV     -0.011000
     18 C6         -5.0770   -1.0130    0.5660 ca        1 1YV     -0.126000
     19 C7         -4.5000    0.9610   -0.7080 ca        1 1YV     -0.126000
     20 C5         -5.8490    1.2760   -0.8380 ca        1 1YV     -0.090000
     21 C14        -6.8200    0.4430   -0.2660 ca        1 1YV     -0.018000
     22 C4         -6.4280   -0.7050    0.4370 ca        1 1YV     -0.090000
     23 C13        -8.1990    0.7610   -0.3970 cg        1 1YV      0.232800
     24 N20        -9.3280    1.0220   -0.5050 n1        1 1YV     -0.361800
     25 H1          4.4220    2.3940    0.4290 h1        1 1YV      0.104700
     26 H2          6.2560    2.5790    2.1670 hc        1 1YV      0.051533
     27 H3          5.0370    1.2940    2.5200 hc        1 1YV      0.051533
     28 H4          6.6740    0.8450    1.8590 hc        1 1YV      0.051533
     29 H5          5.9690    2.4880   -1.5230 hc        1 1YV      0.051533
     30 H6          6.6010    3.4080   -0.0940 hc        1 1YV      0.051533
     31 H7          7.3000    1.7870   -0.4950 hc        1 1YV      0.051533
     32 H8          3.9230   -0.8640    1.4940 hn        1 1YV      0.449800
     33 H9          1.8990    0.5720    1.1240 h1        1 1YV      0.057200
     34 H10         2.1980    0.2090   -0.6440 h1        1 1YV      0.057200
     35 H11         1.6650   -1.9040    1.5760 hc        1 1YV      0.053700
     36 H12         1.8820   -2.1120   -1.5060 hc        1 1YV      0.044367
     37 H13         2.9630   -2.8690   -0.2620 hc        1 1YV      0.044367
     38 H14         1.2420   -3.4110   -0.4150 hc        1 1YV      0.044367
     39 H15        -0.4500   -1.7020    2.4310 ha        1 1YV      0.138000
     40 H16         0.2230   -0.5110   -1.6740 ha        1 1YV      0.138000
     41 H17        -2.1860    0.0460   -1.9070 ha        1 1YV      0.138000
     42 H18        -2.8560   -1.1470    2.1990 ha        1 1YV      0.138000
     43 H19        -4.7740   -1.9190    1.1130 ha        1 1YV      0.143000
     44 H20        -3.7400    1.6210   -1.1550 ha        1 1YV      0.143000
     45 H21        -6.1540    2.1790   -1.3890 ha        1 1YV      0.146000
     46 H22        -7.1890   -1.3630    0.8850 ha        1 1YV      0.146000
@<TRIPOS>BOND
     1    1    2 2   
     2    2    3 2   
     3    2    4 1   
     4    2    7 1   
     5    4    5 1   
     6    4    6 1   
     7    4   25 1   
     8    5   26 1   
     9    5   27 1   
    10    5   28 1   
    11    6   29 1   
    12    6   30 1   
    13    6   31 1   
    14    7    8 1   
    15    7   32 1   
    16    8    9 1   
    17    8   33 1   
    18    8   34 1   
    19    9   10 1   
    20    9   11 1   
    21    9   35 1   
    22   10   36 1   
    23   10   37 1   
    24   10   38 1   
    25   11   12 ar  
    26   11   13 ar  
    27   12   16 ar  
    28   12   39 1   
    29   13   14 ar  
    30   13   40 1   
    31   14   15 ar  
    32   14   41 1   
    33   15   16 ar  
    34   15   17 1   
    35   16   42 1   
    36   17   18 ar  
    37   17   19 ar  
    38   18   22 ar  
    39   18   43 1   
    40   19   20 ar  
    41   19   44 1   
    42   20   21 ar  
    43   20   45 1   
    44   21   22 ar  
    45   21   23 1   
    46   22   46 1   
    47   23   24 3   
@<TRIPOS>SUBSTRUCTURE
     1 1YV         1 TEMP              0 ****  ****    0 ROOT
