@<TRIPOS>MOLECULE
1YV
   47    48     1     0     0
SMALL
bcc


@<TRIPOS>ATOM
      1 O23         0.1030   -0.6870   -1.2580 o         1 1YV     -0.549800
      2 S24         1.0430   -0.4200   -0.2840 s6        1 1YV      1.354900
      3 O22         0.6820   -0.2510    1.0400 o         1 1YV     -0.549800
      4 C18         2.5020   -1.2460   -0.4730 c3        1 1YV     -0.319900
      5 C2          3.0190   -1.2540   -1.8970 c3        1 1YV     -0.099600
      6 C1          2.2750   -2.6800   -0.0060 c3        1 1YV     -0.099600
      7 N21         1.6360    1.3150   -0.6930 n4        1 1YV     -0.714900
      8 C12         1.1110    1.8240   -1.9850 c3        1 1YV      0.101800
      9 C19         1.4880    3.2850   -2.2790 c3        1 1YV     -0.021400
     10 C3          0.9210    4.2250   -1.2350 c3        1 1YV     -0.115100
     11 C17         0.9930    3.6180   -3.6500 ca        1 1YV     -0.126300
     12 C10         1.9090    3.8810   -4.6750 ca        1 1YV     -0.115500
     13 C11        -0.3790    3.6860   -3.9220 ca        1 1YV     -0.115500
     14 C9         -0.8280    4.0070   -5.1990 ca        1 1YV     -0.111000
     15 C16         0.0870    4.2710   -6.2300 cp        1 1YV     -0.004000
     16 C8          1.4600    4.2070   -5.9530 ca        1 1YV     -0.111000
     17 C15        -0.3840    4.6120   -7.5710 cp        1 1YV     -0.044000
     18 C6          0.2570    5.6140   -8.3130 ca        1 1YV     -0.118000
     19 C7         -1.4820    3.9410   -8.1270 ca        1 1YV     -0.118000
     20 C5         -1.9320    4.2610   -9.4050 ca        1 1YV     -0.089500
     21 C14        -1.2870    5.2650  -10.1420 ca        1 1YV      0.006000
     22 C4         -0.1910    5.9420   -9.5900 ca        1 1YV     -0.089500
     23 C13        -1.7440    5.5950  -11.4470 cg        1 1YV      0.217800
     24 N20        -2.1180    5.8640  -12.5140 n1        1 1YV     -0.331800
     25 H1          3.3240   -0.8350    0.1860 h1        1 1YV      0.148700
     26 H2          3.4260   -0.2560   -2.1880 hc        1 1YV      0.080367
     27 H3          3.8490   -2.0000   -1.9990 hc        1 1YV      0.080367
     28 H4          2.2080   -1.5500   -2.6110 hc        1 1YV      0.080367
     29 H5          1.5580   -3.2080   -0.6830 hc        1 1YV      0.080367
     30 H6          1.8940   -2.6980    1.0460 hc        1 1YV      0.080367
     31 H7          3.2430   -3.2420   -0.0300 hc        1 1YV      0.080367
     32 H8          2.6540    1.3770   -0.7160 hn        1 1YV      0.454300
     33 H9         -0.0140    1.7260   -1.9680 hx        1 1YV      0.111700
     34 H10         1.5150    1.1610   -2.8050 hx        1 1YV      0.111700
     35 H11         2.6140    3.3780   -2.2680 hc        1 1YV      0.065700
     36 H12         1.4540    4.1170   -0.2600 hc        1 1YV      0.056367
     37 H13        -0.1700    4.0430   -1.0770 hc        1 1YV      0.056367
     38 H14         1.0460    5.2840   -1.5760 hc        1 1YV      0.056367
     39 H15         2.9910    3.8430   -4.4760 ha        1 1YV      0.133000
     40 H16        -1.1110    3.4980   -3.1220 ha        1 1YV      0.133000
     41 H17        -1.9100    4.0670   -5.4010 ha        1 1YV      0.153000
     42 H18         2.1890    4.4120   -6.7530 ha        1 1YV      0.153000
     43 H19         1.1140    6.1540   -7.8810 ha        1 1YV      0.141500
     44 H20        -1.9900    3.1490   -7.5550 ha        1 1YV      0.141500
     45 H21        -2.7930    3.7280   -9.8380 ha        1 1YV      0.155500
     46 H22         0.3150    6.7340  -10.1650 ha        1 1YV      0.155500
     47 H212        1.3270    1.9550    0.0480 hn        1 1YV      0.454300
@<TRIPOS>BOND
     1    1    2 2   
     2    2    3 2   
     3    2    4 1   
     4    2    7 1   
     5    4    5 1   
     6    4    6 1   
     7    4   25 1   
     8    5   26 1   
     9    5   27 1   
    10    5   28 1   
    11    6   29 1   
    12    6   30 1   
    13    6   31 1   
    14    7    8 1   
    15    7   32 1   
    16    7   47 1   
    17    8    9 1   
    18    8   33 1   
    19    8   34 1   
    20    9   10 1   
    21    9   11 1   
    22    9   35 1   
    23   10   36 1   
    24   10   37 1   
    25   10   38 1   
    26   11   12 ar  
    27   11   13 ar  
    28   12   16 ar  
    29   12   39 1   
    30   13   14 ar  
    31   13   40 1   
    32   14   15 ar  
    33   14   41 1   
    34   15   16 ar  
    35   15   17 1   
    36   16   42 1   
    37   17   18 ar  
    38   17   19 ar  
    39   18   22 ar  
    40   18   43 1   
    41   19   20 ar  
    42   19   44 1   
    43   20   21 ar  
    44   20   45 1   
    45   21   22 ar  
    46   21   23 1   
    47   22   46 1   
    48   23   24 3   
@<TRIPOS>SUBSTRUCTURE
     1 1YV         1 TEMP              0 ****  ****    0 ROOT
