@<TRIPOS>MOLECULE
1YV
   46    40     1     0     0
SMALL
bcc


@<TRIPOS>ATOM
      1 O23        -2.2530   -3.7080    2.3890 o         1 1YV     -0.929000
      2 S24        -1.3180   -3.0020    3.2380 ss        1 1YV      2.797000
      3 O22        -2.2160   -2.1990    4.0390 o         1 1YV     -0.929000
      4 C18        -0.3910   -4.1280    4.2480 c2        1 1YV     -0.771000
      5 C2         -0.1950   -3.5220    5.6340 c3        1 1YV     -0.195000
      6 C1         -1.1460   -5.4300    4.3690 c3        1 1YV     -0.195000
      7 N21        -0.2900   -2.0460    2.3400 n2        1 1YV     -0.895000
      8 C12        -0.8150   -1.2430    1.2460 c3        1 1YV     -0.012000
      9 C19        -0.2520    0.1630    1.3370 c3        1 1YV     -0.081000
     10 C3         -1.2890    1.0840    1.9720 c3        1 1YV     -0.211000
     11 C17         0.0830    0.6580   -0.0400 c1        1 1YV     -0.067000
     12 C10         1.3430    1.1850   -0.2940 c1        1 1YV     -0.126000
     13 C11        -0.9360    0.7680   -1.0130 c1        1 1YV     -0.124000
     14 C9         -0.6780    1.4010   -2.2220 c1        1 1YV     -0.112000
     15 C16         0.5880    1.9310   -2.4780 c1        1 1YV     -0.048000
     16 C8          1.6020    1.8230   -1.5120 c2        1 1YV     -0.113000
     17 C15         0.8620    2.6630   -3.8040 c1        1 1YV     -0.012500
     18 C6          1.3840    1.9640   -4.8870 c2        1 1YV     -0.108000
     19 C7          0.6870    4.0500   -3.8850 c1        1 1YV     -0.108000
     20 C5          1.0340    4.7270   -5.0450 c1        1 1YV     -0.108000
     21 C14         1.5610    4.0210   -6.1390 c1        1 1YV     -0.012500
     22 C4          1.7350    2.6470   -6.0590 c2        1 1YV     -0.108000
     23 C13         2.0080    4.7830   -7.4130 c1        1 1YV     -0.097000
     24 N20         2.3380    5.3430   -8.3510 n1        1 1YV     -0.036000
     25 H1          0.4730   -4.2920    3.8410 ha        1 1YV      0.144000
     26 H2         -1.0590   -3.2630    6.0000 hc        1 1YV      0.090833
     27 H3          0.2240   -4.1820    6.2240 hc        1 1YV      0.090833
     28 H4          0.3790   -2.7340    5.5670 hc        1 1YV      0.090833
     29 H5         -1.2500   -5.8350    3.4730 hc        1 1YV      0.090833
     30 H6         -2.0290   -5.2600    4.7550 hc        1 1YV      0.090833
     31 H7         -0.6470   -6.0450    4.9500 hc        1 1YV      0.090833
     32 H8          0.6050   -2.0110    2.5490 hn        1 1YV      0.245000
     33 H9         -1.7820   -1.2080    1.3050 h1        1 1YV      0.096500
     34 H10        -0.5510   -1.6490    0.3830 h1        1 1YV      0.096500
     35 H11         0.5560    0.1560    1.8870 hc        1 1YV      0.093000
     36 H12        -1.3410    0.9040    2.9310 hc        1 1YV      0.083667
     37 H13        -2.1550    0.9240    1.5660 hc        1 1YV      0.083667
     38 H14        -1.0260    2.0260    1.8270 hc        1 1YV      0.083667
     39 H15         2.0560    1.1090    0.3840 ha        1 1YV      0.134000
     40 H16        -1.8320    0.3930   -0.8330 ha        1 1YV      0.142000
     41 H17        -1.3950    1.4780   -2.9050 ha        1 1YV      0.139000
     42 H18         2.4800    2.1900   -1.6900 ha        1 1YV      0.137000
     43 H19         1.5070    0.9960   -4.8310 ha        1 1YV      0.144500
     44 H20         0.3230    4.5390   -3.1280 ha        1 1YV      0.144500
     45 H21         0.9140    5.6800   -5.1000 ha        1 1YV      0.144500
     46 H22         2.1040    2.1530   -6.8260 ha        1 1YV      0.144500
@<TRIPOS>BOND
     1    1    2 1   
     2    2    3 1   
     3    4    5 1   
     4    4    6 1   
     5    4   25 1   
     6    5   26 1   
     7    5   27 1   
     8    5   28 1   
     9    6   29 1   
    10    6   30 1   
    11    6   31 1   
    12    7    8 1   
    13    7   32 1   
    14    8    9 1   
    15    8   33 1   
    16    8   34 1   
    17    9   10 1   
    18    9   11 1   
    19    9   35 1   
    20   10   36 1   
    21   10   37 1   
    22   10   38 1   
    23   11   13 1   
    24   12   16 1   
    25   12   39 1   
    26   13   40 1   
    27   14   15 1   
    28   14   41 1   
    29   15   16 1   
    30   16   42 1   
    31   17   18 1   
    32   17   19 1   
    33   18   22 1   
    34   18   43 1   
    35   19   44 1   
    36   20   21 1   
    37   20   45 1   
    38   21   22 1   
    39   22   46 1   
    40   23   24 1   
@<TRIPOS>SUBSTRUCTURE
     1 1YV         1 TEMP              0 ****  ****    0 ROOT
