@<TRIPOS>MOLECULE
1YW
   43    45     1     0     0
SMALL
bcc


@<TRIPOS>ATOM
      1 O21         0.5990    0.3320    0.5470 o         1 1YW     -0.394100
      2 C22         1.1700   -0.4190   -0.2250 c         1 1YW      0.555100
      3 C20         1.0700   -1.8990   -0.3440 c3        1 1YW     -0.187100
      4 N19         2.1350    0.2550   -1.1870 n4        1 1YW     -0.684800
      5 C18         1.4410    0.6940   -2.4350 c3        1 1YW      0.098800
      6 C17         2.4320    1.1990   -3.4870 c3        1 1YW      0.060100
      7 O8          3.5140    0.2010   -3.5940 os        1 1YW     -0.187300
      8 C9          1.8230    1.2430   -4.8970 c3        1 1YW     -0.168700
      9 C6          2.6570    0.1730   -5.6050 ce        1 1YW      0.397900
     10 N10         3.5620   -0.3510   -4.7950 n2        1 1YW     -0.363200
     11 C4          2.4310   -0.1730   -6.9980 ca        1 1YW     -0.137900
     12 C2          3.2270   -1.1300   -7.6420 ca        1 1YW     -0.094000
     13 C5          1.4080    0.4620   -7.7120 ca        1 1YW     -0.146000
     14 C3          1.1820    0.1400   -9.0580 ca        1 1YW      0.096900
     15 F7          0.1830    0.7780   -9.7140 f         1 1YW     -0.128900
     16 C11         1.9830   -0.8370   -9.7250 ca        1 1YW      0.116600
     17 C1          3.0050   -1.4530   -8.9770 ca        1 1YW     -0.094000
     18 N15         1.8180   -1.2240  -11.0850 nh        1 1YW     -0.629000
     19 C13         2.1280   -0.1800  -12.0690 c3        1 1YW      0.167300
     20 C14         0.5190   -1.8220  -11.4130 c3        1 1YW      0.167300
     21 C16         0.0630   -1.2880  -12.7790 c3        1 1YW     -0.089400
     22 C12         1.0930   -0.2490  -13.2010 c3        1 1YW     -0.089400
     23 H1          0.2070   -2.2500    0.2850 hc        1 1YW      0.118033
     24 H2          0.9020   -2.2190   -1.4030 hc        1 1YW      0.118033
     25 H3          2.0080   -2.3800    0.0400 hc        1 1YW      0.118033
     26 H4          2.5580    1.0760   -0.7360 hn        1 1YW      0.470300
     27 H5          0.8740   -0.1940   -2.8400 hx        1 1YW      0.114700
     28 H6          0.7120    1.5120   -2.1720 hx        1 1YW      0.114700
     29 H7          2.9170    2.1600   -3.1800 h1        1 1YW      0.109700
     30 H8          0.7370    0.9890   -4.9130 hc        1 1YW      0.101200
     31 H9          1.9720    2.2430   -5.3750 hc        1 1YW      0.101200
     32 H10         4.0420   -1.6360   -7.1000 ha        1 1YW      0.159000
     33 H11         0.7710    1.2250   -7.2390 ha        1 1YW      0.142000
     34 H12         3.6470   -2.2090   -9.4620 ha        1 1YW      0.170000
     35 H13         3.1610   -0.3930  -12.4570 h1        1 1YW      0.049950
     36 H14         2.1300    0.8460  -11.6080 h1        1 1YW      0.049950
     37 H15         0.6730   -2.9350  -11.4500 h1        1 1YW      0.049950
     38 H16        -0.2590   -1.6010  -10.6310 h1        1 1YW      0.049950
     39 H17        -0.9560   -0.8360  -12.6990 hc        1 1YW      0.056950
     40 H18         0.0090   -2.1220  -13.5220 hc        1 1YW      0.056950
     41 H19         1.5880   -0.5420  -14.1590 hc        1 1YW      0.056950
     42 H20         0.6180    0.7510  -13.3540 hc        1 1YW      0.056950
     43 H192        2.8890   -0.3970   -1.4480 hn        1 1YW      0.470300
@<TRIPOS>BOND
     1    1    2 2   
     2    2    3 1   
     3    2    4 1   
     4    3   23 1   
     5    3   24 1   
     6    3   25 1   
     7    4    5 1   
     8    4   26 1   
     9    4   43 1   
    10    5    6 1   
    11    5   27 1   
    12    5   28 1   
    13    6    7 1   
    14    6    8 1   
    15    6   29 1   
    16    7   10 1   
    17    8    9 1   
    18    8   30 1   
    19    8   31 1   
    20    9   10 2   
    21    9   11 1   
    22   11   12 ar  
    23   11   13 ar  
    24   12   17 ar  
    25   12   32 1   
    26   13   14 ar  
    27   13   33 1   
    28   14   15 1   
    29   14   16 ar  
    30   16   17 ar  
    31   16   18 1   
    32   17   34 1   
    33   18   19 1   
    34   18   20 1   
    35   19   22 1   
    36   19   35 1   
    37   19   36 1   
    38   20   21 1   
    39   20   37 1   
    40   20   38 1   
    41   21   22 1   
    42   21   39 1   
    43   21   40 1   
    44   22   41 1   
    45   22   42 1   
@<TRIPOS>SUBSTRUCTURE
     1 1YW         1 TEMP              0 ****  ****    0 ROOT
