@<TRIPOS>MOLECULE
1YW
   43    45     1     0     0
SMALL
bcc


@<TRIPOS>ATOM
      1 O21         0.6180    0.3870    0.5440 o         1 1YW     -0.394100
      2 C22         1.1700   -0.3810   -0.2250 c         1 1YW      0.555100
      3 C20         1.0330   -1.8580   -0.3380 c3        1 1YW     -0.187100
      4 N19         2.1500    0.2660   -1.1900 ny        1 1YW     -0.684800
      5 C18         1.4670    0.7170   -2.4400 c3        1 1YW      0.098800
      6 C17         2.4690    1.1940   -3.4930 c3        1 1YW      0.060100
      7 O8          3.5270    0.1700   -3.5960 os        1 1YW     -0.187300
      8 C9          1.8620    1.2460   -4.9030 c3        1 1YW     -0.168700
      9 C6          2.6690    0.1540   -5.6070 ce        1 1YW      0.397900
     10 N10         3.5620   -0.3880   -4.7950 n2        1 1YW     -0.363200
     11 C4          2.4360   -0.1920   -6.9990 ca        1 1YW     -0.137900
     12 C2          3.2100   -1.1690   -7.6400 ca        1 1YW     -0.094000
     13 C5          1.4260    0.4630   -7.7150 ca        1 1YW     -0.146000
     14 C3          1.1920    0.1410   -9.0590 ca        1 1YW      0.096900
     15 F7          0.2080    0.7980   -9.7180 f         1 1YW     -0.128900
     16 C11         1.9710   -0.8560   -9.7230 ca        1 1YW      0.116600
     17 C1          2.9800   -1.4920   -8.9740 ca        1 1YW     -0.094000
     18 N15         1.7980   -1.2450  -11.0810 nh        1 1YW     -0.629000
     19 C13         2.1280   -0.2100  -12.0690 c3        1 1YW      0.167300
     20 C14         0.4860   -1.8170  -11.4060 c3        1 1YW      0.167300
     21 C16         0.0400   -1.2800  -12.7740 c3        1 1YW     -0.089400
     22 C12         1.0900   -0.2620  -13.2000 c3        1 1YW     -0.089400
     23 H1          1.9590   -2.3610    0.0470 hc        1 1YW      0.118033
     24 H2          0.8580   -2.1780   -1.3970 hc        1 1YW      0.118033
     25 H3          0.1630   -2.1860    0.2910 hc        1 1YW      0.118033
     26 H4          2.5940    1.0780   -0.7420 hn        1 1YW      0.470300
     27 H5          0.7580    1.5540   -2.1790 hx        1 1YW      0.114700
     28 H6          0.8780   -0.1580   -2.8410 hx        1 1YW      0.114700
     29 H7          2.9780    2.1440   -3.1910 h1        1 1YW      0.109700
     30 H8          0.7690    1.0180   -4.9180 hc        1 1YW      0.101200
     31 H9          2.0340    2.2400   -5.3860 hc        1 1YW      0.101200
     32 H10         4.0140   -1.6900   -7.0960 ha        1 1YW      0.159000
     33 H11         0.8070    1.2410   -7.2440 ha        1 1YW      0.142000
     34 H12         3.6050   -2.2640   -9.4560 ha        1 1YW      0.170000
     35 H13         3.1560   -0.4450  -12.4580 h1        1 1YW      0.049950
     36 H14         2.1510    0.8180  -11.6120 h1        1 1YW      0.049950
     37 H15         0.6170   -2.9330  -11.4390 h1        1 1YW      0.049950
     38 H16        -0.2870   -1.5770  -10.6250 h1        1 1YW      0.049950
     39 H17        -0.0310   -2.1150  -13.5140 hc        1 1YW      0.056950
     40 H18        -0.9700   -0.8070  -12.6950 hc        1 1YW      0.056950
     41 H19         1.5780   -0.5690  -14.1580 hc        1 1YW      0.056950
     42 H20         0.6350    0.7460  -13.3560 hc        1 1YW      0.056950
     43 H192        2.8890   -0.4050   -1.4490 hn        1 1YW      0.470300
@<TRIPOS>BOND
     1    1    2 2   
     2    2    3 1   
     3    2    4 1   
     4    3   23 1   
     5    3   24 1   
     6    3   25 1   
     7    4    5 1   
     8    4   26 1   
     9    4   43 1   
    10    5    6 1   
    11    5   27 1   
    12    5   28 1   
    13    6    7 1   
    14    6    8 1   
    15    6   29 1   
    16    7   10 1   
    17    8    9 1   
    18    8   30 1   
    19    8   31 1   
    20    9   10 2   
    21    9   11 1   
    22   11   12 ar  
    23   11   13 ar  
    24   12   17 ar  
    25   12   32 1   
    26   13   14 ar  
    27   13   33 1   
    28   14   15 1   
    29   14   16 ar  
    30   16   17 ar  
    31   16   18 1   
    32   17   34 1   
    33   18   19 1   
    34   18   20 1   
    35   19   22 1   
    36   19   35 1   
    37   19   36 1   
    38   20   21 1   
    39   20   37 1   
    40   20   38 1   
    41   21   22 1   
    42   21   39 1   
    43   21   40 1   
    44   22   41 1   
    45   22   42 1   
@<TRIPOS>SUBSTRUCTURE
     1 1YW         1 TEMP              0 ****  ****    0 ROOT
