@<TRIPOS>MOLECULE
1YW
   43    45     1     0     0
SMALL
bcc


@<TRIPOS>ATOM
      1 O21         0.6190    0.3870    0.5440 o         1 1YW     -0.394100
      2 C22         1.1660   -0.3840   -0.2260 c         1 1YW      0.555100
      3 C20         1.0200   -1.8600   -0.3410 c3        1 1YW     -0.187100
      4 N19         2.1510    0.2580   -1.1900 n4        1 1YW     -0.684800
      5 C18         1.4700    0.7150   -2.4390 c3        1 1YW      0.098800
      6 C17         2.4760    1.1870   -3.4920 c3        1 1YW      0.060100
      7 O8          3.5270    0.1560   -3.5960 os        1 1YW     -0.187300
      8 C9          1.8690    1.2440   -4.9020 c3        1 1YW     -0.168700
      9 C6          2.6700    0.1480   -5.6080 ce        1 1YW      0.397900
     10 N10         3.5590   -0.4000   -4.7950 n2        1 1YW     -0.363200
     11 C4          2.4340   -0.1950   -7.0000 ca        1 1YW     -0.137900
     12 C2          3.2030   -1.1740   -7.6420 ca        1 1YW     -0.094000
     13 C5          1.4280    0.4670   -7.7140 ca        1 1YW     -0.146000
     14 C3          1.1930    0.1480   -9.0590 ca        1 1YW      0.096900
     15 F7          0.2120    0.8110   -9.7170 f         1 1YW     -0.128900
     16 C11         1.9670   -0.8510   -9.7250 ca        1 1YW      0.116600
     17 C1          2.9720   -1.4940   -8.9760 ca        1 1YW     -0.094000
     18 N15         1.7910   -1.2370  -11.0840 nh        1 1YW     -0.629000
     19 C13         2.1250   -0.2020  -12.0700 c3        1 1YW      0.167300
     20 C14         0.4770   -1.8040  -11.4090 c3        1 1YW      0.167300
     21 C16         0.0320   -1.2620  -12.7760 c3        1 1YW     -0.089400
     22 C12         1.0870   -0.2480  -13.2010 c3        1 1YW     -0.089400
     23 H1          0.8420   -2.1780   -1.4000 hc        1 1YW      0.118033
     24 H2          1.9420   -2.3690    0.0440 hc        1 1YW      0.118033
     25 H3          0.1470   -2.1830    0.2880 hc        1 1YW      0.118033
     26 H4          2.5990    1.0660   -0.7410 hn        1 1YW      0.470300
     27 H5          0.8760   -0.1560   -2.8420 hx        1 1YW      0.114700
     28 H6          0.7670    1.5560   -2.1780 hx        1 1YW      0.114700
     29 H7          2.9900    2.1330   -3.1890 h1        1 1YW      0.109700
     30 H8          0.7750    1.0240   -4.9180 hc        1 1YW      0.101200
     31 H9          2.0470    2.2380   -5.3840 hc        1 1YW      0.101200
     32 H10         4.0050   -1.7010   -7.0990 ha        1 1YW      0.159000
     33 H11         0.8130    1.2480   -7.2430 ha        1 1YW      0.142000
     34 H12         3.5930   -2.2680   -9.4600 ha        1 1YW      0.170000
     35 H13         3.1520   -0.4410  -12.4590 h1        1 1YW      0.049950
     36 H14         2.1520    0.8250  -11.6110 h1        1 1YW      0.049950
     37 H15         0.6030   -2.9200  -11.4440 h1        1 1YW      0.049950
     38 H16        -0.2940   -1.5610  -10.6270 h1        1 1YW      0.049950
     39 H17        -0.9750   -0.7860  -12.6960 hc        1 1YW      0.056950
     40 H18        -0.0410   -2.0960  -13.5170 hc        1 1YW      0.056950
     41 H19         0.6350    0.7620  -13.3540 hc        1 1YW      0.056950
     42 H20         1.5730   -0.5550  -14.1590 hc        1 1YW      0.056950
     43 H192        2.8850   -0.4180   -1.4500 hn        1 1YW      0.470300
@<TRIPOS>BOND
     1    1    2 2   
     2    2    3 1   
     3    2    4 1   
     4    3   23 1   
     5    3   24 1   
     6    3   25 1   
     7    4    5 1   
     8    4   26 1   
     9    4   43 1   
    10    5    6 1   
    11    5   27 1   
    12    5   28 1   
    13    6    7 1   
    14    6    8 1   
    15    6   29 1   
    16    7   10 1   
    17    8    9 1   
    18    8   30 1   
    19    8   31 1   
    20    9   10 2   
    21    9   11 1   
    22   11   12 ar  
    23   11   13 ar  
    24   12   17 ar  
    25   12   32 1   
    26   13   14 ar  
    27   13   33 1   
    28   14   15 1   
    29   14   16 ar  
    30   16   17 ar  
    31   16   18 1   
    32   17   34 1   
    33   18   19 1   
    34   18   20 1   
    35   19   22 1   
    36   19   35 1   
    37   19   36 1   
    38   20   21 1   
    39   20   37 1   
    40   20   38 1   
    41   21   22 1   
    42   21   39 1   
    43   21   40 1   
    44   22   41 1   
    45   22   42 1   
@<TRIPOS>SUBSTRUCTURE
     1 1YW         1 TEMP              0 ****  ****    0 ROOT
