@<TRIPOS>MOLECULE
1YW
   42    44     1     0     0
SMALL
bcc


@<TRIPOS>ATOM
      1 O21         6.5780   -1.7760    0.4580 o         1 1YW     -0.608100
      2 C22         6.6150   -0.5840    0.0960 c         1 1YW      0.652100
      3 C20         7.8880    0.2230    0.1520 c3        1 1YW     -0.174100
      4 N19         5.4920    0.0400   -0.4300 n         1 1YW     -0.560900
      5 C18         4.2010   -0.5810   -0.4110 c3        1 1YW      0.082000
      6 C17         3.2870   -0.1130    0.7240 c3        1 1YW      0.060100
      7 O8          3.0800    1.3550    0.5850 os        1 1YW     -0.157300
      8 C9          1.8680   -0.6920    0.6250 c3        1 1YW     -0.163700
      9 C6          1.0470    0.5780    0.4250 ce        1 1YW      0.327900
     10 N10         1.8170    1.6560    0.4150 n2        1 1YW     -0.348200
     11 C4         -0.3990    0.5480    0.2690 ca        1 1YW     -0.088900
     12 C2         -1.1330    1.7270    0.0790 ca        1 1YW     -0.113000
     13 C5         -1.0720   -0.6770    0.3070 ca        1 1YW     -0.152000
     14 C3         -2.4670   -0.7220    0.1580 ca        1 1YW      0.092900
     15 F7         -3.0830   -1.9300    0.2020 f         1 1YW     -0.140900
     16 C11        -3.2230    0.4700   -0.0350 ca        1 1YW      0.077600
     17 C1         -2.5150    1.6870   -0.0690 ca        1 1YW     -0.092000
     18 N15        -4.6400    0.5110   -0.1960 nh        1 1YW     -0.621000
     19 C13        -5.4060    0.0520    0.9690 c3        1 1YW      0.166800
     20 C14        -5.1450   -0.1690   -1.3940 c3        1 1YW      0.166800
     21 C16        -6.4310   -0.9260   -1.0280 c3        1 1YW     -0.089400
     22 C12        -6.5970   -0.7850    0.4800 c3        1 1YW     -0.089400
     23 H1          8.1830    0.5590   -0.8710 hc        1 1YW      0.068033
     24 H2          7.7560    1.1180    0.8060 hc        1 1YW      0.068033
     25 H3          8.7010   -0.4180    0.5720 hc        1 1YW      0.068033
     26 H4          5.5010    1.0290   -0.5250 hn        1 1YW      0.315500
     27 H5          3.6940   -0.3530   -1.3930 h1        1 1YW      0.075700
     28 H6          4.3270   -1.6980   -0.3150 h1        1 1YW      0.075700
     29 H7          3.7500   -0.2540    1.7310 h1        1 1YW      0.090700
     30 H8          1.7530   -1.3880   -0.2410 hc        1 1YW      0.079700
     31 H9          1.5700   -1.2220    1.5610 hc        1 1YW      0.079700
     32 H10        -0.6190    2.7010    0.0470 ha        1 1YW      0.157000
     33 H11        -0.5240   -1.6190    0.4560 ha        1 1YW      0.148000
     34 H12        -3.0680    2.6300   -0.2170 ha        1 1YW      0.156000
     35 H13        -4.7750   -0.5520    1.6790 h1        1 1YW      0.047950
     36 H14        -5.7590    0.9710    1.5110 h1        1 1YW      0.047950
     37 H15        -5.3550    0.6280   -2.1580 h1        1 1YW      0.047950
     38 H16        -4.3890   -0.8800   -1.8280 h1        1 1YW      0.047950
     39 H17        -7.3050   -0.4890   -1.5690 hc        1 1YW      0.050200
     40 H18        -6.3460   -2.0000   -1.3250 hc        1 1YW      0.050200
     41 H19        -6.6010   -1.7840    0.9800 hc        1 1YW      0.050200
     42 H20        -7.5590   -0.2730    0.7300 hc        1 1YW      0.050200
@<TRIPOS>BOND
     1    1    2 2   
     2    2    3 1   
     3    2    4 1   
     4    3   23 1   
     5    3   24 1   
     6    3   25 1   
     7    4    5 1   
     8    4   26 1   
     9    5    6 1   
    10    5   27 1   
    11    5   28 1   
    12    6    7 1   
    13    6    8 1   
    14    6   29 1   
    15    7   10 1   
    16    8    9 1   
    17    8   30 1   
    18    8   31 1   
    19    9   10 2   
    20    9   11 1   
    21   11   12 ar  
    22   11   13 ar  
    23   12   17 ar  
    24   12   32 1   
    25   13   14 ar  
    26   13   33 1   
    27   14   15 1   
    28   14   16 ar  
    29   16   17 ar  
    30   16   18 1   
    31   17   34 1   
    32   18   19 1   
    33   18   20 1   
    34   19   22 1   
    35   19   35 1   
    36   19   36 1   
    37   20   21 1   
    38   20   37 1   
    39   20   38 1   
    40   21   22 1   
    41   21   39 1   
    42   21   40 1   
    43   22   41 1   
    44   22   42 1   
@<TRIPOS>SUBSTRUCTURE
     1 1YW         1 TEMP              0 ****  ****    0 ROOT
