@<TRIPOS>MOLECULE
1YW
   42    41     1     0     0
SMALL
bcc


@<TRIPOS>ATOM
      1 O21        -2.4850    1.9790    5.8620 o         1 1YW     -0.370000
      2 C22        -1.8780    1.0530    6.3580 c1        1 1YW      0.295000
      3 C20        -2.0840    0.7080    7.8390 c3        1 1YW     -0.242000
      4 N19        -1.0470    0.2140    5.5330 n2        1 1YW     -0.368000
      5 C18        -0.2650    0.7970    4.4630 c3        1 1YW     -0.035000
      6 C17        -0.5480    0.1420    3.2730 c3        1 1YW     -0.051000
      7 O8         -1.8970    0.7320    2.6080 os        1 1YW     -0.188000
      8 C9          0.5120    0.4090    2.2640 c3        1 1YW     -0.168000
      9 C6         -0.3280    0.7720    1.1160 c2        1 1YW     -0.102000
     10 N10        -1.6390    0.7690    1.3860 n2        1 1YW      0.023000
     11 C4          0.1660    0.4890   -0.3260 c2        1 1YW     -0.058000
     12 C2         -0.2880   -0.6370   -1.0080 c2        1 1YW     -0.067000
     13 C5          0.9640    1.4230   -0.9820 c1        1 1YW     -0.111000
     14 C3          1.3070    1.2300   -2.3200 c1        1 1YW      0.019000
     15 F7          2.0320    2.1510   -2.9620 f         1 1YW     -0.112000
     16 C11         0.8500    0.1010   -3.0020 c1        1 1YW      0.082000
     17 C1          0.0560   -0.8290   -2.3500 c2        1 1YW     -0.189000
     18 N15         1.2060   -0.0970   -4.4060 n2        1 1YW     -0.244000
     19 C13        -0.1150   -0.3980   -5.2570 c3        1 1YW     -0.047500
     20 C14         1.9590   -1.1530   -4.5200 c3        1 1YW     -0.047500
     21 C16         1.5600   -1.7980   -5.9010 c3        1 1YW     -0.167500
     22 C12         0.2810   -1.0800   -6.3340 c3        1 1YW     -0.167500
     23 H1         -1.2390    0.8120    8.3180 hc        1 1YW      0.106667
     24 H2         -2.3940   -0.2190    7.9190 hc        1 1YW      0.106667
     25 H3         -2.7540    1.3110    8.2250 hc        1 1YW      0.106667
     26 H4         -1.0530   -0.6940    5.6530 hn        1 1YW      0.229000
     27 H5         -0.4900    1.7460    4.3740 h1        1 1YW      0.114500
     28 H6          0.6900    0.7050    4.6680 h1        1 1YW      0.114500
     29 H7         -0.6370   -0.8150    3.4250 h1        1 1YW      0.128000
     30 H8          1.2240    1.0650    2.4280 hc        1 1YW      0.117500
     31 H9          1.0280   -0.4170    2.1300 hc        1 1YW      0.117500
     32 H10        -0.8490   -1.2940   -0.5480 ha        1 1YW      0.154000
     33 H11         1.2810    2.2140   -0.5050 ha        1 1YW      0.146000
     34 H12        -0.2620   -1.6170   -2.8260 ha        1 1YW      0.142000
     35 H13        -0.5390    0.4410   -5.5280 h1        1 1YW      0.090750
     36 H14        -0.7370   -0.9350   -4.7310 h1        1 1YW      0.090750
     37 H15         2.9110   -0.8960   -4.5250 h1        1 1YW      0.090750
     38 H16         1.7790   -1.7800   -3.7870 h1        1 1YW      0.090750
     39 H17         1.3900   -2.7530   -5.7910 hc        1 1YW      0.092750
     40 H18         2.2680   -1.6530   -6.5590 hc        1 1YW      0.092750
     41 H19        -0.4050   -1.7350   -6.5970 hc        1 1YW      0.092750
     42 H20         0.4710   -0.4650   -7.0780 hc        1 1YW      0.092750
@<TRIPOS>BOND
     1    1    2 1   
     2    2    3 1   
     3    3   23 1   
     4    3   24 1   
     5    3   25 1   
     6    4    5 1   
     7    4   26 1   
     8    5    6 1   
     9    5   27 1   
    10    5   28 1   
    11    6    7 1   
    12    6    8 1   
    13    6   29 1   
    14    7   10 1   
    15    8    9 1   
    16    8   30 1   
    17    8   31 1   
    18    9   10 1   
    19    9   11 1   
    20   11   12 1   
    21   11   13 1   
    22   12   17 1   
    23   12   32 1   
    24   13   33 1   
    25   14   15 1   
    26   14   16 1   
    27   16   17 1   
    28   17   34 1   
    29   18   19 1   
    30   18   20 1   
    31   19   22 1   
    32   19   35 1   
    33   19   36 1   
    34   20   21 1   
    35   20   37 1   
    36   20   38 1   
    37   21   22 1   
    38   21   39 1   
    39   21   40 1   
    40   22   41 1   
    41   22   42 1   
@<TRIPOS>SUBSTRUCTURE
     1 1YW         1 TEMP              0 ****  ****    0 ROOT
