@<TRIPOS>MOLECULE
1YX
   58    60     1     0     0
SMALL
bcc


@<TRIPOS>ATOM
      1 C1          0.9360   -1.9980    0.3160 c3        1 1YX     -0.102600
      2 C2          0.8510   -0.4910    0.1770 c3        1 1YX     -0.322900
      3 C3          0.9490    0.1540    1.5570 c3        1 1YX     -0.102600
      4 S1          2.0690    0.1760   -0.7710 s6        1 1YX      1.358900
      5 O1          1.8500    1.4960   -1.1100 o         1 1YX     -0.549300
      6 O2          3.3370   -0.3050   -0.5220 o         1 1YX     -0.549300
      7 N1          1.6620   -0.7140   -2.3980 n4        1 1YX     -0.701900
      8 C4          2.2980   -0.0430   -3.5570 c3        1 1YX      0.092800
      9 C5          1.8990   -0.6580   -4.8980 c3        1 1YX      0.065100
     10 C6          2.2610    0.2240   -6.1040 c3        1 1YX     -0.164700
     11 C7          0.8750    0.5160   -6.6740 ce        1 1YX      0.358900
     12 N2         -0.0780   -0.0470   -5.9470 n2        1 1YX     -0.332200
     13 O3          0.4200   -0.7270   -4.9370 os        1 1YX     -0.172300
     14 C8          0.6810    1.3020   -7.8860 ca        1 1YX     -0.087900
     15 C9         -0.5880    1.4180   -8.4720 ca        1 1YX     -0.091000
     16 C10        -0.7560    2.1430   -9.6470 ca        1 1YX     -0.127000
     17 C11         0.3290    2.7780  -10.2800 ca        1 1YX      0.050600
     18 C12         1.6120    2.6720   -9.6700 ca        1 1YX      0.163900
     19 C13         1.7750    1.9340   -8.4840 ca        1 1YX     -0.147000
     20 F1          2.6960    3.2710  -10.2110 f         1 1YX     -0.116900
     21 N3          0.2080    3.5000  -11.5070 nh        1 1YX     -0.628000
     22 C14        -0.3350    2.7310  -12.6360 c3        1 1YX      0.147800
     23 C15        -1.1880    3.6840  -13.4920 c3        1 1YX     -0.115400
     24 C16        -1.0010    5.0780  -12.8610 c3        1 1YX      0.115500
     25 C17        -0.5450    4.7520  -11.4090 c3        1 1YX      0.143800
     26 N4          0.0410    5.8910  -13.5780 n4        1 1YX     -0.685800
     27 C18        -0.4840    6.4900  -14.8750 c         1 1YX      0.553100
     28 O4         -1.4420    7.2350  -14.7600 o         1 1YX     -0.393100
     29 C19         0.2510    6.0980  -16.1090 c3        1 1YX     -0.189100
     30 H1          1.9840   -2.3190    0.5410 hc        1 1YX      0.083200
     31 H2          0.5700   -2.5120   -0.6050 hc        1 1YX      0.083200
     32 H3          0.2900   -2.3400    1.1660 hc        1 1YX      0.083200
     33 H4         -0.1850   -0.2430   -0.2050 h1        1 1YX      0.155700
     34 H5          0.8880    1.2690    1.4790 hc        1 1YX      0.083200
     35 H6          0.0950   -0.1900    2.1950 hc        1 1YX      0.083200
     36 H7          1.8970   -0.1450    2.0690 hc        1 1YX      0.083200
     37 H8          1.9880   -1.6810   -2.3620 hn        1 1YX      0.459800
     38 H9          3.4190   -0.1140   -3.4420 hx        1 1YX      0.123200
     39 H10         1.9880    1.0450   -3.5320 hx        1 1YX      0.123200
     40 H11         2.2620   -1.7120   -5.0010 h1        1 1YX      0.108700
     41 H12         2.7860    1.1650   -5.8090 hc        1 1YX      0.100700
     42 H13         2.8910   -0.3310   -6.8420 hc        1 1YX      0.100700
     43 H14        -1.4640    0.9300   -8.0130 ha        1 1YX      0.172000
     44 H15        -1.7640    2.2100  -10.0880 ha        1 1YX      0.150000
     45 H16         2.7830    1.8640   -8.0460 ha        1 1YX      0.159000
     46 H17         0.5430    2.3400  -13.2200 h1        1 1YX      0.078700
     47 H18        -0.9530    1.8490  -12.3100 h1        1 1YX      0.078700
     48 H19        -0.8890    3.6360  -14.5680 hc        1 1YX      0.088700
     49 H20        -2.2730    3.4070  -13.4310 hc        1 1YX      0.088700
     50 H21        -1.9520    5.6820  -12.8630 hx        1 1YX      0.134700
     51 H22        -1.4700    4.6730  -10.7700 h1        1 1YX      0.082700
     52 H23         0.1200    5.5370  -10.9580 h1        1 1YX      0.082700
     53 H24         0.3340    6.6560  -12.9570 hn        1 1YX      0.463300
     54 H25         1.3210    6.4290  -16.0590 hc        1 1YX      0.118367
     55 H26         0.2140    4.9890  -16.2610 hc        1 1YX      0.118367
     56 H27        -0.2360    6.5990  -16.9890 hc        1 1YX      0.118367
     57 H121        0.6540   -0.7500   -2.5750 hn        1 1YX      0.459800
     58 H42         0.8560    5.2970  -13.7670 hn        1 1YX      0.463300
@<TRIPOS>BOND
     1    1    2 1   
     2    1   30 1   
     3    1   31 1   
     4    1   32 1   
     5    2    3 1   
     6    2    4 1   
     7    2   33 1   
     8    3   34 1   
     9    3   35 1   
    10    3   36 1   
    11    4    5 2   
    12    4    6 2   
    13    4    7 1   
    14    7    8 1   
    15    7   37 1   
    16    7   57 1   
    17    8    9 1   
    18    8   38 1   
    19    8   39 1   
    20    9   10 1   
    21    9   13 1   
    22    9   40 1   
    23   10   11 1   
    24   10   41 1   
    25   10   42 1   
    26   11   12 2   
    27   11   14 1   
    28   12   13 1   
    29   14   15 ar  
    30   14   19 ar  
    31   15   16 ar  
    32   15   43 1   
    33   16   17 ar  
    34   16   44 1   
    35   17   18 ar  
    36   17   21 1   
    37   18   19 ar  
    38   18   20 1   
    39   19   45 1   
    40   21   22 1   
    41   21   25 1   
    42   22   23 1   
    43   22   46 1   
    44   22   47 1   
    45   23   24 1   
    46   23   48 1   
    47   23   49 1   
    48   24   25 1   
    49   24   26 1   
    50   24   50 1   
    51   25   51 1   
    52   25   52 1   
    53   26   27 1   
    54   26   53 1   
    55   26   58 1   
    56   27   28 2   
    57   27   29 1   
    58   29   54 1   
    59   29   55 1   
    60   29   56 1   
@<TRIPOS>SUBSTRUCTURE
     1 1YX         1 TEMP              0 ****  ****    0 ROOT
