@<TRIPOS>MOLECULE
1YX
   58    60     1     0     0
SMALL
bcc


@<TRIPOS>ATOM
      1 C1          0.9270   -2.0040    0.3160 c3        1 1YX     -0.102600
      2 C2          0.8280   -0.4980    0.1800 c3        1 1YX     -0.322900
      3 C3          0.9160    0.1450    1.5610 c3        1 1YX     -0.102600
      4 S1          2.0420    0.1830   -0.7640 s6        1 1YX      1.358900
      5 O1          1.8100    1.5020   -1.1000 o         1 1YX     -0.549300
      6 O2          3.3140   -0.2850   -0.5120 o         1 1YX     -0.549300
      7 N1          1.6480   -0.7070   -2.3940 n4        1 1YX     -0.701900
      8 C4          2.2860   -0.0320   -3.5480 c3        1 1YX      0.092800
      9 C5          1.9000   -0.6480   -4.8910 c3        1 1YX      0.065100
     10 C6          2.2640    0.2370   -6.0950 c3        1 1YX     -0.164700
     11 C7          0.8780    0.5210   -6.6730 ce        1 1YX      0.358900
     12 N2         -0.0750   -0.0490   -5.9520 n2        1 1YX     -0.332200
     13 O3          0.4210   -0.7260   -4.9400 os        1 1YX     -0.172300
     14 C8          0.6870    1.3060   -7.8850 ca        1 1YX     -0.087900
     15 C9         -0.5800    1.4150   -8.4790 ca        1 1YX     -0.091000
     16 C10        -0.7450    2.1390   -9.6540 ca        1 1YX     -0.127000
     17 C11         0.3400    2.7800  -10.2810 ca        1 1YX      0.051600
     18 C12         1.6200    2.6820   -9.6650 ca        1 1YX      0.163900
     19 C13         1.7800    1.9440   -8.4770 ca        1 1YX     -0.147000
     20 F1          2.7040    3.2870  -10.1990 f         1 1YX     -0.116900
     21 N3          0.2220    3.5020  -11.5090 nh        1 1YX     -0.628000
     22 C14        -0.3110    2.7300  -12.6410 c3        1 1YX      0.147800
     23 C15        -1.1650    3.6790  -13.5020 c3        1 1YX     -0.115400
     24 C16        -0.9880    5.0740  -12.8700 c3        1 1YX      0.115500
     25 C17        -0.5380    4.7490  -11.4150 c3        1 1YX      0.143800
     26 N4          0.0540    5.8920  -13.5810 n4        1 1YX     -0.685800
     27 C18        -0.4670    6.4880  -14.8810 c         1 1YX      0.553100
     28 O4         -1.4300    7.2280  -14.7710 o         1 1YX     -0.393100
     29 C19         0.2770    6.1000  -16.1110 c3        1 1YX     -0.189100
     30 H1          0.5680   -2.5200   -0.6070 hc        1 1YX      0.083200
     31 H2          1.9790   -2.3150    0.5420 hc        1 1YX      0.083200
     32 H3          0.2840   -2.3540    1.1640 hc        1 1YX      0.083200
     33 H4         -0.2100   -0.2600   -0.2040 h1        1 1YX      0.155700
     34 H5          1.8660   -0.1460    2.0750 hc        1 1YX      0.083200
     35 H6          0.8440    1.2590    1.4860 hc        1 1YX      0.083200
     36 H7          0.0650   -0.2090    2.1960 hc        1 1YX      0.083200
     37 H8          1.9790   -1.6720   -2.3570 hn        1 1YX      0.459800
     38 H9          3.4070   -0.0960   -3.4260 hx        1 1YX      0.123200
     39 H10         1.9700    1.0550   -3.5240 hx        1 1YX      0.123200
     40 H11         2.2690   -1.7000   -4.9930 h1        1 1YX      0.108700
     41 H12         2.9010   -0.3130   -6.8300 hc        1 1YX      0.100700
     42 H13         2.7810    1.1810   -5.7970 hc        1 1YX      0.100700
     43 H14        -1.4560    0.9220   -8.0250 ha        1 1YX      0.172000
     44 H15        -1.7510    2.2010  -10.1010 ha        1 1YX      0.150000
     45 H16         2.7870    1.8800   -8.0340 ha        1 1YX      0.159000
     46 H17        -0.9260    1.8450  -12.3180 h1        1 1YX      0.078700
     47 H18         0.5720    2.3440  -13.2200 h1        1 1YX      0.078700
     48 H19        -0.8590    3.6330  -14.5760 hc        1 1YX      0.088700
     49 H20        -2.2480    3.3960  -13.4470 hc        1 1YX      0.088700
     50 H21        -1.9420    5.6730  -12.8770 hx        1 1YX      0.134700
     51 H22         0.1200    5.5380  -10.9610 h1        1 1YX      0.082700
     52 H23        -1.4660    4.6650  -10.7810 h1        1 1YX      0.082700
     53 H24         0.3390    6.6580  -12.9580 hn        1 1YX      0.463300
     54 H25         1.3450    6.4370  -16.0550 hc        1 1YX      0.118367
     55 H26        -0.2080    6.5990  -16.9940 hc        1 1YX      0.118367
     56 H27         0.2470    4.9910  -16.2630 hc        1 1YX      0.118367
     57 H121        0.6410   -0.7480   -2.5750 hn        1 1YX      0.459800
     58 H42         0.8740    5.3030  -13.7660 hn        1 1YX      0.463300
@<TRIPOS>BOND
     1    1    2 1   
     2    1   30 1   
     3    1   31 1   
     4    1   32 1   
     5    2    3 1   
     6    2    4 1   
     7    2   33 1   
     8    3   34 1   
     9    3   35 1   
    10    3   36 1   
    11    4    5 2   
    12    4    6 2   
    13    4    7 1   
    14    7    8 1   
    15    7   37 1   
    16    7   57 1   
    17    8    9 1   
    18    8   38 1   
    19    8   39 1   
    20    9   10 1   
    21    9   13 1   
    22    9   40 1   
    23   10   11 1   
    24   10   41 1   
    25   10   42 1   
    26   11   12 2   
    27   11   14 1   
    28   12   13 1   
    29   14   15 ar  
    30   14   19 ar  
    31   15   16 ar  
    32   15   43 1   
    33   16   17 ar  
    34   16   44 1   
    35   17   18 ar  
    36   17   21 1   
    37   18   19 ar  
    38   18   20 1   
    39   19   45 1   
    40   21   22 1   
    41   21   25 1   
    42   22   23 1   
    43   22   46 1   
    44   22   47 1   
    45   23   24 1   
    46   23   48 1   
    47   23   49 1   
    48   24   25 1   
    49   24   26 1   
    50   24   50 1   
    51   25   51 1   
    52   25   52 1   
    53   26   27 1   
    54   26   53 1   
    55   26   58 1   
    56   27   28 2   
    57   27   29 1   
    58   29   54 1   
    59   29   55 1   
    60   29   56 1   
@<TRIPOS>SUBSTRUCTURE
     1 1YX         1 TEMP              0 ****  ****    0 ROOT
