@<TRIPOS>MOLECULE
1YX
   58    60     1     0     0
SMALL
bcc


@<TRIPOS>ATOM
      1 C1          0.9810   -2.0170    0.3050 c3        1 1YX     -0.102600
      2 C2          0.8420   -0.5140    0.1720 c3        1 1YX     -0.322900
      3 C3          0.8990    0.1280    1.5550 c3        1 1YX     -0.102600
      4 S1          2.0450    0.2020   -0.7590 s6        1 1YX      1.358900
      5 O1          1.7820    1.5140   -1.0950 o         1 1YX     -0.549300
      6 O2          3.3270   -0.2330   -0.4970 o         1 1YX     -0.549300
      7 N1          1.6900   -0.6950   -2.3950 ny        1 1YX     -0.701900
      8 C4          2.3170    0.0030   -3.5430 c3        1 1YX      0.092800
      9 C5          1.9570   -0.6200   -4.8910 c3        1 1YX      0.065100
     10 C6          2.3030    0.2790   -6.0890 c3        1 1YX     -0.164700
     11 C7          0.9140    0.5230   -6.6760 ce        1 1YX      0.358900
     12 N2         -0.0270   -0.0760   -5.9630 n2        1 1YX     -0.332200
     13 O3          0.4820   -0.7420   -4.9490 os        1 1YX     -0.172300
     14 C8          0.7080    1.3060   -7.8870 ca        1 1YX     -0.087900
     15 C9         -0.5570    1.3790   -8.4890 ca        1 1YX     -0.091000
     16 C10        -0.7360    2.1020   -9.6630 ca        1 1YX     -0.127000
     17 C11         0.3330    2.7780  -10.2800 ca        1 1YX      0.051600
     18 C12         1.6110    2.7150   -9.6550 ca        1 1YX      0.163900
     19 C13         1.7860    1.9790   -8.4690 ca        1 1YX     -0.147000
     20 F1          2.6800    3.3550  -10.1800 f         1 1YX     -0.116900
     21 N3          0.2030    3.5000  -11.5070 nh        1 1YX     -0.628000
     22 C14        -0.2990    2.7160  -12.6450 c3        1 1YX      0.147800
     23 C15        -1.1750    3.6410  -13.5090 c3        1 1YX     -0.115400
     24 C16        -1.0440    5.0390  -12.8710 c3        1 1YX      0.115500
     25 C17        -0.5950    4.7240  -11.4140 c3        1 1YX      0.143800
     26 N4         -0.0220    5.8910  -13.5720 ny        1 1YX     -0.685800
     27 C18        -0.5530    6.4760  -14.8740 c         1 1YX      0.553100
     28 O4         -1.5380    7.1860  -14.7690 o         1 1YX     -0.393100
     29 C19         0.2120    6.1140  -16.1000 c3        1 1YX     -0.189100
     30 H1          0.6450   -2.5410   -0.6220 hc        1 1YX      0.083200
     31 H2          0.3390   -2.3870    1.1460 hc        1 1YX      0.083200
     32 H3          2.0380   -2.3010    0.5410 hc        1 1YX      0.083200
     33 H4         -0.1980   -0.3030   -0.2220 h1        1 1YX      0.155700
     34 H5          0.0520   -0.2520    2.1810 hc        1 1YX      0.083200
     35 H6          1.8530   -0.1390    2.0770 hc        1 1YX      0.083200
     36 H7          0.7980    1.2400    1.4810 hc        1 1YX      0.083200
     37 H8          0.6870   -0.7660   -2.5840 hn        1 1YX      0.459800
     38 H9          3.4380   -0.0280   -3.4130 hx        1 1YX      0.123200
     39 H10         1.9680    1.0790   -3.5180 hx        1 1YX      0.123200
     40 H11         2.3580   -1.6610   -4.9930 h1        1 1YX      0.108700
     41 H12         2.9610   -0.2500   -6.8210 hc        1 1YX      0.100700
     42 H13         2.7900    1.2360   -5.7840 hc        1 1YX      0.100700
     43 H14        -1.4220    0.8600   -8.0430 ha        1 1YX      0.172000
     44 H15        -1.7400    2.1360  -10.1170 ha        1 1YX      0.150000
     45 H16         2.7900    1.9430   -8.0180 ha        1 1YX      0.159000
     46 H17        -0.8890    1.8120  -12.3290 h1        1 1YX      0.078700
     47 H18         0.5990    2.3580  -13.2190 h1        1 1YX      0.078700
     48 H19        -0.8610    3.6080  -14.5810 hc        1 1YX      0.088700
     49 H20        -2.2490    3.3270  -13.4620 hc        1 1YX      0.088700
     50 H21        -2.0170    5.6100  -12.8830 hx        1 1YX      0.134700
     51 H22         0.0360    5.5300  -10.9530 h1        1 1YX      0.082700
     52 H23        -1.5250    4.6100  -10.7870 h1        1 1YX      0.082700
     53 H24         0.8150    5.3270  -13.7530 hn        1 1YX      0.463300
     54 H25         0.2160    5.0050  -16.2560 hc        1 1YX      0.118367
     55 H26        -0.2820    6.6010  -16.9850 hc        1 1YX      0.118367
     56 H27         1.2680    6.4830  -16.0350 hc        1 1YX      0.118367
     57 H121        2.0510   -1.6500   -2.3580 hn        1 1YX      0.459800
     58 H42         0.2350    6.6630  -12.9450 hn        1 1YX      0.463300
@<TRIPOS>BOND
     1    1    2 1   
     2    1   30 1   
     3    1   31 1   
     4    1   32 1   
     5    2    3 1   
     6    2    4 1   
     7    2   33 1   
     8    3   34 1   
     9    3   35 1   
    10    3   36 1   
    11    4    5 2   
    12    4    6 2   
    13    4    7 1   
    14    7    8 1   
    15    7   37 1   
    16    7   57 1   
    17    8    9 1   
    18    8   38 1   
    19    8   39 1   
    20    9   10 1   
    21    9   13 1   
    22    9   40 1   
    23   10   11 1   
    24   10   41 1   
    25   10   42 1   
    26   11   12 2   
    27   11   14 1   
    28   12   13 1   
    29   14   15 ar  
    30   14   19 ar  
    31   15   16 ar  
    32   15   43 1   
    33   16   17 ar  
    34   16   44 1   
    35   17   18 ar  
    36   17   21 1   
    37   18   19 ar  
    38   18   20 1   
    39   19   45 1   
    40   21   22 1   
    41   21   25 1   
    42   22   23 1   
    43   22   46 1   
    44   22   47 1   
    45   23   24 1   
    46   23   48 1   
    47   23   49 1   
    48   24   25 1   
    49   24   26 1   
    50   24   50 1   
    51   25   51 1   
    52   25   52 1   
    53   26   27 1   
    54   26   53 1   
    55   26   58 1   
    56   27   28 2   
    57   27   29 1   
    58   29   54 1   
    59   29   55 1   
    60   29   56 1   
@<TRIPOS>SUBSTRUCTURE
     1 1YX         1 TEMP              0 ****  ****    0 ROOT
