@<TRIPOS>MOLECULE
1YX
   56    58     1     0     0
SMALL
bcc


@<TRIPOS>ATOM
      1 C1         -7.4030    2.5850    0.3940 c3        1 1YX     -0.078600
      2 C2         -7.2820    1.4000    1.3210 c3        1 1YX     -0.270900
      3 C3         -8.5820    1.1860    2.0680 c3        1 1YX     -0.078600
      4 S1         -6.8780   -0.0700    0.4820 s6        1 1YX      1.442900
      5 O1         -6.7500   -1.0960    1.4460 o         1 1YX     -0.649300
      6 O2         -7.8210   -0.2700   -0.5460 o         1 1YX     -0.649300
      7 N1         -5.4340    0.2610   -0.1580 n3        1 1YX     -0.921100
      8 C4         -4.1830   -0.1830    0.3760 c3        1 1YX      0.221800
      9 C5         -3.3000   -0.9060   -0.6440 c3        1 1YX      0.072100
     10 C6         -1.9380   -1.3160   -0.0620 c3        1 1YX     -0.165700
     11 C7         -0.9920   -0.4780   -0.9150 ce        1 1YX      0.327900
     12 N2         -1.6570    0.2510   -1.8010 n2        1 1YX     -0.346200
     13 O3         -2.9490    0.0590   -1.7200 os        1 1YX     -0.151300
     14 C8          0.4500   -0.5120   -0.7340 ca        1 1YX     -0.086900
     15 C9          1.2990    0.2780   -1.5230 ca        1 1YX     -0.107000
     16 C10         2.6750    0.2330   -1.3360 ca        1 1YX     -0.139000
     17 C11         3.2640   -0.5990   -0.3640 ca        1 1YX      0.068600
     18 C12         2.3960   -1.3960    0.4340 ca        1 1YX      0.148900
     19 C13         1.0040   -1.3450    0.2420 ca        1 1YX     -0.159000
     20 F1          2.8800   -2.2180    1.3950 f         1 1YX     -0.124900
     21 N3          4.6750   -0.6820   -0.1530 nh        1 1YX     -0.616000
     22 C14         5.4510   -1.0340   -1.3480 c3        1 1YX      0.157800
     23 C15         6.6410   -0.0750   -1.4740 c3        1 1YX     -0.114400
     24 C16         6.6760    0.7390   -0.1580 c3        1 1YX      0.097700
     25 C17         5.2540    0.5200    0.4510 c3        1 1YX      0.142800
     26 N4          7.7340    0.3460    0.7310 n         1 1YX     -0.573900
     27 C18         8.6960    1.2250    1.1900 c         1 1YX      0.661100
     28 O4          8.7180    2.4160    0.8180 o         1 1YX     -0.611100
     29 C19         9.7230    0.6790    2.1520 c3        1 1YX     -0.174100
     30 H1         -6.4050    2.8810   -0.0120 hc        1 1YX      0.052533
     31 H2         -8.0880    2.3430   -0.4580 hc        1 1YX      0.052533
     32 H3         -7.8260    3.4640    0.9390 hc        1 1YX      0.052533
     33 H4         -6.4920    1.6390    2.0870 h1        1 1YX      0.105700
     34 H5         -9.4160    0.9970    1.3480 hc        1 1YX      0.052533
     35 H6         -8.4920    0.3130    2.7610 hc        1 1YX      0.052533
     36 H7         -8.8370    2.0900    2.6700 hc        1 1YX      0.052533
     37 H8         -5.3360    0.7690   -1.0080 hn        1 1YX      0.462800
     38 H9         -3.6050    0.7040    0.7690 h1        1 1YX      0.066700
     39 H10        -4.3730   -0.8950    1.2330 h1        1 1YX      0.066700
     40 H11        -3.8320   -1.7440   -1.1580 h1        1 1YX      0.094700
     41 H12        -1.8420   -1.0600    1.0200 hc        1 1YX      0.081200
     42 H13        -1.7420   -2.4070   -0.1980 hc        1 1YX      0.081200
     43 H14         0.8810    0.9420   -2.2960 ha        1 1YX      0.158000
     44 H15         3.3210    0.8650   -1.9680 ha        1 1YX      0.143000
     45 H16         0.3620   -1.9770    0.8750 ha        1 1YX      0.149000
     46 H17         5.8100   -2.0890   -1.1940 h1        1 1YX      0.051700
     47 H18         4.8320   -1.0150   -2.2860 h1        1 1YX      0.051700
     48 H19         7.5850   -0.6410   -1.6570 hc        1 1YX      0.060200
     49 H20         6.4910    0.6250   -2.3320 hc        1 1YX      0.060200
     50 H21         6.8100    1.8360   -0.3910 h1        1 1YX      0.098700
     51 H22         4.6390    1.4410    0.2530 h1        1 1YX      0.056700
     52 H23         5.2860    0.3560    1.5610 h1        1 1YX      0.056700
     53 H24         7.7180   -0.5850    1.0720 hn        1 1YX      0.314500
     54 H25        10.3000   -0.1510    1.6790 hc        1 1YX      0.066700
     55 H26        10.4290    1.5020    2.4260 hc        1 1YX      0.066700
     56 H27         9.2300    0.3000    3.0790 hc        1 1YX      0.066700
@<TRIPOS>BOND
     1    1    2 1   
     2    1   30 1   
     3    1   31 1   
     4    1   32 1   
     5    2    3 1   
     6    2    4 1   
     7    2   33 1   
     8    3   34 1   
     9    3   35 1   
    10    3   36 1   
    11    4    5 2   
    12    4    6 2   
    13    4    7 1   
    14    7    8 1   
    15    7   37 1   
    16    8    9 1   
    17    8   38 1   
    18    8   39 1   
    19    9   10 1   
    20    9   13 1   
    21    9   40 1   
    22   10   11 1   
    23   10   41 1   
    24   10   42 1   
    25   11   12 2   
    26   11   14 1   
    27   12   13 1   
    28   14   15 ar  
    29   14   19 ar  
    30   15   16 ar  
    31   15   43 1   
    32   16   17 ar  
    33   16   44 1   
    34   17   18 ar  
    35   17   21 1   
    36   18   19 ar  
    37   18   20 1   
    38   19   45 1   
    39   21   22 1   
    40   21   25 1   
    41   22   23 1   
    42   22   46 1   
    43   22   47 1   
    44   23   24 1   
    45   23   48 1   
    46   23   49 1   
    47   24   25 1   
    48   24   26 1   
    49   24   50 1   
    50   25   51 1   
    51   25   52 1   
    52   26   27 1   
    53   26   53 1   
    54   27   28 2   
    55   27   29 1   
    56   29   54 1   
    57   29   55 1   
    58   29   56 1   
@<TRIPOS>SUBSTRUCTURE
     1 1YX         1 TEMP              0 ****  ****    0 ROOT
