@<TRIPOS>MOLECULE
1YX
   56    54     1     0     0
SMALL
bcc


@<TRIPOS>ATOM
      1 C1         -0.7250   -6.5280    4.9530 c3        1 1YX     -0.194500
      2 C2         -0.9670   -5.3920    5.9770 c3        1 1YX     -0.772000
      3 C3         -0.6460   -5.8910    7.3640 c3        1 1YX     -0.194500
      4 S1          0.0920   -3.9940    5.5850 s4        1 1YX      2.014800
      5 O1          0.7120   -3.4600    6.7680 o         1 1YX     -0.536400
      6 O2          1.2320   -4.4020    4.8370 o         1 1YX     -0.536400
      7 N1         -0.7620   -2.8370    4.7860 n2        1 1YX     -0.891000
      8 C4         -0.0920   -1.6400    4.3230 c3        1 1YX     -0.015000
      9 C5         -0.4520   -1.3870    3.0310 c3        1 1YX     -0.042000
     10 C6          0.7760   -0.7320    2.2200 c3        1 1YX     -0.169000
     11 C7          0.2050    0.3420    1.7790 c2        1 1YX     -0.117000
     12 N2         -0.9880    0.6540    2.4410 n1        1 1YX      0.040000
     13 O3         -1.5440   -0.3400    2.9790 o         1 1YX     -0.178000
     14 C8          0.4160    0.7830    0.3340 c2        1 1YX     -0.003000
     15 C9         -0.6300    0.6960   -0.5770 c2        1 1YX     -0.106000
     16 C10        -0.4710    1.1930   -1.8750 c1        1 1YX     -0.139000
     17 C11         0.7330    1.7750   -2.2550 c1        1 1YX     -0.012000
     18 C12         1.7830    1.8630   -1.3410 c1        1 1YX      0.114000
     19 C13         1.6250    1.3670   -0.0470 c1        1 1YX     -0.159000
     20 F1          2.9480    2.4130   -1.7100 f         1 1YX     -0.090000
     21 N3          0.8720    2.3720   -3.5940 n3        1 1YX     -0.218000
     22 C14         0.8350    1.4200   -4.5080 c3        1 1YX     -0.079000
     23 C15         0.0960    2.0660   -5.7510 c3        1 1YX     -0.193000
     24 C16        -0.5070    3.3900   -5.2330 c3        1 1YX      0.021000
     25 C17        -0.3890    3.3260   -3.8910 c3        1 1YX     -0.094000
     26 N4          0.2540    4.5380   -5.7590 n         1 1YX     -0.384000
     27 C18        -0.3260    5.3790   -6.7510 c2        1 1YX      0.305000
     28 O4         -1.4470    5.1500   -7.1620 o         1 1YX     -0.371000
     29 C19         0.4260    6.6090   -7.2380 c3        1 1YX     -0.242000
     30 H1         -1.4000   -7.2460    5.0890 hc        1 1YX      0.090833
     31 H2         -0.8060   -6.1700    4.0400 hc        1 1YX      0.090833
     32 H3          0.1730   -6.8970    5.0820 hc        1 1YX      0.090833
     33 H4         -1.9120   -5.1100    5.9400 h1        1 1YX      0.145000
     34 H5         -0.8100   -5.1700    8.0200 hc        1 1YX      0.090833
     35 H6          0.2920   -6.1590    7.4040 hc        1 1YX      0.090833
     36 H7         -1.2150   -6.6600    7.5750 hc        1 1YX      0.090833
     37 H8         -1.6710   -2.8990    4.7330 hn        1 1YX      0.256000
     38 H9         -0.3510   -0.8820    4.8880 h1        1 1YX      0.111000
     39 H10         0.8850   -1.7690    4.3730 h1        1 1YX      0.111000
     40 H11        -0.7470   -2.2060    2.5940 h1        1 1YX      0.125000
     41 H12         1.6050   -0.6540    2.7480 hc        1 1YX      0.121000
     42 H13         1.0720   -1.2870    1.4620 hc        1 1YX      0.121000
     43 H14        -1.4800    0.2860   -0.3090 ha        1 1YX      0.158000
     44 H15        -1.2080    1.1320   -2.5170 ha        1 1YX      0.144000
     45 H16         2.3650    1.4290    0.5960 ha        1 1YX      0.149000
     46 H17         0.3340    0.6520   -4.1780 h1        1 1YX      0.091000
     47 H18         1.7450    1.1520   -4.7560 h1        1 1YX      0.091000
     48 H19        -0.6130    1.4730   -6.0680 hc        1 1YX      0.099500
     49 H20         0.7390    2.2450   -6.4740 hc        1 1YX      0.099500
     50 H21        -1.4500    3.4590   -5.4890 h1        1 1YX      0.139000
     51 H22        -0.2280    4.2230   -3.5230 h1        1 1YX      0.096000
     52 H23        -1.1970    2.9440   -3.5010 h1        1 1YX      0.096000
     53 H24         1.0560    4.7540   -5.3960 hn        1 1YX      0.228000
     54 H25        -0.0570    7.0100   -7.9870 hc        1 1YX      0.106000
     55 H26         1.3230    6.3490   -7.5310 hc        1 1YX      0.106000
     56 H27         0.4970    7.2660   -6.5020 hc        1 1YX      0.106000
@<TRIPOS>BOND
     1    1    2 1   
     2    1   30 1   
     3    1   31 1   
     4    1   32 1   
     5    2    3 1   
     6    2    4 1   
     7    2   33 1   
     8    3   34 1   
     9    3   35 1   
    10    3   36 1   
    11    4    5 1   
    12    4    6 1   
    13    7    8 1   
    14    7   37 1   
    15    8    9 1   
    16    8   38 1   
    17    8   39 1   
    18    9   10 1   
    19    9   13 1   
    20    9   40 1   
    21   10   11 1   
    22   10   41 1   
    23   10   42 1   
    24   11   12 1   
    25   11   14 1   
    26   14   15 1   
    27   14   19 1   
    28   15   16 1   
    29   15   43 1   
    30   16   44 1   
    31   17   18 1   
    32   17   21 1   
    33   18   20 1   
    34   19   45 1   
    35   21   22 1   
    36   21   25 1   
    37   22   23 1   
    38   22   46 1   
    39   22   47 1   
    40   23   24 1   
    41   23   48 1   
    42   23   49 1   
    43   24   25 1   
    44   24   26 1   
    45   24   50 1   
    46   25   51 1   
    47   25   52 1   
    48   26   27 1   
    49   26   53 1   
    50   27   28 1   
    51   27   29 1   
    52   29   54 1   
    53   29   55 1   
    54   29   56 1   
@<TRIPOS>SUBSTRUCTURE
     1 1YX         1 TEMP              0 ****  ****    0 ROOT
