@<TRIPOS>MOLECULE
1YY
   65    68     1     0     0
SMALL
bcc


@<TRIPOS>ATOM
      1 C22         0.6110    0.3690    0.9880 c3        1 1YY     -0.125100
      2 C21         1.9920   -0.1740    0.6230 c3        1 1YY      0.157500
      3 C20         2.7380   -0.5200    1.9320 c3        1 1YY      0.130400
      4 O4          2.2180   -1.6930    2.5430 os        1 1YY     -0.416600
      5 C19         2.2620   -2.8200    1.6730 c3        1 1YY      0.129400
      6 C18         1.5450   -2.5450    0.3450 c3        1 1YY      0.131800
      7 N3          2.0180   -1.3220   -0.2840 n3        1 1YY     -0.751600
      8 C5          1.4720   -1.0690   -1.6030 c3        1 1YY      0.157800
      9 C3          2.5830   -1.1170   -2.6990 c3        1 1YY      0.186500
     10 C2          3.0040   -2.5860   -2.9720 c3        1 1YY      0.220800
     11 N1          2.0810   -3.3140   -3.8050 n3        1 1YY     -0.815500
     12 S1          1.4250   -4.7450   -3.3780 sy        1 1YY      1.551200
     13 O1          1.7050   -5.7210   -4.3520 o         1 1YY     -0.654800
     14 O2          1.8120   -5.0490   -2.0520 o         1 1YY     -0.654800
     15 C6         -0.2140   -4.4400   -3.4080 cc        1 1YY     -0.494600
     16 C7         -1.0040   -4.9120   -4.4680 cd        1 1YY     -0.030000
     17 C8         -2.3720   -4.6000   -4.2970 cd        1 1YY     -0.180000
     18 C9         -2.5740   -3.9030   -3.1100 cc        1 1YY     -0.175100
     19 S2         -1.1720   -3.6730   -2.2960 ss        1 1YY      0.252200
     20 C1          1.7540   -2.6280   -5.0250 c3        1 1YY      0.230800
     21 C4          1.3100   -1.1630   -4.7990 c3        1 1YY      0.173800
     22 N2          2.2190   -0.4320   -3.9370 nh        1 1YY     -0.639000
     23 C10         2.0230    0.9660   -3.8540 ca        1 1YY      0.161600
     24 C15         0.9070    1.6090   -4.4400 ca        1 1YY     -0.180500
     25 C14         0.7930    2.9940   -4.4260 ca        1 1YY     -0.071000
     26 C11         3.0090    1.7840   -3.2490 ca        1 1YY     -0.180500
     27 C12         2.8800    3.1660   -3.2380 ca        1 1YY     -0.071000
     28 C13         1.7720    3.7890   -3.8210 ca        1 1YY     -0.137300
     29 C16         1.6150    5.2800   -3.7850 c3        1 1YY      0.204100
     30 C23         1.5970    5.8910   -5.2580 c3        1 1YY      0.586900
     31 F2          0.4510    5.6440   -5.9670 f         1 1YY     -0.237633
     32 F3          1.7050    7.2620   -5.2380 f         1 1YY     -0.237633
     33 F1          2.6160    5.4800   -6.0720 f         1 1YY     -0.237633
     34 C17         0.3270    5.6990   -3.0860 c3        1 1YY     -0.133100
     35 O3          2.7460    5.8380   -3.1350 oh        1 1YY     -0.574800
     36 H1          0.0060    0.6010    0.0800 hc        1 1YY      0.041700
     37 H2          0.7310    1.3090    1.5780 hc        1 1YY      0.041700
     38 H3          0.0560   -0.3730    1.6110 hc        1 1YY      0.041700
     39 H4          2.5710    0.6490    0.1060 h1        1 1YY      0.059700
     40 H5          2.5780    0.2870    2.6930 h1        1 1YY      0.053200
     41 H6          3.8340   -0.6530    1.7310 h1        1 1YY      0.053200
     42 H7          3.3300   -3.1110    1.4920 h1        1 1YY      0.057200
     43 H8          1.7300   -3.6300    2.2370 h1        1 1YY      0.057200
     44 H9          1.7480   -3.4110   -0.3500 h1        1 1YY      0.050200
     45 H10         0.4340   -2.5070    0.5410 h1        1 1YY      0.050200
     46 H12         0.6740   -1.8240   -1.8650 h1        1 1YY      0.037200
     47 H13         0.9870   -0.0510   -1.6470 h1        1 1YY      0.037200
     48 H14         3.5030   -0.6000   -2.2930 h1        1 1YY      0.082700
     49 H15         3.1230   -3.1130   -1.9820 h1        1 1YY      0.075200
     50 H16         4.0110   -2.5670   -3.4840 h1        1 1YY      0.075200
     51 H17        -0.6020   -5.4730   -5.3200 ha        1 1YY      0.181000
     52 H18        -3.1550   -4.8790   -5.0050 ha        1 1YY      0.165000
     53 H19        -3.5480   -3.5570   -2.7590 h4        1 1YY      0.181000
     54 H20         0.9120   -3.1690   -5.5430 h1        1 1YY      0.058200
     55 H21         2.6530   -2.6320   -5.7070 h1        1 1YY      0.058200
     56 H22         1.2950   -0.6580   -5.8060 h1        1 1YY      0.043700
     57 H23         0.2590   -1.1630   -4.3880 h1        1 1YY      0.043700
     58 H24         0.1090    1.0280   -4.9250 ha        1 1YY      0.139000
     59 H25        -0.0780    3.4680   -4.9080 ha        1 1YY      0.148500
     60 H26         3.9050    1.3350   -2.7950 ha        1 1YY      0.139000
     61 H27         3.6670    3.7810   -2.7680 ha        1 1YY      0.148500
     62 H28         0.2200    6.8110   -3.1140 hc        1 1YY      0.062700
     63 H29        -0.5540    5.2390   -3.5940 hc        1 1YY      0.062700
     64 H30         0.3570    5.3610   -2.0230 hc        1 1YY      0.062700
     65 H31         2.5830    6.7880   -3.0440 ho        1 1YY      0.421000
@<TRIPOS>BOND
     1    1    2 1   
     2    1   36 1   
     3    1   37 1   
     4    1   38 1   
     5    2    3 1   
     6    2    7 1   
     7    2   39 1   
     8    3    4 1   
     9    3   40 1   
    10    3   41 1   
    11    4    5 1   
    12    5    6 1   
    13    5   42 1   
    14    5   43 1   
    15    6    7 1   
    16    6   44 1   
    17    6   45 1   
    18    7    8 1   
    19    8    9 1   
    20    8   46 1   
    21    8   47 1   
    22    9   10 1   
    23    9   22 1   
    24    9   48 1   
    25   10   11 1   
    26   10   49 1   
    27   10   50 1   
    28   11   12 1   
    29   11   20 1   
    30   12   13 2   
    31   12   14 2   
    32   12   15 1   
    33   15   16 2   
    34   15   19 1   
    35   16   17 1   
    36   16   51 1   
    37   17   18 2   
    38   17   52 1   
    39   18   19 1   
    40   18   53 1   
    41   20   21 1   
    42   20   54 1   
    43   20   55 1   
    44   21   22 1   
    45   21   56 1   
    46   21   57 1   
    47   22   23 1   
    48   23   24 ar  
    49   23   26 ar  
    50   24   25 ar  
    51   24   58 1   
    52   25   28 ar  
    53   25   59 1   
    54   26   27 ar  
    55   26   60 1   
    56   27   28 ar  
    57   27   61 1   
    58   28   29 1   
    59   29   30 1   
    60   29   34 1   
    61   29   35 1   
    62   30   31 1   
    63   30   32 1   
    64   30   33 1   
    65   34   62 1   
    66   34   63 1   
    67   34   64 1   
    68   35   65 1   
@<TRIPOS>SUBSTRUCTURE
     1 1YY         1 TEMP              0 ****  ****    0 ROOT
