@<TRIPOS>MOLECULE
1YY
   65    68     1     0     0
SMALL
bcc


@<TRIPOS>ATOM
      1 C22         0.5990    0.3580    0.9860 c3        1 1YY     -0.125100
      2 C21         1.9810   -0.1850    0.6250 c3        1 1YY      0.157500
      3 C20         2.7220   -0.5350    1.9350 c3        1 1YY      0.130400
      4 O4          2.1990   -1.7100    2.5400 os        1 1YY     -0.416600
      5 C19         2.2460   -2.8340    1.6670 c3        1 1YY      0.129400
      6 C18         1.5340   -2.5550    0.3370 c3        1 1YY      0.131800
      7 N3          2.0100   -1.3290   -0.2850 n3        1 1YY     -0.751600
      8 C5          1.4690   -1.0720   -1.6060 c3        1 1YY      0.157800
      9 C3          2.5830   -1.1170   -2.6980 c3        1 1YY      0.186500
     10 C2          3.0050   -2.5850   -2.9750 c3        1 1YY      0.220800
     11 N1          2.0850   -3.3100   -3.8130 n3        1 1YY     -0.815500
     12 S1          1.4260   -4.7420   -3.3930 sy        1 1YY      1.551200
     13 O1          1.7090   -5.7150   -4.3700 o         1 1YY     -0.654800
     14 O2          1.8080   -5.0500   -2.0670 o         1 1YY     -0.654800
     15 C6         -0.2130   -4.4360   -3.4280 cc        1 1YY     -0.494600
     16 C7         -0.9990   -4.9030   -4.4920 cd        1 1YY     -0.030000
     17 C8         -2.3680   -4.5920   -4.3250 cd        1 1YY     -0.180000
     18 C9         -2.5730   -3.8980   -3.1360 cc        1 1YY     -0.175100
     19 S2         -1.1730   -3.6720   -2.3160 ss        1 1YY      0.252200
     20 C1          1.7620   -2.6190   -5.0320 c3        1 1YY      0.230800
     21 C4          1.3180   -1.1550   -4.8030 c3        1 1YY      0.173800
     22 N2          2.2240   -0.4270   -3.9350 nh        1 1YY     -0.639000
     23 C10         2.0290    0.9710   -3.8490 ca        1 1YY      0.161600
     24 C15         0.9160    1.6160   -4.4360 ca        1 1YY     -0.180500
     25 C14         0.8020    3.0010   -4.4180 ca        1 1YY     -0.071000
     26 C11         3.0140    1.7850   -3.2380 ca        1 1YY     -0.180500
     27 C12         2.8860    3.1680   -3.2220 ca        1 1YY     -0.071000
     28 C13         1.7790    3.7930   -3.8070 ca        1 1YY     -0.137300
     29 C16         1.6240    5.2850   -3.7660 c3        1 1YY      0.204100
     30 C23         1.6100    5.9000   -5.2370 c3        1 1YY      0.586900
     31 F2          0.4650    5.6570   -5.9500 f         1 1YY     -0.237633
     32 F3          1.7180    7.2710   -5.2130 f         1 1YY     -0.237633
     33 F1          2.6300    5.4910   -6.0500 f         1 1YY     -0.237633
     34 C17         0.3340    5.7020   -3.0690 c3        1 1YY     -0.133100
     35 O3          2.7530    5.8400   -3.1120 oh        1 1YY     -0.574800
     36 H1          0.0420   -0.3860    1.6050 hc        1 1YY      0.041700
     37 H2         -0.0030    0.5930    0.0770 hc        1 1YY      0.041700
     38 H3          0.7170    1.2960    1.5800 hc        1 1YY      0.041700
     39 H4          2.5620    0.6400    0.1130 h1        1 1YY      0.059700
     40 H5          2.5600    0.2700    2.6990 h1        1 1YY      0.053200
     41 H6          3.8180   -0.6670    1.7380 h1        1 1YY      0.053200
     42 H7          3.3150   -3.1250    1.4890 h1        1 1YY      0.057200
     43 H8          1.7120   -3.6460    2.2260 h1        1 1YY      0.057200
     44 H9          0.4220   -2.5160    0.5290 h1        1 1YY      0.050200
     45 H10         1.7400   -3.4180   -0.3600 h1        1 1YY      0.050200
     46 H12         0.6710   -1.8260   -1.8730 h1        1 1YY      0.037200
     47 H13         0.9840   -0.0530   -1.6480 h1        1 1YY      0.037200
     48 H14         3.5020   -0.6010   -2.2880 h1        1 1YY      0.082700
     49 H15         3.1200   -3.1150   -1.9860 h1        1 1YY      0.075200
     50 H16         4.0140   -2.5640   -3.4830 h1        1 1YY      0.075200
     51 H17        -0.5940   -5.4620   -5.3450 ha        1 1YY      0.181000
     52 H18        -3.1480   -4.8670   -5.0360 ha        1 1YY      0.165000
     53 H19        -3.5480   -3.5530   -2.7870 h4        1 1YY      0.181000
     54 H20         0.9210   -3.1590   -5.5550 h1        1 1YY      0.058200
     55 H21         2.6630   -2.6220   -5.7110 h1        1 1YY      0.058200
     56 H22         0.2660   -1.1550   -4.3950 h1        1 1YY      0.043700
     57 H23         1.3070   -0.6460   -5.8080 h1        1 1YY      0.043700
     58 H24         0.1180    1.0370   -4.9250 ha        1 1YY      0.139000
     59 H25        -0.0670    3.4770   -4.9010 ha        1 1YY      0.148500
     60 H26         3.9080    1.3350   -2.7820 ha        1 1YY      0.139000
     61 H27         3.6710    3.7800   -2.7480 ha        1 1YY      0.148500
     62 H28         0.3610    5.3610   -2.0070 hc        1 1YY      0.062700
     63 H29         0.2280    6.8140   -3.0940 hc        1 1YY      0.062700
     64 H30        -0.5460    5.2440   -3.5810 hc        1 1YY      0.062700
     65 H31         2.5900    6.7890   -3.0180 ho        1 1YY      0.421000
@<TRIPOS>BOND
     1    1    2 1   
     2    1   36 1   
     3    1   37 1   
     4    1   38 1   
     5    2    3 1   
     6    2    7 1   
     7    2   39 1   
     8    3    4 1   
     9    3   40 1   
    10    3   41 1   
    11    4    5 1   
    12    5    6 1   
    13    5   42 1   
    14    5   43 1   
    15    6    7 1   
    16    6   44 1   
    17    6   45 1   
    18    7    8 1   
    19    8    9 1   
    20    8   46 1   
    21    8   47 1   
    22    9   10 1   
    23    9   22 1   
    24    9   48 1   
    25   10   11 1   
    26   10   49 1   
    27   10   50 1   
    28   11   12 1   
    29   11   20 1   
    30   12   13 2   
    31   12   14 2   
    32   12   15 1   
    33   15   16 2   
    34   15   19 1   
    35   16   17 1   
    36   16   51 1   
    37   17   18 2   
    38   17   52 1   
    39   18   19 1   
    40   18   53 1   
    41   20   21 1   
    42   20   54 1   
    43   20   55 1   
    44   21   22 1   
    45   21   56 1   
    46   21   57 1   
    47   22   23 1   
    48   23   24 ar  
    49   23   26 ar  
    50   24   25 ar  
    51   24   58 1   
    52   25   28 ar  
    53   25   59 1   
    54   26   27 ar  
    55   26   60 1   
    56   27   28 ar  
    57   27   61 1   
    58   28   29 1   
    59   29   30 1   
    60   29   34 1   
    61   29   35 1   
    62   30   31 1   
    63   30   32 1   
    64   30   33 1   
    65   34   62 1   
    66   34   63 1   
    67   34   64 1   
    68   35   65 1   
@<TRIPOS>SUBSTRUCTURE
     1 1YY         1 TEMP              0 ****  ****    0 ROOT
