@<TRIPOS>MOLECULE
1YY
   65    68     1     0     0
SMALL
bcc


@<TRIPOS>ATOM
      1 C22         0.5930    0.3240    0.9900 c3        1 1YY     -0.125100
      2 C21         1.9750   -0.2170    0.6250 c3        1 1YY      0.157500
      3 C20         2.7130   -0.5820    1.9340 c3        1 1YY      0.130400
      4 O4          2.1880   -1.7630    2.5260 os        1 1YY     -0.416600
      5 C19         2.2350   -2.8770    1.6420 c3        1 1YY      0.129400
      6 C18         1.5270   -2.5840    0.3130 c3        1 1YY      0.131800
      7 N3          2.0040   -1.3530   -0.2960 n3        1 1YY     -0.751600
      8 C5          1.4670   -1.0810   -1.6150 c3        1 1YY      0.157800
      9 C3          2.5840   -1.1150   -2.7050 c3        1 1YY      0.186500
     10 C2          3.0050   -2.5810   -2.9960 c3        1 1YY      0.220800
     11 N1          2.0870   -3.2960   -3.8440 n3        1 1YY     -0.815500
     12 S1          1.4270   -4.7320   -3.4410 sy        1 1YY      1.551200
     13 O1          1.7120   -5.6950   -4.4260 o         1 1YY     -0.654800
     14 O2          1.8050   -5.0540   -2.1170 o         1 1YY     -0.654800
     15 C6         -0.2120   -4.4250   -3.4770 cc        1 1YY     -0.494600
     16 C7         -0.9950   -4.8810   -4.5480 cd        1 1YY     -0.030000
     17 C8         -2.3640   -4.5710   -4.3820 cd        1 1YY     -0.180000
     18 C9         -2.5730   -3.8890   -3.1870 cc        1 1YY     -0.175100
     19 S2         -1.1750   -3.6720   -2.3610 ss        1 1YY      0.252200
     20 C1          1.7690   -2.5930   -5.0560 c3        1 1YY      0.230800
     21 C4          1.3250   -1.1310   -4.8140 c3        1 1YY      0.173800
     22 N2          2.2280   -0.4120   -3.9360 nh        1 1YY     -0.639000
     23 C10         2.0330    0.9850   -3.8350 ca        1 1YY      0.161600
     24 C15         0.9210    1.6370   -4.4200 ca        1 1YY     -0.181000
     25 C14         0.8080    3.0210   -4.3870 ca        1 1YY     -0.071000
     26 C11         3.0150    1.7930   -3.2120 ca        1 1YY     -0.181000
     27 C12         2.8870    3.1750   -3.1820 ca        1 1YY     -0.071000
     28 C13         1.7820    3.8070   -3.7640 ca        1 1YY     -0.137300
     29 C16         1.6270    5.2970   -3.7080 c3        1 1YY      0.204100
     30 C23         1.6200    5.9280   -5.1730 c3        1 1YY      0.586900
     31 F2          0.4780    5.6930   -5.8930 f         1 1YY     -0.237633
     32 F3          1.7270    7.2990   -5.1340 f         1 1YY     -0.237633
     33 F1          2.6430    5.5280   -5.9850 f         1 1YY     -0.237633
     34 C17         0.3340    5.7070   -3.0130 c3        1 1YY     -0.133100
     35 O3          2.7530    5.8450   -3.0430 oh        1 1YY     -0.574800
     36 H1          0.7100    1.2550    1.5940 hc        1 1YY      0.041700
     37 H2          0.0330   -0.4270    1.6000 hc        1 1YY      0.041700
     38 H3         -0.0060    0.5690    0.0820 hc        1 1YY      0.041700
     39 H4          2.5580    0.6120    0.1240 h1        1 1YY      0.059700
     40 H5          2.5500    0.2150    2.7060 h1        1 1YY      0.053200
     41 H6          3.8100   -0.7130    1.7380 h1        1 1YY      0.053200
     42 H7          3.3040   -3.1680    1.4630 h1        1 1YY      0.057200
     43 H8          1.6990   -3.6950    2.1910 h1        1 1YY      0.057200
     44 H9          0.4140   -2.5460    0.5030 h1        1 1YY      0.050200
     45 H10         1.7330   -3.4400   -0.3920 h1        1 1YY      0.050200
     46 H12         0.9830   -0.0620   -1.6480 h1        1 1YY      0.037200
     47 H13         0.6690   -1.8310   -1.8920 h1        1 1YY      0.037200
     48 H14         3.5020   -0.6040   -2.2870 h1        1 1YY      0.082700
     49 H15         3.1180   -3.1210   -2.0120 h1        1 1YY      0.075200
     50 H16         4.0160   -2.5550   -3.5010 h1        1 1YY      0.075200
     51 H17        -0.5880   -5.4320   -5.4050 ha        1 1YY      0.181000
     52 H18        -3.1430   -4.8390   -5.0980 ha        1 1YY      0.165000
     53 H19        -3.5480   -3.5470   -2.8370 h4        1 1YY      0.181000
     54 H20         2.6720   -2.5890   -5.7330 h1        1 1YY      0.058200
     55 H21         0.9290   -3.1260   -5.5880 h1        1 1YY      0.058200
     56 H22         1.3170   -0.6120   -5.8130 h1        1 1YY      0.043700
     57 H23         0.2700   -1.1350   -4.4090 h1        1 1YY      0.043700
     58 H24         0.1260    1.0620   -4.9170 ha        1 1YY      0.139000
     59 H25        -0.0600    3.5020   -4.8690 ha        1 1YY      0.148500
     60 H26         3.9080    1.3370   -2.7570 ha        1 1YY      0.139000
     61 H27         3.6710    3.7830   -2.6990 ha        1 1YY      0.148500
     62 H28         0.3560    5.3550   -1.9540 hc        1 1YY      0.062700
     63 H29         0.2280    6.8190   -3.0260 hc        1 1YY      0.062700
     64 H30        -0.5440    5.2550   -3.5330 hc        1 1YY      0.062700
     65 H31         2.5900    6.7940   -2.9400 ho        1 1YY      0.421000
@<TRIPOS>BOND
     1    1    2 1   
     2    1   36 1   
     3    1   37 1   
     4    1   38 1   
     5    2    3 1   
     6    2    7 1   
     7    2   39 1   
     8    3    4 1   
     9    3   40 1   
    10    3   41 1   
    11    4    5 1   
    12    5    6 1   
    13    5   42 1   
    14    5   43 1   
    15    6    7 1   
    16    6   44 1   
    17    6   45 1   
    18    7    8 1   
    19    8    9 1   
    20    8   46 1   
    21    8   47 1   
    22    9   10 1   
    23    9   22 1   
    24    9   48 1   
    25   10   11 1   
    26   10   49 1   
    27   10   50 1   
    28   11   12 1   
    29   11   20 1   
    30   12   13 2   
    31   12   14 2   
    32   12   15 1   
    33   15   16 2   
    34   15   19 1   
    35   16   17 1   
    36   16   51 1   
    37   17   18 2   
    38   17   52 1   
    39   18   19 1   
    40   18   53 1   
    41   20   21 1   
    42   20   54 1   
    43   20   55 1   
    44   21   22 1   
    45   21   56 1   
    46   21   57 1   
    47   22   23 1   
    48   23   24 ar  
    49   23   26 ar  
    50   24   25 ar  
    51   24   58 1   
    52   25   28 ar  
    53   25   59 1   
    54   26   27 ar  
    55   26   60 1   
    56   27   28 ar  
    57   27   61 1   
    58   28   29 1   
    59   29   30 1   
    60   29   34 1   
    61   29   35 1   
    62   30   31 1   
    63   30   32 1   
    64   30   33 1   
    65   34   62 1   
    66   34   63 1   
    67   34   64 1   
    68   35   65 1   
@<TRIPOS>SUBSTRUCTURE
     1 1YY         1 TEMP              0 ****  ****    0 ROOT
