@<TRIPOS>MOLECULE
1YY
   65    62     1     0     0
SMALL
bcc


@<TRIPOS>ATOM
      1 C22        -1.5170    0.6560    3.0480 c3        1 1YY     -0.242000
      2 C21         0.0290    0.8530    2.9650 c3        1 1YY     -0.040000
      3 C20         0.5650    1.0790    4.3560 c3        1 1YY     -0.019000
      4 O4          0.4830   -0.0990    5.1700 os        1 1YY     -0.274000
      5 C19         1.0540   -1.2180    4.5550 c3        1 1YY     -0.021000
      6 C18         0.5200   -1.4430    3.1560 c3        1 1YY     -0.107000
      7 N3          0.6010   -0.2760    2.3470 n3        1 1YY     -0.278000
      8 C5         -0.0950   -0.5250    1.0260 c3        1 1YY     -0.083000
      9 C3          0.9410   -0.8750   -0.0320 c3        1 1YY     -0.008000
     10 C2          1.0210   -2.3890   -0.1590 c3        1 1YY     -0.005000
     11 N1         -0.1660   -2.9550   -0.7490 n3        1 1YY     -0.838000
     12 S1         -0.5540   -4.6270   -0.4870 s4        1 1YY      2.108800
     13 O1          0.2300   -5.1800    0.5730 o         1 1YY     -0.547900
     14 O2         -1.8650   -4.7770    0.0330 o         1 1YY     -0.547900
     15 C6         -0.3500   -5.5550   -1.9950 c1        1 1YY     -0.831000
     16 C7          0.7210   -6.5180   -2.2690 c1        1 1YY     -0.104000
     17 C8          0.3830   -7.2740   -3.6360 c1        1 1YY     -0.104000
     18 C9         -0.8740   -6.7530   -4.1490 c1        1 1YY     -0.831000
     19 S2         -1.3870   -5.6580   -3.1480 ss        1 1YY      0.814000
     20 C1         -0.5240   -2.3220   -1.9820 c3        1 1YY     -0.018000
     21 C4         -0.6030   -0.8020   -1.8550 c3        1 1YY     -0.063000
     22 N2          0.5800   -0.2410   -1.2700 n3        1 1YY     -0.240000
     23 C10         0.3960    1.1790   -1.0600 c2        1 1YY      0.079000
     24 C15        -0.8180    1.7810   -1.4120 c2        1 1YY     -0.190000
     25 C14        -0.9390    3.1670   -1.3970 c1        1 1YY     -0.084000
     26 C11         1.4900    1.9750   -0.6930 c1        1 1YY     -0.169000
     27 C12         1.3690    3.3690   -0.6790 c1        1 1YY     -0.058000
     28 C13         0.1600    3.9660   -1.0290 c1        1 1YY     -0.130000
     29 C16         0.0070    5.4490   -0.9520 c3        1 1YY      0.126000
     30 C23         0.6110    6.0910   -2.2050 c3        1 1YY      0.372000
     31 F2          0.4300    7.4250   -2.1620 f         1 1YY     -0.167000
     32 F3          1.9110    5.8250   -2.2620 f         1 1YY     -0.167000
     33 F1          0.0050    5.5940   -3.2870 f         1 1YY     -0.167000
     34 C17        -1.4700    5.7990   -0.8660 c3        1 1YY     -0.251000
     35 O3          0.6550    5.9250    0.1670 oh        1 1YY     -0.302000
     36 H1         -1.8980    1.3060    3.6920 hc        1 1YY      0.081667
     37 H2         -1.7200   -0.2800    3.3560 hc        1 1YY      0.081667
     38 H3         -1.9150    0.8020    2.1630 hc        1 1YY      0.081667
     39 H4          0.2150    1.6270    2.4280 h1        1 1YY      0.094000
     40 H5          0.0740    1.7650    4.7650 h1        1 1YY      0.090000
     41 H6          1.4930    1.3520    4.2930 h1        1 1YY      0.090000
     42 H7          0.8640   -2.0180    5.1000 h1        1 1YY      0.090500
     43 H8          2.0070   -1.0920    4.5080 h1        1 1YY      0.090500
     44 H9          1.0500   -2.1700    2.7270 h1        1 1YY      0.100000
     45 H10        -0.3900   -1.7150    3.2120 h1        1 1YY      0.100000
     46 H12        -0.5890    0.3010    0.7500 h1        1 1YY      0.086500
     47 H13        -0.7270   -1.2680    1.1220 h1        1 1YY      0.086500
     48 H14         1.8130   -0.5360    0.2560 h1        1 1YY      0.115000
     49 H15         1.1470   -2.7730    0.7260 h1        1 1YY      0.101000
     50 H16         1.8060   -2.6240   -0.7260 h1        1 1YY      0.101000
     51 H17         1.4990   -6.6700   -1.7180 DU        1 1YY      0.174000
     52 H18         0.9350   -7.9770   -4.0610 DU        1 1YY      0.174000
     53 H19        -1.3110   -7.0290   -4.9530 DU        1 1YY      0.174000
     54 H20         0.1510   -2.5490   -2.6630 h1        1 1YY      0.103000
     55 H21        -1.4110   -2.6700   -2.2770 h1        1 1YY      0.103000
     56 H22        -0.7260   -0.4230   -2.7310 h1        1 1YY      0.087000
     57 H23        -1.3770   -0.5690   -1.2960 h1        1 1YY      0.087000
     58 H24        -1.6150    1.2020   -1.6810 ha        1 1YY      0.137000
     59 H25        -1.8080    3.5960   -1.6490 ha        1 1YY      0.140000
     60 H26         2.3470    1.5510   -0.4450 ha        1 1YY      0.141000
     61 H27         2.1510    3.9360   -0.4170 ha        1 1YY      0.156000
     62 H28        -1.8570    5.3870   -0.0700 hc        1 1YY      0.102333
     63 H29        -1.5690    6.7550   -0.8150 hc        1 1YY      0.102333
     64 H30        -1.9350    5.4630   -1.6680 hc        1 1YY      0.102333
     65 H31         0.2960    6.6740    0.4110 ho        1 1YY      0.220000
@<TRIPOS>BOND
     1    1    2 1   
     2    1   36 1   
     3    1   37 1   
     4    1   38 1   
     5    2    3 1   
     6    2    7 1   
     7    2   39 1   
     8    3    4 1   
     9    3   40 1   
    10    3   41 1   
    11    4    5 1   
    12    5    6 1   
    13    5   42 1   
    14    5   43 1   
    15    6    7 1   
    16    6   44 1   
    17    6   45 1   
    18    7    8 1   
    19    8    9 1   
    20    8   46 1   
    21    8   47 1   
    22    9   10 1   
    23    9   22 1   
    24    9   48 1   
    25   10   11 1   
    26   10   49 1   
    27   10   50 1   
    28   11   12 1   
    29   11   20 1   
    30   12   13 1   
    31   12   14 1   
    32   15   16 1   
    33   15   19 1   
    34   16   17 1   
    35   17   18 1   
    36   18   19 1   
    37   20   21 1   
    38   20   54 1   
    39   20   55 1   
    40   21   22 1   
    41   21   56 1   
    42   21   57 1   
    43   22   23 1   
    44   23   24 1   
    45   23   26 1   
    46   24   25 1   
    47   24   58 1   
    48   25   59 1   
    49   26   60 1   
    50   27   28 1   
    51   27   61 1   
    52   28   29 1   
    53   29   30 1   
    54   29   34 1   
    55   29   35 1   
    56   30   31 1   
    57   30   32 1   
    58   30   33 1   
    59   34   62 1   
    60   34   63 1   
    61   34   64 1   
    62   35   65 1   
@<TRIPOS>SUBSTRUCTURE
     1 1YY         1 TEMP              0 ****  ****    0 ROOT
