@<TRIPOS>MOLECULE
1YY
   65    68     1     0     0
SMALL
bcc


@<TRIPOS>ATOM
      1 C22        -0.2090   -3.8480    0.6460 c3        1 1YY     -0.125100
      2 C21        -0.4750   -3.3290   -0.7670 c3        1 1YY      0.157500
      3 C20        -0.9600   -4.5130   -1.6340 c3        1 1YY      0.130400
      4 O4         -2.2900   -4.8950   -1.3100 os        1 1YY     -0.416600
      5 C19        -3.2100   -3.8170   -1.4420 c3        1 1YY      0.129400
      6 C18        -2.7860   -2.5990   -0.6100 c3        1 1YY      0.131800
      7 N3         -1.4110   -2.2110   -0.8800 n3        1 1YY     -0.751600
      8 C5         -0.9850   -0.9910   -0.2210 c3        1 1YY      0.157800
      9 C3         -0.6700    0.1360   -1.2550 c3        1 1YY      0.186500
     10 C2         -1.9870    0.7140   -1.8380 c3        1 1YY      0.220800
     11 N1         -2.6590    1.6390   -0.9620 n3        1 1YY     -0.815500
     12 S1         -4.2220    1.4820   -0.5190 sy        1 1YY      1.551200
     13 O1         -4.9420    2.6420   -0.8580 o         1 1YY     -0.654800
     14 O2         -4.7190    0.2600   -1.0280 o         1 1YY     -0.654800
     15 C6         -4.1420    1.3870    1.1430 cc        1 1YY     -0.495600
     16 C7         -4.4990    2.4900    1.9340 cd        1 1YY     -0.030000
     17 C8         -4.4170    2.2070    3.3160 cd        1 1YY     -0.180000
     18 C9         -4.0010    0.8970    3.5270 cc        1 1YY     -0.174100
     19 S2         -3.7470    0.1060    2.1150 ss        1 1YY      0.252200
     20 C1         -1.8000    2.6830   -0.4740 c3        1 1YY      0.230800
     21 C4         -0.4810    2.1530    0.1340 c3        1 1YY      0.172800
     22 N2          0.1870    1.1950   -0.7270 nh        1 1YY     -0.639000
     23 C10         1.5020    0.8290   -0.3630 ca        1 1YY      0.162600
     24 C15         2.0950    1.2440    0.8530 ca        1 1YY     -0.177000
     25 C14         3.4250    0.9570    1.1340 ca        1 1YY     -0.079000
     26 C11         2.3100    0.0940   -1.2660 ca        1 1YY     -0.177000
     27 C12         3.6350   -0.1890   -0.9680 ca        1 1YY     -0.079000
     28 C13         4.2170    0.2450    0.2290 ca        1 1YY     -0.171300
     29 C16         5.6420   -0.0990    0.5530 c3        1 1YY      0.201100
     30 C23         6.4900    1.2060    0.8980 c3        1 1YY      0.585900
     31 F2          6.1060    1.8800    2.0260 f         1 1YY     -0.237300
     32 F3          7.8200    0.9350    1.0990 f         1 1YY     -0.237300
     33 F1          6.4840    2.1420   -0.1040 f         1 1YY     -0.237300
     34 C17         5.7310   -1.0630    1.7300 c3        1 1YY     -0.092100
     35 O3          6.3120   -0.7210   -0.5290 oh        1 1YY     -0.571800
     36 H1         -1.1270   -4.3320    1.0590 hc        1 1YY      0.042033
     37 H2          0.6070   -4.6100    0.6100 hc        1 1YY      0.042033
     38 H3          0.1070   -3.0290    1.3340 hc        1 1YY      0.042033
     39 H4          0.5050   -2.9670   -1.2000 h1        1 1YY      0.058700
     40 H5         -0.8980   -4.2480   -2.7220 h1        1 1YY      0.053700
     41 H6         -0.3460   -5.4260   -1.4210 h1        1 1YY      0.053700
     42 H7         -3.3100   -3.5400   -2.5240 h1        1 1YY      0.057200
     43 H8         -4.1800   -4.2260   -1.0570 h1        1 1YY      0.057200
     44 H9         -3.4650   -1.7380   -0.8760 h1        1 1YY      0.050700
     45 H10        -2.9400   -2.8420    0.4820 h1        1 1YY      0.050700
     46 H12        -1.7780   -0.6150    0.4910 h1        1 1YY      0.037200
     47 H13        -0.0540   -1.1710    0.3900 h1        1 1YY      0.037200
     48 H14        -0.1210   -0.3290   -2.1280 h1        1 1YY      0.081700
     49 H15        -1.7320    1.2500   -2.7990 h1        1 1YY      0.074700
     50 H16        -2.6740   -0.1450   -2.0870 h1        1 1YY      0.074700
     51 H17        -4.8220    3.4530    1.5200 ha        1 1YY      0.181000
     52 H18        -4.6540    2.9270    4.1020 ha        1 1YY      0.165000
     53 H19        -3.8660    0.4460    4.5120 h4        1 1YY      0.182000
     54 H20        -1.5510    3.3870   -1.3200 h1        1 1YY      0.058200
     55 H21        -2.3400    3.2670    0.3260 h1        1 1YY      0.058200
     56 H22         0.2030    3.0370    0.2750 h1        1 1YY      0.043700
     57 H23        -0.7010    1.7110    1.1500 h1        1 1YY      0.043700
     58 H24         1.5150    1.8060    1.6010 ha        1 1YY      0.140500
     59 H25         3.8560    1.3010    2.0900 ha        1 1YY      0.143500
     60 H26         1.9010   -0.2520   -2.2280 ha        1 1YY      0.140500
     61 H27         4.2300   -0.7760   -1.6870 ha        1 1YY      0.143500
     62 H28         5.1810   -2.0010    1.4850 hc        1 1YY      0.064033
     63 H29         6.8010   -1.3120    1.9310 hc        1 1YY      0.064033
     64 H30         5.2800   -0.5860    2.6320 hc        1 1YY      0.064033
     65 H31         6.2940   -0.1030   -1.2740 ho        1 1YY      0.419000
@<TRIPOS>BOND
     1    1    2 1   
     2    1   36 1   
     3    1   37 1   
     4    1   38 1   
     5    2    3 1   
     6    2    7 1   
     7    2   39 1   
     8    3    4 1   
     9    3   40 1   
    10    3   41 1   
    11    4    5 1   
    12    5    6 1   
    13    5   42 1   
    14    5   43 1   
    15    6    7 1   
    16    6   44 1   
    17    6   45 1   
    18    7    8 1   
    19    8    9 1   
    20    8   46 1   
    21    8   47 1   
    22    9   10 1   
    23    9   22 1   
    24    9   48 1   
    25   10   11 1   
    26   10   49 1   
    27   10   50 1   
    28   11   12 1   
    29   11   20 1   
    30   12   13 2   
    31   12   14 2   
    32   12   15 1   
    33   15   16 2   
    34   15   19 1   
    35   16   17 1   
    36   16   51 1   
    37   17   18 2   
    38   17   52 1   
    39   18   19 1   
    40   18   53 1   
    41   20   21 1   
    42   20   54 1   
    43   20   55 1   
    44   21   22 1   
    45   21   56 1   
    46   21   57 1   
    47   22   23 1   
    48   23   24 ar  
    49   23   26 ar  
    50   24   25 ar  
    51   24   58 1   
    52   25   28 ar  
    53   25   59 1   
    54   26   27 ar  
    55   26   60 1   
    56   27   28 ar  
    57   27   61 1   
    58   28   29 1   
    59   29   30 1   
    60   29   34 1   
    61   29   35 1   
    62   30   31 1   
    63   30   32 1   
    64   30   33 1   
    65   34   62 1   
    66   34   63 1   
    67   34   64 1   
    68   35   65 1   
@<TRIPOS>SUBSTRUCTURE
     1 1YY         1 TEMP              0 ****  ****    0 ROOT
