@<TRIPOS>MOLECULE
1YZ
   44    46     1     0     0
SMALL
bcc


@<TRIPOS>ATOM
      1 N1          0.1170    0.2490   -0.1450 na        1 1YZ      0.296300
      2 N2          1.3820    0.5890   -0.0890 nc        1 1YZ     -0.419800
      3 C1          1.7880    0.4520    1.2300 cd        1 1YZ      0.137800
      4 C2          0.6580   -0.0090    2.0300 cd        1 1YZ     -0.073700
      5 C3         -0.4060   -0.1300    1.1040 cc        1 1YZ     -0.113300
      6 N3          0.6900   -0.2560    3.4010 ns        1 1YZ     -0.396100
      7 C4         -0.4350   -0.6880    4.0620 c         1 1YZ      0.646100
      8 N4         -0.3200   -0.9530    5.5630 nz        1 1YZ     -0.741400
      9 O1         -1.5590   -0.8970    3.6030 o         1 1YZ     -0.448100
     10 C5          3.1140    0.7140    1.7210 c         1 1YZ      0.513600
     11 N5          4.1300    1.1640    0.7030 nz        1 1YZ     -0.738400
     12 O2          3.5140    0.6110    2.8770 o         1 1YZ     -0.467100
     13 C6         -0.6680    0.2480   -1.3610 ca        1 1YZ     -0.110200
     14 C7         -1.5940    1.2670   -1.5550 ca        1 1YZ     -0.052000
     15 C8         -2.3760    1.2830   -2.7230 ca        1 1YZ     -0.157000
     16 C9         -2.2210    0.3030   -3.6800 ca        1 1YZ     -0.028000
     17 C10        -0.4720   -0.7900   -2.3310 ca        1 1YZ      0.042000
     18 C11        -1.2780   -0.7390   -3.5040 ca        1 1YZ     -0.081000
     19 C12        -1.1200   -1.7490   -4.4960 ca        1 1YZ     -0.051000
     20 C13        -0.2140   -2.7650   -4.3410 ca        1 1YZ     -0.179000
     21 C14         0.5840   -2.8140   -3.1640 ca        1 1YZ      0.192100
     22 C15         0.4550   -1.8450   -2.1740 ca        1 1YZ     -0.226000
     23 O3          1.5210   -3.7820   -2.9100 os        1 1YZ     -0.333900
     24 C16         1.6540   -4.8290   -3.8930 c3        1 1YZ      0.125400
     25 C17         2.7110   -5.7630   -3.3550 c3        1 1YZ     -0.103100
     26 H1         -1.4470   -0.4500    1.2350 h4        1 1YZ      0.245000
     27 H2          1.5670   -0.1120    3.8650 hn        1 1YZ      0.376500
     28 H4         -0.0590   -0.1030    6.0730 hn        1 1YZ      0.486467
     29 H3          0.3620   -1.6930    5.7590 hn        1 1YZ      0.486467
     30 H5          5.0400    1.3190    1.1570 hn        1 1YZ      0.485133
     31 H6          3.8170    2.0380    0.2600 hn        1 1YZ      0.485133
     32 H7         -1.7340    2.0720   -0.8140 ha        1 1YZ      0.150000
     33 H8         -3.1100    2.0940   -2.8620 ha        1 1YZ      0.170000
     34 H9         -2.8310    0.3200   -4.5990 ha        1 1YZ      0.167000
     35 H10        -1.7500   -1.6970   -5.4010 ha        1 1YZ      0.162000
     36 H11        -0.1050   -3.5370   -5.1190 ha        1 1YZ      0.166000
     37 H12         1.0840   -1.9320   -1.2800 ha        1 1YZ      0.132000
     38 H14         0.6680   -5.3510   -4.0100 h1        1 1YZ      0.053700
     39 H13         1.9680   -4.3750   -4.8700 h1        1 1YZ      0.053700
     40 H16         3.6800   -5.2260   -3.2210 hc        1 1YZ      0.058367
     41 H17         2.4000   -6.1850   -2.3700 hc        1 1YZ      0.058367
     42 H15         2.8550   -6.6000   -4.0810 hc        1 1YZ      0.058367
     43 H43        -1.2520   -1.2640    5.8850 hn        1 1YZ      0.486467
     44 H53         4.2310    0.4490   -0.0290 hn        1 1YZ      0.485133
@<TRIPOS>BOND
     1    1    2 1   
     2    1    5 1   
     3    1   13 1   
     4    2    3 2   
     5    3    4 1   
     6    3   10 1   
     7    4    5 2   
     8    4    6 1   
     9    5   26 1   
    10    6    7 1   
    11    6   27 1   
    12    7    8 1   
    13    7    9 2   
    14    8   28 1   
    15    8   29 1   
    16    8   43 1   
    17   10   11 1   
    18   10   12 2   
    19   11   30 1   
    20   11   31 1   
    21   11   44 1   
    22   13   14 ar  
    23   13   17 ar  
    24   14   15 ar  
    25   14   32 1   
    26   15   16 ar  
    27   15   33 1   
    28   16   18 ar  
    29   16   34 1   
    30   17   18 ar  
    31   17   22 ar  
    32   18   19 ar  
    33   19   20 ar  
    34   19   35 1   
    35   20   21 ar  
    36   20   36 1   
    37   21   22 ar  
    38   21   23 1   
    39   22   37 1   
    40   23   24 1   
    41   24   25 1   
    42   24   38 1   
    43   24   39 1   
    44   25   40 1   
    45   25   41 1   
    46   25   42 1   
@<TRIPOS>SUBSTRUCTURE
     1 1YZ         1 TEMP              0 ****  ****    0 ROOT
