@<TRIPOS>MOLECULE
1YZ
   44    46     1     0     0
SMALL
bcc


@<TRIPOS>ATOM
      1 N1          0.1080    0.2410   -0.1400 na        1 1YZ      0.296300
      2 N2          1.3730    0.5820   -0.0840 nc        1 1YZ     -0.419800
      3 C1          1.7800    0.4460    1.2350 cd        1 1YZ      0.137800
      4 C2          0.6490   -0.0140    2.0350 cd        1 1YZ     -0.072700
      5 C3         -0.4140   -0.1360    1.1100 cc        1 1YZ     -0.113300
      6 N3          0.6820   -0.2590    3.4070 n         1 1YZ     -0.396100
      7 C4         -0.4430   -0.6900    4.0690 c         1 1YZ      0.646100
      8 N4         -0.3280   -0.9530    5.5700 n4        1 1YZ     -0.741400
      9 O1         -1.5670   -0.8980    3.6100 o         1 1YZ     -0.448100
     10 C5          3.1050    0.7090    1.7250 c         1 1YZ      0.513600
     11 N5          4.1210    1.1580    0.7070 n4        1 1YZ     -0.738400
     12 O2          3.5060    0.6070    2.8820 o         1 1YZ     -0.467100
     13 C6         -0.6770    0.2390   -1.3550 ca        1 1YZ     -0.110200
     14 C7         -1.6110    1.2530   -1.5440 ca        1 1YZ     -0.053000
     15 C8         -2.3930    1.2680   -2.7130 ca        1 1YZ     -0.157000
     16 C9         -2.2300    0.2940   -3.6740 ca        1 1YZ     -0.028000
     17 C10        -0.4740   -0.7930   -2.3300 ca        1 1YZ      0.042000
     18 C11        -1.2800   -0.7430   -3.5030 ca        1 1YZ     -0.081000
     19 C12        -1.1150   -1.7470   -4.4990 ca        1 1YZ     -0.051000
     20 C13        -0.2030   -2.7580   -4.3480 ca        1 1YZ     -0.179000
     21 C14         0.5960   -2.8070   -3.1710 ca        1 1YZ      0.192100
     22 C15         0.4600   -1.8430   -2.1780 ca        1 1YZ     -0.226000
     23 O3          1.5390   -3.7690   -2.9220 os        1 1YZ     -0.333900
     24 C16         1.6780   -4.8120   -3.9090 c3        1 1YZ      0.125400
     25 C17         2.7410   -5.7420   -3.3750 c3        1 1YZ     -0.103100
     26 H1         -1.4550   -0.4560    1.2410 h4        1 1YZ      0.245000
     27 H2          1.5590   -0.1150    3.8710 hn        1 1YZ      0.376500
     28 H4         -1.2610   -1.2630    5.8930 hn        1 1YZ      0.486467
     29 H3         -0.0670   -0.1020    6.0790 hn        1 1YZ      0.486467
     30 H5          5.0320    1.3130    1.1610 hn        1 1YZ      0.485133
     31 H6          3.8080    2.0310    0.2630 hn        1 1YZ      0.485133
     32 H7         -1.7560    2.0530   -0.8000 ha        1 1YZ      0.150000
     33 H8         -3.1320    2.0740   -2.8480 ha        1 1YZ      0.170000
     34 H9         -2.8410    0.3100   -4.5930 ha        1 1YZ      0.167000
     35 H10        -1.7450   -1.6960   -5.4040 ha        1 1YZ      0.162000
     36 H11        -0.0890   -3.5250   -5.1300 ha        1 1YZ      0.166000
     37 H12         1.0890   -1.9300   -1.2840 ha        1 1YZ      0.132000
     38 H14         0.6960   -5.3390   -4.0280 h1        1 1YZ      0.053700
     39 H13         1.9890   -4.3520   -4.8830 h1        1 1YZ      0.053700
     40 H16         2.8900   -6.5750   -4.1040 hc        1 1YZ      0.058367
     41 H17         2.4320   -6.1700   -2.3910 hc        1 1YZ      0.058367
     42 H15         3.7070   -5.2000   -3.2380 hc        1 1YZ      0.058367
     43 H43         0.3540   -1.6940    5.7670 hn        1 1YZ      0.486467
     44 H53         4.2230    0.4410   -0.0240 hn        1 1YZ      0.485133
@<TRIPOS>BOND
     1    1    2 1   
     2    1    5 1   
     3    1   13 1   
     4    2    3 2   
     5    3    4 1   
     6    3   10 1   
     7    4    5 2   
     8    4    6 1   
     9    5   26 1   
    10    6    7 1   
    11    6   27 1   
    12    7    8 1   
    13    7    9 2   
    14    8   28 1   
    15    8   29 1   
    16    8   43 1   
    17   10   11 1   
    18   10   12 2   
    19   11   30 1   
    20   11   31 1   
    21   11   44 1   
    22   13   14 ar  
    23   13   17 ar  
    24   14   15 ar  
    25   14   32 1   
    26   15   16 ar  
    27   15   33 1   
    28   16   18 ar  
    29   16   34 1   
    30   17   18 ar  
    31   17   22 ar  
    32   18   19 ar  
    33   19   20 ar  
    34   19   35 1   
    35   20   21 ar  
    36   20   36 1   
    37   21   22 ar  
    38   21   23 1   
    39   22   37 1   
    40   23   24 1   
    41   24   25 1   
    42   24   38 1   
    43   24   39 1   
    44   25   40 1   
    45   25   41 1   
    46   25   42 1   
@<TRIPOS>SUBSTRUCTURE
     1 1YZ         1 TEMP              0 ****  ****    0 ROOT
