@<TRIPOS>MOLECULE
1YZ
   45    47     1     0     0
SMALL
bcc


@<TRIPOS>ATOM
      1 N1         -0.1190   -0.2330    0.0240 na        1 1YZ      0.328300
      2 N2          1.1950   -0.0330    0.0620 nc        1 1YZ     -0.369800
      3 C1          1.5940   -0.0960    1.3720 cd        1 1YZ      0.216800
      4 C2          0.4280   -0.3660    2.2110 cd        1 1YZ     -0.253700
      5 C3         -0.6610   -0.4430    1.2910 cc        1 1YZ     -0.034300
      6 N3          0.4170   -0.5520    3.6270 n4        1 1YZ     -0.438200
      7 C4         -0.0230    0.6890    4.3880 c         1 1YZ      0.455100
      8 N4         -0.3470    0.5540    5.8450 n4        1 1YZ     -0.733400
      9 O1         -0.1130    1.7800    3.8590 o         1 1YZ     -0.254100
     10 C5          2.9630    0.0400    1.8430 c         1 1YZ      0.507600
     11 N5          4.0320    0.2790    0.8320 n4        1 1YZ     -0.726400
     12 O2          3.2880   -0.0350    3.0270 o         1 1YZ     -0.466100
     13 C6         -0.9090   -0.2200   -1.1770 ca        1 1YZ     -0.154200
     14 C7         -2.0250    0.6360   -1.2100 ca        1 1YZ     -0.053000
     15 C8         -2.8020    0.7170   -2.3630 ca        1 1YZ     -0.151000
     16 C9         -2.4780   -0.0420   -3.4820 ca        1 1YZ      0.021000
     17 C10        -0.5580   -1.0420   -2.2990 ca        1 1YZ      0.072000
     18 C11        -1.3770   -0.9180   -3.4660 ca        1 1YZ     -0.097000
     19 C12        -1.0670   -1.7070   -4.6170 ca        1 1YZ     -0.022000
     20 C13        -0.0220   -2.5900   -4.6170 ca        1 1YZ     -0.185000
     21 C14         0.7720   -2.7320   -3.4430 ca        1 1YZ      0.236100
     22 C15         0.5000   -1.9690   -2.3010 ca        1 1YZ     -0.252000
     23 O3          1.8260   -3.5840   -3.3290 os        1 1YZ     -0.328900
     24 C16         2.1120   -4.4410   -4.4630 c3        1 1YZ      0.125400
     25 C17         3.2760   -5.3010   -4.0370 c3        1 1YZ     -0.107100
     26 H1         -1.7330   -0.6410    1.4370 h4        1 1YZ      0.248000
     27 H2         -0.2150   -1.3440    3.8470 hn        1 1YZ      0.509800
     28 H4         -1.1520   -0.0740    6.0050 hn        1 1YZ      0.518800
     29 H3          0.4630    0.2150    6.3910 hn        1 1YZ      0.518800
     30 H5          4.9540    0.3560    1.2990 hn        1 1YZ      0.505467
     31 H6          3.8450    1.1510    0.3110 hn        1 1YZ      0.505467
     32 H7         -2.2880    1.2680   -0.3460 ha        1 1YZ      0.141000
     33 H8         -3.6700    1.3980   -2.3870 ha        1 1YZ      0.186000
     34 H9         -3.0940    0.0390   -4.3990 ha        1 1YZ      0.185000
     35 H10        -1.7000   -1.5910   -5.5160 ha        1 1YZ      0.178000
     36 H11         0.2020   -3.1900   -5.5140 ha        1 1YZ      0.183000
     37 H12         1.1270   -2.1480   -1.4200 ha        1 1YZ      0.125000
     38 H14         2.3740   -3.7960   -5.3420 h1        1 1YZ      0.064700
     39 H13         1.2040   -5.0580   -4.6880 h1        1 1YZ      0.064700
     40 H16         4.1660   -4.6730   -3.7950 hc        1 1YZ      0.065367
     41 H17         3.0120   -5.9090   -3.1390 hc        1 1YZ      0.065367
     42 H15         3.5360   -5.9900   -4.8780 hc        1 1YZ      0.065367
     43 H32         1.3900   -0.7850    3.9290 hn        1 1YZ      0.509800
     44 H43        -0.6040    1.5010    6.2080 hn        1 1YZ      0.518800
     45 H53         4.0650   -0.5010    0.1550 hn        1 1YZ      0.505467
@<TRIPOS>BOND
     1    1    2 1   
     2    1    5 1   
     3    1   13 1   
     4    2    3 2   
     5    3    4 1   
     6    3   10 1   
     7    4    5 2   
     8    4    6 1   
     9    5   26 1   
    10    6    7 1   
    11    6   27 1   
    12    6   43 1   
    13    7    8 1   
    14    7    9 2   
    15    8   28 1   
    16    8   29 1   
    17    8   44 1   
    18   10   11 1   
    19   10   12 2   
    20   11   30 1   
    21   11   31 1   
    22   11   45 1   
    23   13   14 ar  
    24   13   17 ar  
    25   14   15 ar  
    26   14   32 1   
    27   15   16 ar  
    28   15   33 1   
    29   16   18 ar  
    30   16   34 1   
    31   17   18 ar  
    32   17   22 ar  
    33   18   19 ar  
    34   19   20 ar  
    35   19   35 1   
    36   20   21 ar  
    37   20   36 1   
    38   21   22 ar  
    39   21   23 1   
    40   22   37 1   
    41   23   24 1   
    42   24   25 1   
    43   24   38 1   
    44   24   39 1   
    45   25   40 1   
    46   25   41 1   
    47   25   42 1   
@<TRIPOS>SUBSTRUCTURE
     1 1YZ         1 TEMP              0 ****  ****    0 ROOT
