@<TRIPOS>MOLECULE
1Z0
   76    79     1     0     0
SMALL
bcc


@<TRIPOS>ATOM
      1 N          -4.7200    1.3740   -0.9100 n3        1 1Z0     -0.805200
      2 C3         -4.7490    0.0140   -0.4030 c3        1 1Z0      0.122500
      3 C          -3.4780   -0.3570    0.4060 c         1 1Z0      0.631100
      4 O          -2.8450    0.5260    1.0240 o         1 1Z0     -0.632100
      5 C'         -5.9570   -0.2350    0.5220 c3        1 1Z0     -0.032100
      6 C1'        -7.2310   -0.3020   -0.2430 ca        1 1Z0     -0.075300
      7 C2'        -7.7550   -1.5420   -0.6280 ca        1 1Z0     -0.117000
      8 C6'        -7.9240    0.8680   -0.5740 ca        1 1Z0     -0.117000
      9 C3'        -8.9570   -1.6110   -1.3310 ca        1 1Z0     -0.132500
     10 C5'        -9.1250    0.7960   -1.2790 ca        1 1Z0     -0.132500
     11 C4'        -9.6440   -0.4420   -1.6570 ca        1 1Z0     -0.132000
     12 C1         -3.7000    1.6090   -1.9030 c3        1 1Z0      0.135100
     13 N1         -3.0880   -1.6770    0.4810 n         1 1Z0     -0.453800
     14 CA         -1.8490   -2.0930    1.1250 c3        1 1Z0      0.038700
     15 C2         -0.5950   -1.4210    0.5130 c         1 1Z0      0.647100
     16 O1         -0.4720   -1.3020   -0.7210 o         1 1Z0     -0.604100
     17 CB         -1.7340   -3.6230    0.9370 c3        1 1Z0     -0.080400
     18 CG         -2.8760   -4.0310    0.0110 c3        1 1Z0     -0.085400
     19 CD         -3.6460   -2.7440   -0.3290 c3        1 1Z0      0.093000
     20 N2          0.3900   -1.0380    1.3970 n         1 1Z0     -0.541900
     21 CA1         1.5030   -0.2030    0.9950 c3        1 1Z0      0.014700
     22 CB1         1.2780    1.2990    1.2660 c3        1 1Z0     -0.093400
     23 CG1         0.1800    1.8610    0.3920 c3        1 1Z0     -0.092400
     24 CD1        -0.3780    3.1600    0.9820 c3        1 1Z0      0.190800
     25 NE         -1.6810    3.4760    0.4240 nh        1 1Z0     -0.801200
     26 CZ         -2.3540    4.6390    0.9300 c2        1 1Z0      0.742100
     27 NH1        -1.7750    5.4450    1.7870 n2        1 1Z0     -0.871100
     28 NH2        -3.6890    4.8260    0.4160 nh        1 1Z0     -0.934800
     29 N5          4.2430    0.2020   -0.0660 nc        1 1Z0     -0.496100
     30 S5          5.3730   -1.5800    1.4510 ss        1 1Z0      0.007900
     31 C5          4.0350   -0.5750    0.9960 cd        1 1Z0      0.221200
     32 C61         5.5310   -0.0060   -0.5560 ca        1 1Z0      0.045400
     33 C62         6.2970   -0.9830    0.1730 ca        1 1Z0     -0.083100
     34 C63         7.5980   -1.2940   -0.2230 ca        1 1Z0     -0.091000
     35 C64         8.1520   -0.6540   -1.3250 ca        1 1Z0     -0.093600
     36 C65         7.4030    0.3080   -2.0370 ca        1 1Z0     -0.103000
     37 C66         6.1130    0.6390   -1.6720 ca        1 1Z0     -0.102000
     38 C11         9.5740   -0.9870   -1.7720 c         1 1Z0      0.907200
     39 O11        10.2040   -1.8570   -1.1110 o         1 1Z0     -0.818300
     40 O2         10.0280   -0.3720   -2.7750 o         1 1Z0     -0.818300
     41 C4          2.7750   -0.6090    1.7560 c         1 1Z0      0.521800
     42 H          -4.6150    2.0170   -0.1420 hn        1 1Z0      0.370800
     43 H3         -4.8290   -0.6720   -1.2980 h1        1 1Z0      0.080700
     44 H'C1       -5.7920   -1.2050    1.0650 hc        1 1Z0      0.061200
     45 H'C2       -6.0160    0.5750    1.2970 hc        1 1Z0      0.061200
     46 H2'        -7.2160   -2.4670   -0.3720 ha        1 1Z0      0.133500
     47 H6'        -7.5090    1.8450   -0.2860 ha        1 1Z0      0.133500
     48 H3'        -9.3620   -2.5890   -1.6290 ha        1 1Z0      0.128500
     49 H5'        -9.6620    1.7200   -1.5380 ha        1 1Z0      0.128500
     50 H4'       -10.5910   -0.4960   -2.2120 ha        1 1Z0      0.127000
     51 H1C1       -3.7450    2.6890   -2.2030 h1        1 1Z0      0.042367
     52 H1C2       -2.6590    1.3820   -1.5390 h1        1 1Z0      0.042367
     53 H1C3       -3.9080    0.9760   -2.8040 h1        1 1Z0      0.042367
     54 HA         -1.9340   -1.8270    2.2180 h1        1 1Z0      0.075700
     55 HB2        -0.7440   -3.8890    0.4920 hc        1 1Z0      0.066200
     56 HB3        -1.8190   -4.1310    1.9280 hc        1 1Z0      0.066200
     57 HG2        -2.4830   -4.5010   -0.9230 hc        1 1Z0      0.055700
     58 HG3        -3.5510   -4.7670    0.5120 hc        1 1Z0      0.055700
     59 HD2        -4.7410   -2.8540   -0.0950 h1        1 1Z0      0.046200
     60 HD3        -3.5410   -2.5080   -1.4250 h1        1 1Z0      0.046200
     61 H1          0.1940   -1.0490    2.3720 hn        1 1Z0      0.315500
     62 HA1         1.6580   -0.3520   -0.1170 h1        1 1Z0      0.123700
     63 HB1         1.0370    1.4460    2.3520 hc        1 1Z0      0.062200
     64 HB21        2.2400    1.8370    1.0570 hc        1 1Z0      0.062200
     65 HG1         0.5810    2.0560   -0.6370 hc        1 1Z0      0.059200
     66 HG21       -0.6480    1.1070    0.2790 hc        1 1Z0      0.059200
     67 HD1        -0.4240    3.0670    2.1060 h1        1 1Z0      0.050700
     68 HD21        0.3200    4.0100    0.7420 h1        1 1Z0      0.050700
     69 HE         -2.2820    2.6670    0.4240 hn        1 1Z0      0.406800
     70 HH11       -2.2830    6.2750    2.0010 hn        1 1Z0      0.381400
     71 HH21       -3.9010    4.2870   -0.3980 hn        1 1Z0      0.380800
     72 HH22       -3.9180    5.7870    0.2810 hn        1 1Z0      0.380800
     73 H63         8.2060   -2.0400    0.3160 ha        1 1Z0      0.167000
     74 H65         7.8930    0.7870   -2.9030 ha        1 1Z0      0.164000
     75 H66         5.5350    1.3870   -2.2310 ha        1 1Z0      0.131000
     76 O3          2.7320   -0.9410    2.9460 o         1 1Z0     -0.541100
@<TRIPOS>BOND
     1    1    2 1   
     2    1   12 1   
     3    1   42 1   
     4    2    3 1   
     5    2    5 1   
     6    2   43 1   
     7    3    4 2   
     8    3   13 1   
     9    5    6 1   
    10    5   44 1   
    11    5   45 1   
    12    6    7 ar  
    13    6    8 ar  
    14    7    9 ar  
    15    7   46 1   
    16    8   10 ar  
    17    8   47 1   
    18    9   11 ar  
    19    9   48 1   
    20   10   11 ar  
    21   10   49 1   
    22   11   50 1   
    23   12   51 1   
    24   12   52 1   
    25   12   53 1   
    26   13   14 1   
    27   13   19 1   
    28   14   15 1   
    29   14   17 1   
    30   14   54 1   
    31   15   16 2   
    32   15   20 1   
    33   17   18 1   
    34   17   55 1   
    35   17   56 1   
    36   18   19 1   
    37   18   57 1   
    38   18   58 1   
    39   19   59 1   
    40   19   60 1   
    41   20   21 1   
    42   20   61 1   
    43   21   22 1   
    44   21   41 1   
    45   21   62 1   
    46   22   23 1   
    47   22   63 1   
    48   22   64 1   
    49   23   24 1   
    50   23   65 1   
    51   23   66 1   
    52   24   25 1   
    53   24   67 1   
    54   24   68 1   
    55   25   26 1   
    56   25   69 1   
    57   26   27 2   
    58   26   28 1   
    59   27   70 1   
    60   28   71 1   
    61   28   72 1   
    62   29   31 2   
    63   29   32 1   
    64   30   31 1   
    65   30   33 1   
    66   31   41 1   
    67   32   33 ar  
    68   32   37 ar  
    69   33   34 ar  
    70   34   35 ar  
    71   34   73 1   
    72   35   36 ar  
    73   35   38 1   
    74   36   37 ar  
    75   36   74 1   
    76   37   75 1   
    77   38   39 1   
    78   38   40 1   
    79   41   76 2   
@<TRIPOS>SUBSTRUCTURE
     1 1Z0         1 TEMP              0 ****  ****    0 ROOT
