@<TRIPOS>MOLECULE
1Z0
   76    72     1     0     0
SMALL
bcc


@<TRIPOS>ATOM
      1 N          -1.9290    0.2980   -4.2270 n3        1 1Z0     -0.311000
      2 C3         -0.9500   -0.6690   -3.8300 c3        1 1Z0     -0.019000
      3 C          -1.3860   -1.3320   -2.5450 c2        1 1Z0      0.313000
      4 O          -2.5510   -1.5590   -2.3500 o         1 1Z0     -0.396000
      5 C'         -0.8040   -1.7210   -4.9230 c3        1 1Z0     -0.154000
      6 C1'        -0.2650   -1.0540   -6.2150 c2        1 1Z0     -0.072000
      7 C2'         1.1290   -0.8140   -6.3580 c1        1 1Z0     -0.133000
      8 C6'        -1.1320   -0.7290   -7.2430 c2        1 1Z0     -0.124000
      9 C3'         1.6180   -0.2570   -7.5230 c1        1 1Z0     -0.132500
     10 C5'        -0.6330   -0.1640   -8.4220 c1        1 1Z0     -0.128000
     11 C4'         0.7500    0.0710   -8.5580 c1        1 1Z0     -0.132500
     12 C1         -1.3980    1.5940   -4.0820 c3        1 1Z0     -0.123000
     13 N1         -0.3910   -1.7010   -1.5430 n         1 1Z0     -0.316000
     14 CA         -0.6690   -2.4080   -0.1280 c3        1 1Z0      0.012000
     15 C2         -1.3590   -1.4480    0.7930 c2        1 1Z0      0.293000
     16 O1         -2.1080   -0.5890    0.3370 o         1 1Z0     -0.374000
     17 CB          0.5540   -2.7410    0.2520 c3        1 1Z0     -0.163000
     18 CG          1.5670   -1.6900   -0.4440 c3        1 1Z0     -0.169000
     19 CD          1.1210   -1.4740   -1.6270 c3        1 1Z0     -0.016000
     20 N2         -1.1700   -1.5650    2.2510 n         1 1Z0     -0.356000
     21 CA1        -1.1020   -0.3890    3.0680 c3        1 1Z0     -0.021000
     22 CB1        -0.9380   -0.7980    4.5090 c3        1 1Z0     -0.177000
     23 CG1         0.5210   -1.1210    4.7830 c3        1 1Z0     -0.184000
     24 CD1         0.6400   -1.8440    6.1550 c3        1 1Z0     -0.055000
     25 NE          0.8460   -3.2640    5.9450 n3        1 1Z0     -0.336000
     26 CZ          1.0960   -4.1000    7.0430 c2        1 1Z0      0.151000
     27 NH1         2.1930   -3.9630    7.7270 n1        1 1Z0     -0.348000
     28 NH2         0.1520   -5.0890    7.4090 n3        1 1Z0     -0.326000
     29 N5          1.0910    2.4380    1.8590 n2        1 1Z0     -0.049000
     30 S5         -1.1710    3.0690    2.4090 ss        1 1Z0      0.404000
     31 C5         -0.1310    1.9100    2.3610 c1        1 1Z0     -0.351000
     32 C61         0.8800    4.0100    1.5540 c1        1 1Z0     -0.100000
     33 C62        -0.4600    4.3580    1.8860 c1        1 1Z0     -0.299000
     34 C63        -0.8830    5.7010    1.7820 c1        1 1Z0     -0.088000
     35 C64         0.0150    6.6860    1.3530 c1        1 1Z0     -0.075000
     36 C65         1.3440    6.3340    1.0250 c1        1 1Z0     -0.105000
     37 C66         1.7670    4.9860    1.1300 c1        1 1Z0     -0.100000
     38 C11        -0.4560    8.1790    1.2350 c2        1 1Z0      0.357000
     39 O11        -0.3820    8.9350    2.2230 o         1 1Z0     -0.553000
     40 O2         -0.8980    8.6290    0.1130 o         1 1Z0     -0.553000
     41 O3          1.1480   -0.0880    2.4440 o         1 1Z0     -0.262000
     42 C4          0.0600    0.4410    2.6520 c1        1 1Z0      0.295000
     43 H          -2.1740    0.1520   -5.1360 hn        1 1Z0      0.181000
     44 H3         -0.0730   -0.2170   -3.6870 h1        1 1Z0      0.107000
     45 H'C1       -1.7050   -2.1390   -5.1100 hc        1 1Z0      0.114500
     46 H'C2       -0.1590   -2.4320   -4.6210 hc        1 1Z0      0.114500
     47 H2'         1.7990   -1.2130   -5.6550 ha        1 1Z0      0.129000
     48 H6'        -2.1140   -1.0000   -7.1860 ha        1 1Z0      0.141000
     49 H3'         2.6390   -0.0820   -7.6270 ha        1 1Z0      0.128000
     50 H5'        -1.2310    0.0610   -9.1360 ha        1 1Z0      0.132000
     51 H4'         1.1010    0.4650   -9.3820 ha        1 1Z0      0.128000
     52 H1C1       -0.4840    1.6230   -4.4570 h1        1 1Z0      0.074333
     53 H1C2       -1.9770    2.2440   -4.5680 h1        1 1Z0      0.074333
     54 H1C3       -1.3680    1.8360   -3.1110 h1        1 1Z0      0.074333
     55 HA         -1.2860   -3.1900   -0.1040 h1        1 1Z0      0.122000
     56 HB2         0.6250   -2.6820    1.2160 hc        1 1Z0      0.110000
     57 HB3         0.7670   -3.6900   -0.0570 hc        1 1Z0      0.110000
     58 HG2         2.4640   -2.0640   -0.4850 hc        1 1Z0      0.092500
     59 HG3         1.5790   -0.8350    0.0770 hc        1 1Z0      0.092500
     60 HD2         1.5080   -2.0820   -2.2350 h1        1 1Z0      0.090500
     61 HD3         1.3100   -0.5530   -1.9030 h1        1 1Z0      0.090500
     62 H1         -1.0610   -2.4370    2.6530 hn        1 1Z0      0.259000
     63 HA1        -1.9380    0.1380    2.9650 h1        1 1Z0      0.149000
     64 HB1        -1.4580   -1.5510    4.6760 hc        1 1Z0      0.097500
     65 HB21       -1.2060   -0.1090    5.0590 hc        1 1Z0      0.097500
     66 HG1         1.0380   -0.2940    4.8060 hc        1 1Z0      0.111500
     67 HG21        0.8640   -1.7020    4.0770 hc        1 1Z0      0.111500
     68 HD1        -0.2270   -1.6990    6.6960 h1        1 1Z0      0.082000
     69 HD21        1.3750   -1.4900    6.6350 h1        1 1Z0      0.082000
     70 HE          0.7530   -3.6180    5.1220 hn        1 1Z0      0.197000
     71 HH11        2.7950   -3.3300    7.4940 DU        1 1Z0      0.152000
     72 HH21        0.3980   -5.7760    8.0150 hn        1 1Z0      0.182500
     73 HH22       -0.6590   -5.1120    7.0030 hn        1 1Z0      0.182500
     74 H63        -1.8330    5.9570    2.0420 ha        1 1Z0      0.167000
     75 H65         1.9560    7.0030    0.7340 ha        1 1Z0      0.164000
     76 H66         2.6620    4.7490    0.9090 ha        1 1Z0      0.131000
@<TRIPOS>BOND
     1    1    2 1   
     2    1   12 1   
     3    1   43 1   
     4    2    3 1   
     5    2    5 1   
     6    2   44 1   
     7    3    4 1   
     8    3   13 1   
     9    5    6 1   
    10    5   45 1   
    11    5   46 1   
    12    6    7 1   
    13    6    8 1   
    14    7   47 1   
    15    8   10 1   
    16    8   48 1   
    17    9   11 1   
    18    9   49 1   
    19   10   50 1   
    20   11   51 1   
    21   12   52 1   
    22   12   53 1   
    23   12   54 1   
    24   13   14 1   
    25   13   19 1   
    26   14   15 1   
    27   14   17 1   
    28   14   55 1   
    29   15   16 1   
    30   15   20 1   
    31   17   18 1   
    32   17   56 1   
    33   17   57 1   
    34   18   19 1   
    35   18   58 1   
    36   18   59 1   
    37   19   60 1   
    38   19   61 1   
    39   20   21 1   
    40   20   62 1   
    41   21   22 1   
    42   21   42 1   
    43   21   63 1   
    44   22   23 1   
    45   22   64 1   
    46   22   65 1   
    47   23   24 1   
    48   23   66 1   
    49   23   67 1   
    50   24   25 1   
    51   24   68 1   
    52   24   69 1   
    53   25   26 1   
    54   25   70 1   
    55   26   27 1   
    56   26   28 1   
    57   28   72 1   
    58   28   73 1   
    59   29   31 1   
    60   29   32 1   
    61   30   31 1   
    62   30   33 1   
    63   32   37 1   
    64   33   34 1   
    65   34   74 1   
    66   35   36 1   
    67   35   38 1   
    68   36   75 1   
    69   37   76 1   
    70   38   39 1   
    71   38   40 1   
    72   41   42 1   
@<TRIPOS>SUBSTRUCTURE
     1 1Z0         1 TEMP              0 ****  ****    0 ROOT
