@<TRIPOS>MOLECULE
1Z6
   22    23     1     0     0
SMALL
bcc


@<TRIPOS>ATOM
      1 C1          0.0430    0.2430   -0.0890 c3        1 1Z6     -0.126400
      2 C2          1.5080    0.0940   -0.0170 cc        1 1Z6      0.328600
      3 N4          3.5750   -0.1080   -0.6470 na        1 1Z6     -0.014600
      4 C6          3.6300   -0.1640    0.7430 cd        1 1Z6     -0.133300
      5 C7          2.3030   -0.0330    1.1990 cc        1 1Z6     -0.211300
      6 C8          1.8630   -0.0380    2.5690 ca        1 1Z6     -0.004000
      7 C10         0.3710    0.7600    4.3130 ca        1 1Z6     -0.163000
      8 C11         1.0360   -0.0520    5.2500 ca        1 1Z6      0.119900
      9 C13         2.1170   -0.8560    4.8440 ca        1 1Z6     -0.163000
     10 C14         2.5200   -0.8420    3.5150 ca        1 1Z6     -0.103000
     11 N3          2.3330    0.0410   -1.1060 nd        1 1Z6     -0.517800
     12 C9          0.7890    0.7620    2.9870 ca        1 1Z6     -0.103000
     13 F12         0.6350   -0.0600    6.5440 f         1 1Z6     -0.141900
     14 H1         -0.2310    1.3280   -0.0590 hc        1 1Z6      0.053033
     15 H2         -0.4310   -0.2720    0.7830 hc        1 1Z6      0.053033
     16 H3         -0.3690   -0.1960   -1.0320 hc        1 1Z6      0.053033
     17 H4          4.3370   -0.1610   -1.2810 hn        1 1Z6      0.323700
     18 H5          4.5640   -0.2800    1.2910 h4        1 1Z6      0.178000
     19 H6         -0.4700    1.3890    4.6380 ha        1 1Z6      0.148000
     20 H7          2.6310   -1.4890    5.5820 ha        1 1Z6      0.148000
     21 H8          3.3620   -1.4750    3.1960 ha        1 1Z6      0.139000
     22 H9          0.2750    1.4070    2.2570 ha        1 1Z6      0.139000
@<TRIPOS>BOND
     1    1    2 1   
     2    1   14 1   
     3    1   15 1   
     4    1   16 1   
     5    2    5 1   
     6    2   11 2   
     7    3    4 1   
     8    3   11 1   
     9    3   17 1   
    10    4    5 2   
    11    4   18 1   
    12    5    6 1   
    13    6   10 ar  
    14    6   12 ar  
    15    7    8 ar  
    16    7   12 ar  
    17    7   19 1   
    18    8    9 ar  
    19    8   13 1   
    20    9   10 ar  
    21    9   20 1   
    22   10   21 1   
    23   12   22 1   
@<TRIPOS>SUBSTRUCTURE
     1 1Z6         1 TEMP              0 ****  ****    0 ROOT
