@<TRIPOS>MOLECULE
1Z6
   22    23     1     0     0
SMALL
bcc


@<TRIPOS>ATOM
      1 C1          0.0380    0.2200   -0.0880 c3        1 1Z6     -0.126400
      2 C2          1.5040    0.0800   -0.0170 cc        1 1Z6      0.328600
      3 N4          3.5710   -0.1140   -0.6490 na        1 1Z6     -0.014600
      4 C6          3.6290   -0.1610    0.7400 cd        1 1Z6     -0.133300
      5 C7          2.3020   -0.0350    1.1980 cc        1 1Z6     -0.211300
      6 C8          1.8640   -0.0330    2.5690 ca        1 1Z6     -0.003000
      7 C10         0.3700    0.7660    4.3110 ca        1 1Z6     -0.163000
      8 C11         1.0410   -0.0360    5.2510 ca        1 1Z6      0.119900
      9 C13         2.1270   -0.8360    4.8490 ca        1 1Z6     -0.163000
     10 C14         2.5270   -0.8280    3.5190 ca        1 1Z6     -0.103000
     11 N3          2.3270    0.0260   -1.1070 nd        1 1Z6     -0.517800
     12 C9          0.7850    0.7620    2.9840 ca        1 1Z6     -0.103000
     13 F12         0.6430   -0.0390    6.5460 f         1 1Z6     -0.141900
     14 H1         -0.2420    1.3040   -0.0630 hc        1 1Z6      0.053033
     15 H2         -0.4310   -0.2920    0.7880 hc        1 1Z6      0.053033
     16 H3         -0.3730   -0.2270   -1.0280 hc        1 1Z6      0.053033
     17 H4          4.3320   -0.1660   -1.2840 hn        1 1Z6      0.323700
     18 H5          4.5640   -0.2680    1.2880 h4        1 1Z6      0.178000
     19 H6         -0.4750    1.3910    4.6330 ha        1 1Z6      0.148000
     20 H7          2.6460   -1.4610    5.5900 ha        1 1Z6      0.148000
     21 H8          3.3730   -1.4570    3.2020 ha        1 1Z6      0.139000
     22 H9          0.2660    1.3990    2.2510 ha        1 1Z6      0.139000
@<TRIPOS>BOND
     1    1    2 1   
     2    1   14 1   
     3    1   15 1   
     4    1   16 1   
     5    2    5 1   
     6    2   11 2   
     7    3    4 1   
     8    3   11 1   
     9    3   17 1   
    10    4    5 2   
    11    4   18 1   
    12    5    6 1   
    13    6   10 ar  
    14    6   12 ar  
    15    7    8 ar  
    16    7   12 ar  
    17    7   19 1   
    18    8    9 ar  
    19    8   13 1   
    20    9   10 ar  
    21    9   20 1   
    22   10   21 1   
    23   12   22 1   
@<TRIPOS>SUBSTRUCTURE
     1 1Z6         1 TEMP              0 ****  ****    0 ROOT
