@<TRIPOS>MOLECULE
1Z7
   91    89     1     0     0
SMALL
bcc


@<TRIPOS>ATOM
      1 CA          5.8090   -1.5110    5.4120 c3        1 1Z7     -0.179000
      2 CB          6.9800   -0.4630    5.4950 c3        1 1Z7     -0.104000
      3 CG1         6.4280    0.8850    5.9660 c3        1 1Z7     -0.218000
      4 CG2         8.0500   -0.9630    6.5000 c3        1 1Z7     -0.218000
      5 C           5.5100   -1.8450    3.9030 c2        1 1Z7      0.297000
      6 O           6.3670   -1.6660    3.0620 o         1 1Z7     -0.373000
      7 N           4.2480   -2.4890    3.5340 n         1 1Z7     -0.340000
      8 CA1         3.8460   -2.5350    2.1810 c3        1 1Z7     -0.007000
      9 C1          2.4910   -1.8080    2.0240 c2        1 1Z7      0.272000
     10 O1          1.6190   -1.9670    2.8520 o         1 1Z7     -0.390000
     11 CB1         3.6960   -3.9650    1.7540 c3        1 1Z7     -0.110000
     12 CG11        4.9760   -4.4260    1.0210 c3        1 1Z7     -0.210500
     13 CG21        3.4780   -4.8230    2.9560 c3        1 1Z7     -0.210500
     14 N1          2.2710   -0.8820    0.8900 n         1 1Z7     -0.325000
     15 CA2         1.0880   -0.0470    0.8570 c3        1 1Z7     -0.011000
     16 C2          0.3950   -0.2000   -0.4930 c2        1 1Z7      0.271000
     17 O2          1.0030   -0.6630   -1.4360 o         1 1Z7     -0.418000
     18 CB2         1.4800    1.3810    1.0560 c3        1 1Z7     -0.115000
     19 CG12        0.9420    1.8810    2.4130 c3        1 1Z7     -0.208500
     20 CG22        2.9820    1.4940    1.0380 c3        1 1Z7     -0.208500
     21 CA3        -1.7350   -0.2360   -1.8040 c3        1 1Z7     -0.618000
     22 CB3        -3.0000   -1.0050   -1.4430 c3        1 1Z7     -0.148000
     23 CG         -2.6670   -2.5030   -1.2800 c3        1 1Z7     -0.114000
     24 CD1        -3.4900   -3.0930   -0.0620 c3        1 1Z7     -0.200500
     25 CD2        -3.0510   -3.2670   -2.5890 c3        1 1Z7     -0.200500
     26 N2         -1.0430    0.1140   -0.6250 n         1 1Z7     -0.298000
     27 P          -2.1850    1.2820   -2.7220 p5        1 1Z7      1.965000
     28 O11        -2.2320    2.4490   -1.7700 o         1 1Z7     -0.837500
     29 O21        -1.1510    1.5480   -3.7940 o         1 1Z7     -0.837500
     30 CA4        -4.3880    2.2310   -3.7100 c3        1 1Z7      0.120000
     31 CB4        -5.6460    1.8170   -4.4750 c3        1 1Z7     -0.147000
     32 CG3        -5.9940    2.9100   -5.5590 c2        1 1Z7     -0.071000
     33 CD11       -6.0430    2.5520   -6.9080 c2        1 1Z7     -0.118000
     34 CD21       -6.4110    4.1800   -5.1600 c1        1 1Z7     -0.134000
     35 CE1        -6.5110    3.4700   -7.8600 c1        1 1Z7     -0.137000
     36 CE2        -6.8780    5.0950   -6.1140 c1        1 1Z7     -0.147500
     37 CZ         -6.9260    4.7350   -7.4630 c1        1 1Z7     -0.147500
     38 C3         -4.7810    2.9240   -2.4330 c2        1 1Z7      0.297000
     39 CS         -5.3440    4.8520   -1.1540 c3        1 1Z7     -0.060000
     40 OP         -3.6300    1.0890   -3.4070 os        1 1Z7     -0.731000
     41 OS         -4.8550    4.3390   -2.3890 os        1 1Z7     -0.269000
     42 O3         -5.0240    2.2600   -1.4200 o         1 1Z7     -0.377000
     43 HA1         6.0700   -2.3290    5.8810 hc        1 1Z7      0.103500
     44 HA2         5.0060   -1.1370    5.8290 hc        1 1Z7      0.103500
     45 HB          7.3880   -0.3570    4.6080 hc        1 1Z7      0.104000
     46 HG11        5.8400    1.2530    5.2790 hc        1 1Z7      0.078667
     47 HG12        7.1760    1.5090    6.1280 hc        1 1Z7      0.078667
     48 HG13        5.9230    0.7590    6.7930 hc        1 1Z7      0.078667
     49 HG21        7.6120   -1.3890    7.2560 hc        1 1Z7      0.078667
     50 HG22        8.5880   -0.1940    6.8200 hc        1 1Z7      0.078667
     51 HG23        8.6390   -1.6100    6.0560 hc        1 1Z7      0.078667
     52 H           3.7270   -2.8620    4.1730 hn        1 1Z7      0.229000
     53 HA          4.5230   -2.0940    1.6220 h1        1 1Z7      0.141000
     54 HB1         2.9330   -4.0460    1.1560 hc        1 1Z7      0.114000
     55 HG14        5.7020   -4.5410    1.6700 hc        1 1Z7      0.078167
     56 HG15        4.8010   -5.2920    0.5600 hc        1 1Z7      0.078167
     57 HG16        5.2310   -3.7590    0.3670 hc        1 1Z7      0.078167
     58 HG24        2.7910   -4.4240    3.5210 hc        1 1Z7      0.078167
     59 HG25        3.1930   -5.7030    2.6760 hc        1 1Z7      0.078167
     60 HG26        4.3150   -4.8970    3.4620 hc        1 1Z7      0.078167
     61 H1          2.8650   -0.8560    0.2040 hn        1 1Z7      0.230000
     62 HA3         0.4770   -0.3190    1.5690 h1        1 1Z7      0.141000
     63 HB2         1.1010    1.9300    0.3310 hc        1 1Z7      0.135000
     64 HG17        1.4720    1.4880    3.1400 hc        1 1Z7      0.075333
     65 HG18        1.0110    2.8740    2.4510 hc        1 1Z7      0.075333
     66 HG19       -0.0010    1.6130    2.5110 hc        1 1Z7      0.075333
     67 HG27        3.3240    1.1480    0.1930 hc        1 1Z7      0.075333
     68 HG28        3.3550    0.9780    1.7730 hc        1 1Z7      0.075333
     69 HG29        3.2400    2.4310    1.1340 hc        1 1Z7      0.075333
     70 HA4        -1.1630   -0.7950   -2.3620 h1        1 1Z7      0.128000
     71 HB11       -3.6710   -0.8930   -2.1650 hc        1 1Z7      0.098500
     72 HB21       -3.3640   -0.6580   -0.6000 hc        1 1Z7      0.098500
     73 HG         -1.7190   -2.6070   -1.1110 hc        1 1Z7      0.111000
     74 HD11       -3.4060   -4.0760   -0.0530 hc        1 1Z7      0.064167
     75 HD12       -4.4350   -2.8460   -0.1560 hc        1 1Z7      0.064167
     76 HD13       -3.1360   -2.7250    0.7830 hc        1 1Z7      0.064167
     77 HD21       -3.9990   -3.1030   -2.7970 hc        1 1Z7      0.064167
     78 HD22       -2.9040   -4.2410   -2.4590 hc        1 1Z7      0.064167
     79 HD23       -2.4980   -2.9500   -3.3230 hc        1 1Z7      0.064167
     80 HN1        -1.4890    0.5050    0.0650 hn        1 1Z7      0.242000
     81 HA5        -3.8600    2.8340   -4.2570 h1        1 1Z7      0.134000
     82 HB12       -5.4880    0.9560   -4.9190 hc        1 1Z7      0.106500
     83 HB22       -6.4020    1.7260   -3.8420 hc        1 1Z7      0.106500
     84 HD1        -5.7960    1.6320   -7.1860 ha        1 1Z7      0.205000
     85 HD2        -6.3060    4.4590   -4.2270 ha        1 1Z7      0.124000
     86 HE1        -6.5460    3.2150   -8.8200 ha        1 1Z7      0.126000
     87 HE2        -7.1700    5.9850   -5.8350 ha        1 1Z7      0.113500
     88 HZ         -7.2540    5.3770   -8.1320 ha        1 1Z7      0.113500
     89 HS1        -4.6820    4.6880   -0.4470 h1        1 1Z7      0.077667
     90 HS2        -6.1890    4.4030   -0.9250 h1        1 1Z7      0.077667
     91 HS3        -5.4980    5.8050   -1.2390 h1        1 1Z7      0.077667
@<TRIPOS>BOND
     1    1    2 1   
     2    1    5 1   
     3    1   43 1   
     4    1   44 1   
     5    2    3 1   
     6    2    4 1   
     7    2   45 1   
     8    3   46 1   
     9    3   47 1   
    10    3   48 1   
    11    4   49 1   
    12    4   50 1   
    13    4   51 1   
    14    5    6 1   
    15    5    7 1   
    16    7    8 1   
    17    7   52 1   
    18    8    9 1   
    19    8   11 1   
    20    8   53 1   
    21    9   10 1   
    22    9   14 1   
    23   11   12 1   
    24   11   13 1   
    25   11   54 1   
    26   12   55 1   
    27   12   56 1   
    28   12   57 1   
    29   13   58 1   
    30   13   59 1   
    31   13   60 1   
    32   14   15 1   
    33   14   61 1   
    34   15   16 1   
    35   15   18 1   
    36   15   62 1   
    37   16   17 1   
    38   16   26 1   
    39   18   19 1   
    40   18   20 1   
    41   18   63 1   
    42   19   64 1   
    43   19   65 1   
    44   19   66 1   
    45   20   67 1   
    46   20   68 1   
    47   20   69 1   
    48   21   22 1   
    49   21   26 1   
    50   21   27 1   
    51   21   70 1   
    52   22   23 1   
    53   22   71 1   
    54   22   72 1   
    55   23   24 1   
    56   23   25 1   
    57   23   73 1   
    58   24   74 1   
    59   24   75 1   
    60   24   76 1   
    61   25   77 1   
    62   25   78 1   
    63   25   79 1   
    64   26   80 1   
    65   27   28 1   
    66   27   29 1   
    67   27   40 1   
    68   30   31 1   
    69   30   38 1   
    70   30   40 1   
    71   30   81 1   
    72   31   32 1   
    73   31   82 1   
    74   31   83 1   
    75   32   33 1   
    76   32   34 1   
    77   33   35 1   
    78   33   84 1   
    79   34   85 1   
    80   35   86 1   
    81   36   37 1   
    82   36   87 1   
    83   37   88 1   
    84   38   41 1   
    85   38   42 1   
    86   39   41 1   
    87   39   89 1   
    88   39   90 1   
    89   39   91 1   
@<TRIPOS>SUBSTRUCTURE
     1 1Z7         1 TEMP              0 ****  ****    0 ROOT
