@<TRIPOS>MOLECULE
1Z7
   91    91     1     0     0
SMALL
bcc


@<TRIPOS>ATOM
      1 CA         -8.4960    1.6660    0.9790 c3        1 1Z7     -0.145400
      2 CB         -9.6410    1.5740   -0.0200 c3        1 1Z7     -0.063700
      3 CG1       -10.7960    2.4410    0.4390 c3        1 1Z7     -0.093100
      4 CG2        -9.1910    1.9820   -1.4070 c3        1 1Z7     -0.093100
      5 C          -7.4870    0.5550    0.7400 c         1 1Z7      0.659100
      6 O          -7.7870   -0.6370    0.9600 o         1 1Z7     -0.621100
      7 N          -6.2540    0.9120    0.2300 n         1 1Z7     -0.542900
      8 CA1        -5.1630   -0.0220    0.1140 c3        1 1Z7      0.025700
      9 C1         -4.0000    0.3410    1.0780 c         1 1Z7      0.628100
     10 O1         -3.8350    1.5100    1.4820 o         1 1Z7     -0.615100
     11 CB1        -4.5580   -0.0870   -1.3100 c3        1 1Z7     -0.077700
     12 CG11       -5.5260   -0.7520   -2.2640 c3        1 1Z7     -0.092100
     13 CG21       -4.1490    1.2770   -1.8220 c3        1 1Z7     -0.092100
     14 N1         -3.1960   -0.7090    1.4930 n         1 1Z7     -0.510900
     15 CA2        -1.8410   -0.4640    1.9420 c3        1 1Z7      0.010700
     16 C2         -0.8340   -0.5800    0.7560 c         1 1Z7      0.628100
     17 O2         -1.1360   -1.2610   -0.2520 o         1 1Z7     -0.656100
     18 CB2        -1.3930   -1.4390    3.0530 c3        1 1Z7     -0.063700
     19 CG12       -2.1460   -1.1680    4.3370 c3        1 1Z7     -0.093600
     20 CG22       -1.5390   -2.8860    2.6360 c3        1 1Z7     -0.093600
     21 CA3         1.3840    0.1120   -0.1030 c3        1 1Z7     -0.129500
     22 CB3         1.3690    1.3800   -0.9420 c3        1 1Z7     -0.097400
     23 CG          0.0840    1.6600   -1.7010 c3        1 1Z7     -0.057700
     24 CD1         0.1390    3.0470   -2.3090 c3        1 1Z7     -0.090600
     25 CD2        -0.1650    0.6230   -2.7760 c3        1 1Z7     -0.090600
     26 N2          0.3760    0.0320    0.9190 n         1 1Z7     -0.505900
     27 P           2.9100    0.1160    0.7250 p5        1 1Z7      1.334600
     28 O11         2.8420    1.1560    1.7720 o         1 1Z7     -0.840000
     29 O21         3.3820   -1.2660    0.9550 o         1 1Z7     -0.840000
     30 CA4         5.2440    0.1560   -0.4540 c3        1 1Z7      0.184100
     31 CB4         5.5170   -0.6890   -1.7110 c3        1 1Z7     -0.058100
     32 CG3         6.3260   -1.9020   -1.4160 ca        1 1Z7     -0.078300
     33 CD11        5.8780   -2.8340   -0.4680 ca        1 1Z7     -0.125500
     34 CD21        7.5210   -2.1410   -2.1030 ca        1 1Z7     -0.125500
     35 CE1         6.6220   -3.9860   -0.2200 ca        1 1Z7     -0.144000
     36 CE2         8.2600   -3.2960   -1.8510 ca        1 1Z7     -0.144000
     37 CZ          7.8110   -4.2210   -0.9100 ca        1 1Z7     -0.147000
     38 C3          6.2040    1.3440   -0.4420 c         1 1Z7      0.626100
     39 CS          7.5870    2.6990    0.9450 c3        1 1Z7      0.129700
     40 OP          3.9490    0.6570   -0.4760 os        1 1Z7     -0.573200
     41 HA1        -8.0290    2.6830    0.9290 hc        1 1Z7      0.063700
     42 HA2        -8.8930    1.5220    2.0200 hc        1 1Z7      0.063700
     43 HB         -9.9860    0.5010   -0.0540 hc        1 1Z7      0.069700
     44 HG11      -10.4770    3.5080    0.5220 hc        1 1Z7      0.035367
     45 HG12      -11.6370    2.3790   -0.2930 hc        1 1Z7      0.035367
     46 HG13      -11.1660    2.1020    1.4360 hc        1 1Z7      0.035367
     47 HG21       -8.3380    1.3430   -1.7420 hc        1 1Z7      0.035367
     48 HG22      -10.0310    1.8650   -2.1330 hc        1 1Z7      0.035367
     49 HG23       -8.8610    3.0490   -1.4170 hc        1 1Z7      0.035367
     50 H          -5.9950    1.8730    0.2170 hn        1 1Z7      0.322500
     51 HA         -5.5610   -1.0510    0.3740 h1        1 1Z7      0.101700
     52 HB1        -3.6300   -0.7300   -1.2390 hc        1 1Z7      0.082700
     53 HG14       -6.4610   -0.1490   -2.3690 hc        1 1Z7      0.038533
     54 HG15       -5.0540   -0.8500   -3.2720 hc        1 1Z7      0.038533
     55 HG16       -5.8010   -1.7700   -1.8980 hc        1 1Z7      0.038533
     56 HG24       -3.5860    1.8360   -1.0340 hc        1 1Z7      0.038533
     57 HG25       -3.4860    1.1630   -2.7150 hc        1 1Z7      0.038533
     58 HG26       -5.0400    1.8790   -2.1210 hc        1 1Z7      0.038533
     59 H1         -3.2940   -1.5680    0.9900 hn        1 1Z7      0.309500
     60 HA3        -1.8040    0.5880    2.3590 h1        1 1Z7      0.097700
     61 HB2        -0.2980   -1.2310    3.2350 hc        1 1Z7      0.076700
     62 HG17       -3.2360   -1.3730    4.2130 hc        1 1Z7      0.037533
     63 HG18       -1.7540   -1.8260    5.1500 hc        1 1Z7      0.037533
     64 HG19       -2.0180   -0.1040    4.6480 hc        1 1Z7      0.037533
     65 HG27       -1.1340   -3.0350    1.6040 hc        1 1Z7      0.037533
     66 HG28       -0.9710   -3.5420    3.3400 hc        1 1Z7      0.037533
     67 HG29       -2.6090   -3.2040    2.6510 hc        1 1Z7      0.037533
     68 HA4         1.2750   -0.7810   -0.7770 h1        1 1Z7      0.103700
     69 HB11        1.6010    2.2450   -0.2610 hc        1 1Z7      0.067700
     70 HB21        2.2170    1.2970   -1.6750 hc        1 1Z7      0.067700
     71 HG         -0.7820    1.6270   -0.9790 hc        1 1Z7      0.039700
     72 HD11        0.9930    3.1260   -3.0240 hc        1 1Z7      0.029533
     73 HD12       -0.8060    3.2680   -2.8620 hc        1 1Z7      0.029533
     74 HD13        0.2730    3.8170   -1.5120 hc        1 1Z7      0.029533
     75 HD21        0.6940    0.5790   -3.4870 hc        1 1Z7      0.029533
     76 HD22       -0.3000   -0.3850   -2.3080 hc        1 1Z7      0.029533
     77 HD23       -1.0900    0.8750   -3.3500 hc        1 1Z7      0.029533
     78 HN1         0.5150    0.6640    1.6820 hn        1 1Z7      0.333500
     79 HA5         5.4120   -0.4590    0.4810 h1        1 1Z7      0.097700
     80 HB12        4.5280   -1.0120   -2.1370 hc        1 1Z7      0.065700
     81 HB22        6.0190   -0.0560   -2.4900 hc        1 1Z7      0.065700
     82 HD1         4.9350   -2.6410    0.0870 ha        1 1Z7      0.166000
     83 HD2         7.8800   -1.4120   -2.8450 ha        1 1Z7      0.166000
     84 HE1         6.2660   -4.7110    0.5270 ha        1 1Z7      0.119000
     85 HE2         9.1980   -3.4750   -2.3950 ha        1 1Z7      0.119000
     86 HZ          8.3940   -5.1310   -0.7110 ha        1 1Z7      0.112000
     87 HS1         7.8450    2.7060    2.0330 h1        1 1Z7      0.038367
     88 HS2         8.4990    2.5790    0.3110 h1        1 1Z7      0.038367
     89 HS3         7.0410    3.6280    0.6520 h1        1 1Z7      0.038367
     90 OS          6.7400    1.5650    0.7990 os        1 1Z7     -0.430900
     91 O3          6.5650    2.0860   -1.3580 o         1 1Z7     -0.568000
@<TRIPOS>BOND
     1    1    2 1   
     2    1    5 1   
     3    1   41 1   
     4    1   42 1   
     5    2    3 1   
     6    2    4 1   
     7    2   43 1   
     8    3   44 1   
     9    3   45 1   
    10    3   46 1   
    11    4   47 1   
    12    4   48 1   
    13    4   49 1   
    14    5    6 2   
    15    5    7 1   
    16    7    8 1   
    17    7   50 1   
    18    8    9 1   
    19    8   11 1   
    20    8   51 1   
    21    9   10 2   
    22    9   14 1   
    23   11   12 1   
    24   11   13 1   
    25   11   52 1   
    26   12   53 1   
    27   12   54 1   
    28   12   55 1   
    29   13   56 1   
    30   13   57 1   
    31   13   58 1   
    32   14   15 1   
    33   14   59 1   
    34   15   16 1   
    35   15   18 1   
    36   15   60 1   
    37   16   17 2   
    38   16   26 1   
    39   18   19 1   
    40   18   20 1   
    41   18   61 1   
    42   19   62 1   
    43   19   63 1   
    44   19   64 1   
    45   20   65 1   
    46   20   66 1   
    47   20   67 1   
    48   21   22 1   
    49   21   26 1   
    50   21   27 1   
    51   21   68 1   
    52   22   23 1   
    53   22   69 1   
    54   22   70 1   
    55   23   24 1   
    56   23   25 1   
    57   23   71 1   
    58   24   72 1   
    59   24   73 1   
    60   24   74 1   
    61   25   75 1   
    62   25   76 1   
    63   25   77 1   
    64   26   78 1   
    65   27   28 1   
    66   27   29 1   
    67   27   40 1   
    68   30   31 1   
    69   30   38 1   
    70   30   40 1   
    71   30   79 1   
    72   31   32 1   
    73   31   80 1   
    74   31   81 1   
    75   32   33 ar  
    76   32   34 ar  
    77   33   35 ar  
    78   33   82 1   
    79   34   36 ar  
    80   34   83 1   
    81   35   37 ar  
    82   35   84 1   
    83   36   37 ar  
    84   36   85 1   
    85   37   86 1   
    86   38   90 1   
    87   38   91 2   
    88   39   87 1   
    89   39   88 1   
    90   39   89 1   
    91   39   90 1   
@<TRIPOS>SUBSTRUCTURE
     1 1Z7         1 TEMP              0 ****  ****    0 ROOT
