@<TRIPOS>MOLECULE
1Z8
   22    23     1     0     0
SMALL
bcc


@<TRIPOS>ATOM
      1 C2          0.0120    0.1750   -0.1800 c3        1 1Z8      0.631600
      2 C5          1.5140    0.0550   -0.0180 cc        1 1Z8      0.220600
      3 C10         2.2800   -0.0410    1.2120 cc        1 1Z8     -0.137300
      4 C11         1.8510   -0.0430    2.5890 ca        1 1Z8     -0.019000
      5 C12         0.7890    0.7620    3.0240 ca        1 1Z8     -0.112500
      6 C13         0.4140    0.7680    4.3660 ca        1 1Z8     -0.128000
      7 C14         1.0910   -0.0300    5.2880 ca        1 1Z8     -0.122000
      8 C15         2.1470   -0.8370    4.8640 ca        1 1Z8     -0.128000
      9 C16         2.5270   -0.8450    3.5240 ca        1 1Z8     -0.112500
     10 F1         -0.4620    1.4500    0.0230 f         1 1Z8     -0.230300
     11 F3         -0.4730   -0.1670   -1.4170 f         1 1Z8     -0.230300
     12 F4         -0.7170   -0.6030    0.6840 f         1 1Z8     -0.230300
     13 N6          2.3560    0.0310   -1.0970 nd        1 1Z8     -0.457800
     14 N7          3.5860   -0.0800   -0.6190 na        1 1Z8      0.003400
     15 C9          3.6190   -0.1310    0.7760 cd        1 1Z8     -0.145300
     16 H18         0.2440    1.3870    2.2970 ha        1 1Z8      0.136500
     17 H19        -0.4210    1.4030    4.6960 ha        1 1Z8      0.135000
     18 H20         0.7920   -0.0250    6.3470 ha        1 1Z8      0.134000
     19 H21         2.6800   -1.4710    5.5870 ha        1 1Z8      0.135000
     20 H22         3.3570   -1.4860    3.1910 ha        1 1Z8      0.136500
     21 H8          4.3610   -0.1140   -1.2410 hn        1 1Z8      0.332700
     22 H17         4.5460   -0.2160    1.3410 h4        1 1Z8      0.189000
@<TRIPOS>BOND
     1    1    2 1   
     2    1   10 1   
     3    1   11 1   
     4    1   12 1   
     5    2    3 1   
     6    2   13 2   
     7    3    4 1   
     8    3   15 2   
     9    4    5 ar  
    10    4    9 ar  
    11    5    6 ar  
    12    5   16 1   
    13    6    7 ar  
    14    6   17 1   
    15    7    8 ar  
    16    7   18 1   
    17    8    9 ar  
    18    8   19 1   
    19    9   20 1   
    20   13   14 1   
    21   14   15 1   
    22   14   21 1   
    23   15   22 1   
@<TRIPOS>SUBSTRUCTURE
     1 1Z8         1 TEMP              0 ****  ****    0 ROOT
