@<TRIPOS>MOLECULE
1ZB
   32    30     1     0     0
SMALL
bcc


@<TRIPOS>ATOM
      1 N          -3.3010    2.4880   -2.7440 n3        1 1ZB     -0.359000
      2 CA         -2.0890    1.7060   -2.8760 c3        1 1ZB     -0.099000
      3 C          -1.6920    1.1490   -1.5040 c2        1 1ZB      0.303000
      4 O          -2.5010    1.1330   -0.6000 o         1 1ZB     -0.391000
      5 N1         -0.3280    0.7440   -1.2580 n         1 1ZB     -0.352000
      6 CA1         0.1400    0.6030    0.0780 c3        1 1ZB      0.002000
      7 C1          0.2640    1.9850    0.7240 c2        1 1ZB      0.278000
      8 O1          0.7540    2.9080    0.0970 o         1 1ZB     -0.327000
      9 CB          1.4920   -0.0760    0.0700 c3        1 1ZB     -0.134000
     10 CG          1.3420   -1.5460    0.5970 c2        1 1ZB     -0.078000
     11 CD1         1.4980   -2.6110   -0.2740 c2        1 1ZB     -0.125000
     12 CD2         1.1680   -1.7800    1.9590 c1        1 1ZB     -0.123000
     13 CE1         1.4810   -3.9190    0.2120 c1        1 1ZB     -0.130000
     14 CE2         1.1510   -3.0730    2.4420 c1        1 1ZB     -0.129000
     15 CZ          1.3080   -4.1500    1.5640 c1        1 1ZB     -0.129000
     16 C2         -0.2760    2.2200    2.1440 c2        1 1ZB     -0.408000
     17 N3          0.0570    3.3020    2.8000 n2        1 1ZB      0.193000
     18 N4          0.8010    4.1300    2.2820 n1        1 1ZB      0.005000
     19 H          -3.9230    2.1880   -3.3390 hn        1 1ZB      0.158500
     20 H2         -3.1160    3.3700   -2.9130 hn        1 1ZB      0.158500
     21 HA2        -2.2450    0.9610   -3.4990 h1        1 1ZB      0.101000
     22 HA3        -1.3700    2.2730   -3.2190 h1        1 1ZB      0.101000
     23 H1          0.2110    0.5050   -1.9570 hn        1 1ZB      0.248000
     24 HA         -0.4940    0.0590    0.5900 h1        1 1ZB      0.131000
     25 HB2         1.8370   -0.0900   -0.8260 hc        1 1ZB      0.112000
     26 HB3         2.1120    0.4200    0.6520 hc        1 1ZB      0.112000
     27 HD1         1.6180   -2.4460   -1.2260 ha        1 1ZB      0.132000
     28 HD2         1.0560   -1.0210    2.5780 ha        1 1ZB      0.133000
     29 HE1         1.5940   -4.6850   -0.4150 ha        1 1ZB      0.132000
     30 HE2         1.0290   -3.2340    3.3960 ha        1 1ZB      0.132500
     31 HZ          1.2960   -5.0710    1.9090 ha        1 1ZB      0.132500
     32 H11        -0.8690    1.5600    2.5570 h4        1 1ZB      0.220000
@<TRIPOS>BOND
     1    1    2 1   
     2    1   19 1   
     3    1   20 1   
     4    2    3 1   
     5    2   21 1   
     6    2   22 1   
     7    3    4 1   
     8    3    5 1   
     9    5    6 1   
    10    5   23 1   
    11    6    7 1   
    12    6    9 1   
    13    6   24 1   
    14    7    8 1   
    15    7   16 1   
    16    9   10 1   
    17    9   25 1   
    18    9   26 1   
    19   10   11 1   
    20   10   12 1   
    21   11   13 1   
    22   11   27 1   
    23   12   28 1   
    24   13   29 1   
    25   14   15 1   
    26   14   30 1   
    27   15   31 1   
    28   16   17 1   
    29   16   32 1   
    30   17   18 1   
@<TRIPOS>SUBSTRUCTURE
     1 1ZB         1 TEMP              0 ****  ****    0 ROOT
