@<TRIPOS>MOLECULE
1ZB
   32    32     1     0     0
SMALL
bcc


@<TRIPOS>ATOM
      1 N          -0.1500    4.5490    0.5950 n3        1 1ZB     -0.885800
      2 CA          0.0010    3.4840   -0.3530 c3        1 1ZB      0.091800
      3 C           0.2280    2.0870    0.2520 c         1 1ZB      0.615100
      4 O           0.3000    1.9160    1.4860 o         1 1ZB     -0.622100
      5 N1          0.3170    1.0320   -0.6340 n         1 1ZB     -0.550900
      6 CA1         0.6140   -0.3110   -0.2070 c3        1 1ZB      0.028700
      7 C1          2.0310   -0.7460   -0.6180 c2        1 1ZB      0.587300
      8 O1          2.5530   -0.3800   -1.6810 o         1 1ZB     -0.595300
      9 CB         -0.3490   -1.3640   -0.7950 c3        1 1ZB     -0.042100
     10 CG         -1.7560   -1.1620   -0.3600 ca        1 1ZB     -0.079300
     11 CD1        -2.7460   -0.8450   -1.2970 ca        1 1ZB     -0.122000
     12 CD2        -2.1110   -1.3140    0.9860 ca        1 1ZB     -0.122000
     13 CE1        -4.0700   -0.6790   -0.8930 ca        1 1ZB     -0.127000
     14 CE2        -3.4340   -1.1460    1.3880 ca        1 1ZB     -0.127000
     15 CZ         -4.4160   -0.8290    0.4490 ca        1 1ZB     -0.128000
     16 C2          2.6630   -1.6320    0.3430 ce        1 1ZB      0.081700
     17 N3          3.8750   -2.1340    0.1700 n1        1 1ZB     -0.295700
     18 N4          4.9070   -2.5630    0.0150 n1        1 1ZB      0.023000
     19 H          -0.9440    4.3890    1.1860 hn        1 1ZB      0.360800
     20 H2          0.6640    4.6270    1.1760 hn        1 1ZB      0.360800
     21 HA2        -0.9270    3.4440   -0.9930 h1        1 1ZB      0.075700
     22 HA3         0.8800    3.7210   -1.0170 h1        1 1ZB      0.075700
     23 H1          0.4000    1.2160   -1.6060 hn        1 1ZB      0.320500
     24 HA          0.5320   -0.3390    0.9230 h1        1 1ZB      0.105700
     25 HB2        -0.2790   -1.3500   -1.9150 hc        1 1ZB      0.061200
     26 HB3         0.0070   -2.3710   -0.4460 hc        1 1ZB      0.061200
     27 HD1        -2.4800   -0.7260   -2.3580 ha        1 1ZB      0.130000
     28 HD2        -1.3390   -1.5600    1.7300 ha        1 1ZB      0.130000
     29 HE1        -4.8420   -0.4300   -1.6360 ha        1 1ZB      0.132500
     30 HE2        -3.7030   -1.2620    2.4480 ha        1 1ZB      0.132500
     31 HZ         -5.4600   -0.6970    0.7680 ha        1 1ZB      0.132000
     32 H11         2.1560   -1.9050    1.2810 h4        1 1ZB      0.192000
@<TRIPOS>BOND
     1    1    2 1   
     2    1   19 1   
     3    1   20 1   
     4    2    3 1   
     5    2   21 1   
     6    2   22 1   
     7    3    4 2   
     8    3    5 1   
     9    5    6 1   
    10    5   23 1   
    11    6    7 1   
    12    6    9 1   
    13    6   24 1   
    14    7    8 1   
    15    7   16 2   
    16    9   10 1   
    17    9   25 1   
    18    9   26 1   
    19   10   11 ar  
    20   10   12 ar  
    21   11   13 ar  
    22   11   27 1   
    23   12   14 ar  
    24   12   28 1   
    25   13   15 ar  
    26   13   29 1   
    27   14   15 ar  
    28   14   30 1   
    29   15   31 1   
    30   16   17 1   
    31   16   32 1   
    32   17   18 3   
@<TRIPOS>SUBSTRUCTURE
     1 1ZB         1 TEMP              0 ****  ****    0 ROOT
