@<TRIPOS>MOLECULE
1ZC
   26    27     1     0     0
SMALL
bcc


@<TRIPOS>ATOM
      1 C1          0.1420   -0.2570   -0.0950 c3        1 1ZC      0.106700
      2 C3          2.0380   -0.0160    1.3290 ca        1 1ZC      0.128100
      3 C5          1.8490    0.4870    3.6810 ca        1 1ZC     -0.094000
      4 C6          3.2350    0.4740    3.8080 ca        1 1ZC     -0.108000
      5 C7          4.0330    0.2080    2.6850 ca        1 1ZC     -0.165600
      6 C8          3.4410   -0.0200    1.4350 ca        1 1ZC     -0.088000
      7 C11         6.1630   -0.3360    3.9710 cc        1 1ZC      0.197500
      8 C15         7.6440   -0.3290    4.1850 cc        1 1ZC      0.252900
      9 O2          1.5600   -0.2720    0.0640 os        1 1ZC     -0.315900
     10 C4          1.2390    0.2360    2.4530 ca        1 1ZC     -0.142000
     11 C9          5.4900    0.1880    2.7480 c         1 1ZC      0.550200
     12 O10         6.2410    0.5490    1.8270 o         1 1ZC     -0.561100
     13 N12         5.6620   -0.9480    5.0550 nd        1 1ZC     -0.223300
     14 O13         6.6870   -1.2730    5.8510 os        1 1ZC      0.199600
     15 N14         7.8660   -0.9330    5.3850 nd        1 1ZC     -0.236300
     16 N16         8.6250    0.2130    3.2770 n4        1 1ZC     -0.796300
     17 H18        -0.3310   -1.0520    0.5300 h1        1 1ZC      0.058367
     18 H17         0.0080   -0.4770   -1.1860 h1        1 1ZC      0.058367
     19 H19        -0.2710    0.7490    0.1590 h1        1 1ZC      0.058367
     20 H21         1.2230    0.6990    4.5640 ha        1 1ZC      0.159000
     21 H22         3.6830    0.7020    4.7860 ha        1 1ZC      0.143000
     22 H23         4.0550   -0.2020    0.5400 ha        1 1ZC      0.171000
     23 H20         0.1410    0.2430    2.3750 ha        1 1ZC      0.162000
     24 H25         9.3720   -0.4750    3.1040 hn        1 1ZC      0.494800
     25 H24         8.1460    0.4430    2.3780 hn        1 1ZC      0.494800
     26 H163        9.0370    1.0680    3.6770 hn        1 1ZC      0.494800
@<TRIPOS>BOND
     1    1    9 1   
     2    1   17 1   
     3    1   18 1   
     4    1   19 1   
     5    2    6 ar  
     6    2    9 1   
     7    2   10 ar  
     8    3    4 ar  
     9    3   10 ar  
    10    3   20 1   
    11    4    5 ar  
    12    4   21 1   
    13    5    6 ar  
    14    5   11 1   
    15    6   22 1   
    16    7    8 1   
    17    7   11 1   
    18    7   13 2   
    19    8   15 2   
    20    8   16 1   
    21   10   23 1   
    22   11   12 2   
    23   13   14 1   
    24   14   15 1   
    25   16   24 1   
    26   16   25 1   
    27   16   26 1   
@<TRIPOS>SUBSTRUCTURE
     1 1ZC         1 TEMP              0 ****  ****    0 ROOT
