@<TRIPOS>MOLECULE
1ZC
   25    26     1     0     0
SMALL
bcc


@<TRIPOS>ATOM
      1 C1          0.1340   -0.5640    0.0350 c3        1 1ZC      0.112700
      2 C3          2.0370   -0.0740    1.3800 ca        1 1ZC      0.116100
      3 C5          1.8550    0.6560    3.6690 ca        1 1ZC     -0.102000
      4 C6          3.2420    0.7200    3.7680 ca        1 1ZC     -0.114000
      5 C7          4.0340    0.3810    2.6630 ca        1 1ZC     -0.131600
      6 C8          3.4400   -0.0050    1.4590 ca        1 1ZC     -0.107000
      7 C11         6.1730   -0.2270    3.8540 cc        1 1ZC      0.104500
      8 C15         7.6640   -0.3470    4.0400 cc        1 1ZC      0.507900
      9 O2          1.5500   -0.4800    0.1520 os        1 1ZC     -0.323900
     10 C4          1.2400    0.2560    2.4820 ca        1 1ZC     -0.177000
     11 C9          5.5080    0.4470    2.7270 c         1 1ZC      0.528200
     12 O10         6.1860    1.0220    1.8650 o         1 1ZC     -0.528100
     13 N12         5.6240   -0.8620    4.9040 nd        1 1ZC     -0.272300
     14 O13         6.5980   -1.3140    5.6650 os        1 1ZC      0.133600
     15 N14         7.8300   -1.0380    5.2090 nd        1 1ZC     -0.444300
     16 N16         8.6080    0.0780    3.1520 nv        1 1ZC     -0.930500
     17 H18        -0.3350    0.4370    0.1960 h1        1 1ZC      0.046700
     18 H17        -0.0180   -0.9060   -1.0200 h1        1 1ZC      0.046700
     19 H19        -0.2780   -1.3110    0.7560 h1        1 1ZC      0.046700
     20 H21         1.2340    0.9230    4.5370 ha        1 1ZC      0.140000
     21 H22         3.7080    1.0410    4.7110 ha        1 1ZC      0.146000
     22 H23         4.0510   -0.2500    0.5780 ha        1 1ZC      0.163000
     23 H20         0.1440    0.2050    2.4250 ha        1 1ZC      0.142000
     24 H25         8.3000    0.7090    2.4450 hn        1 1ZC      0.448300
     25 H24         9.5520    0.1300    3.4520 hn        1 1ZC      0.448300
@<TRIPOS>BOND
     1    1    9 1   
     2    1   17 1   
     3    1   18 1   
     4    1   19 1   
     5    2    6 ar  
     6    2    9 1   
     7    2   10 ar  
     8    3    4 ar  
     9    3   10 ar  
    10    3   20 1   
    11    4    5 ar  
    12    4   21 1   
    13    5    6 ar  
    14    5   11 1   
    15    6   22 1   
    16    7    8 1   
    17    7   11 1   
    18    7   13 2   
    19    8   15 2   
    20    8   16 1   
    21   10   23 1   
    22   11   12 2   
    23   13   14 1   
    24   14   15 1   
    25   16   24 1   
    26   16   25 1   
@<TRIPOS>SUBSTRUCTURE
     1 1ZC         1 TEMP              0 ****  ****    0 ROOT
