@<TRIPOS>MOLECULE
1ZG
   63    64     1     0     0
SMALL
bcc


@<TRIPOS>ATOM
      1 C1          9.1730   -0.7210    0.3920 c         1 1ZG      0.905600
      2 O1          9.0670   -1.9510    0.1130 o         1 1ZG     -0.861800
      3 O2         10.2350   -0.2060    0.8530 o         1 1ZG     -0.861800
      4 C2          7.9790    0.2130    0.1390 c3        1 1ZG     -0.183400
      5 C3          6.6610   -0.5040    0.2970 c3        1 1ZG     -0.130400
      6 C4          5.4920    0.2870   -0.2610 c         1 1ZG      0.659100
      7 O3          5.6340    1.3130   -0.9640 o         1 1ZG     -0.654100
      8 N           4.2240   -0.1940    0.0170 n         1 1ZG     -0.571900
      9 CA          3.0200    0.4400   -0.4510 c3        1 1ZG      0.043700
     10 C           1.9290    0.4680    0.6570 c         1 1ZG      0.668100
     11 O           1.8940   -0.4230    1.5330 o         1 1ZG     -0.637100
     12 CB          2.3800   -0.2310   -1.6930 c3        1 1ZG     -0.073700
     13 CG1         3.3800   -0.3270   -2.8240 c3        1 1ZG     -0.094100
     14 CG2         1.7800   -1.5820   -1.3770 c3        1 1ZG     -0.094100
     15 N1          1.0260    1.5020    0.6540 n         1 1ZG     -0.449800
     16 CA1        -0.2240    1.4960    1.4130 c3        1 1ZG      0.024700
     17 C5         -1.3460    0.5970    0.8060 c         1 1ZG      0.627100
     18 O4         -1.1310   -0.0640   -0.2370 o         1 1ZG     -0.669100
     19 CB1        -0.6960    2.9700    1.4380 c3        1 1ZG     -0.119400
     20 CG          0.0050    3.6440    0.2620 c3        1 1ZG     -0.081400
     21 CD          1.1190    2.6790   -0.1850 c3        1 1ZG      0.094000
     22 N2         -2.5070    0.5500    1.5380 n         1 1ZG     -0.453900
     23 CA2        -3.7960    0.3310    0.9380 c3        1 1ZG     -0.107500
     24 P          -4.9030    1.7190    1.5640 p5        1 1ZG      1.195700
     25 O1P        -5.4940    1.1950    2.8440 o         1 1ZG     -0.926167
     26 O2P        -3.9080    2.8450    1.7560 o         1 1ZG     -0.926167
     27 CB2        -4.4490   -0.9820    1.3220 c3        1 1ZG     -0.036100
     28 CG3        -5.1400   -1.6600    0.1890 ca        1 1ZG     -0.020300
     29 CD1        -4.9480   -3.0230   -0.0630 ca        1 1ZG     -0.144500
     30 CD2        -6.0340   -0.9350   -0.6210 ca        1 1ZG     -0.144500
     31 CE1        -5.6380   -3.6600   -1.0970 ca        1 1ZG     -0.159000
     32 CE2        -6.7180   -1.5760   -1.6480 ca        1 1ZG     -0.159000
     33 CZ         -6.5260   -2.9390   -1.8900 ca        1 1ZG     -0.186000
     34 OGG        -5.8730    1.8900    0.4210 o         1 1ZG     -0.926167
     35 H21         8.0340    1.0830    0.8400 hc        1 1ZG      0.037200
     36 H22         8.0710    0.6140   -0.9030 hc        1 1ZG      0.037200
     37 H31         6.7220   -1.4880   -0.2450 hc        1 1ZG      0.069200
     38 H32         6.4830   -0.7290    1.3810 hc        1 1ZG      0.069200
     39 H           4.1090   -0.9850    0.6060 hn        1 1ZG      0.323500
     40 HA          3.2980    1.4970   -0.7490 h1        1 1ZG      0.081700
     41 HB          1.5400    0.4520   -2.0140 hc        1 1ZG      0.064700
     42 HG11        4.0930   -1.1700   -2.6520 hc        1 1ZG      0.037200
     43 HG12        2.8490   -0.5100   -3.7890 hc        1 1ZG      0.037200
     44 HG13        3.9720    0.6170   -2.9070 hc        1 1ZG      0.037200
     45 HG21        0.9080   -1.4590   -0.6820 hc        1 1ZG      0.037200
     46 HG22        1.4190   -2.0670   -2.3160 hc        1 1ZG      0.037200
     47 HG23        2.5310   -2.2540   -0.8980 hc        1 1ZG      0.037200
     48 HA1        -0.0010    1.1160    2.4500 h1        1 1ZG      0.074700
     49 HB2        -1.8210    3.0740    1.3690 hc        1 1ZG      0.103700
     50 HB3        -0.3760    3.4390    2.4010 hc        1 1ZG      0.103700
     51 HG2        -0.7150    3.8140   -0.5750 hc        1 1ZG      0.039200
     52 HG3         0.4380    4.6290    0.5570 hc        1 1ZG      0.039200
     53 HD2         2.1300    3.1550   -0.0590 h1        1 1ZG      0.028700
     54 HD3         0.9930    2.4080   -1.2700 h1        1 1ZG      0.028700
     55 HN2        -2.5710    1.2560    2.2590 hn        1 1ZG      0.315500
     56 HA2        -3.7350    0.4280   -0.1730 h1        1 1ZG      0.057700
     57 HB1        -3.7100   -1.6990    1.7740 hc        1 1ZG      0.060200
     58 HB21       -5.2190   -0.7490    2.1220 hc        1 1ZG      0.060200
     59 HD1        -4.2400   -3.5960    0.5510 ha        1 1ZG      0.183000
     60 HD21       -6.1620    0.1630   -0.4000 ha        1 1ZG      0.183000
     61 HE1        -5.4740   -4.7290   -1.2860 ha        1 1ZG      0.093000
     62 HE2        -7.4130   -1.0020   -2.2770 ha        1 1ZG      0.093000
     63 HZ         -7.0680   -3.4380   -2.7040 ha        1 1ZG      0.081000
@<TRIPOS>BOND
     1    1    2 1   
     2    1    3 1   
     3    1    4 1   
     4    4    5 1   
     5    4   35 1   
     6    4   36 1   
     7    5    6 1   
     8    5   37 1   
     9    5   38 1   
    10    6    7 2   
    11    6    8 1   
    12    8    9 1   
    13    8   39 1   
    14    9   10 1   
    15    9   12 1   
    16    9   40 1   
    17   10   11 2   
    18   10   15 1   
    19   12   13 1   
    20   12   14 1   
    21   12   41 1   
    22   13   42 1   
    23   13   43 1   
    24   13   44 1   
    25   14   45 1   
    26   14   46 1   
    27   14   47 1   
    28   15   16 1   
    29   15   21 1   
    30   16   17 1   
    31   16   19 1   
    32   16   48 1   
    33   17   18 2   
    34   17   22 1   
    35   19   20 1   
    36   19   49 1   
    37   19   50 1   
    38   20   21 1   
    39   20   51 1   
    40   20   52 1   
    41   21   53 1   
    42   21   54 1   
    43   22   23 1   
    44   22   55 1   
    45   23   24 1   
    46   23   27 1   
    47   23   56 1   
    48   24   25 1   
    49   24   26 1   
    50   24   34 1   
    51   27   28 1   
    52   27   57 1   
    53   27   58 1   
    54   28   29 ar  
    55   28   30 ar  
    56   29   31 ar  
    57   29   59 1   
    58   30   32 ar  
    59   30   60 1   
    60   31   33 ar  
    61   31   61 1   
    62   32   33 ar  
    63   32   62 1   
    64   33   63 1   
@<TRIPOS>SUBSTRUCTURE
     1 1ZG         1 TEMP              0 ****  ****    0 ROOT
