@<TRIPOS>MOLECULE
1ZG
   63    61     1     0     0
SMALL
bcc


@<TRIPOS>ATOM
      1 C1          2.6760    7.1560   -0.8690 c1        1 1ZG      0.330000
      2 O1          1.9400    8.1620   -1.0470 o         1 1ZG     -0.590000
      3 O2          3.5450    6.8480   -1.7350 os        1 1ZG     -0.594000
      4 C2          2.5680    6.3450    0.4330 c3        1 1ZG     -0.222000
      5 C3          1.1790    5.6610    0.5030 c3        1 1ZG     -0.158000
      6 C4          1.2830    4.3760    1.3340 c2        1 1ZG      0.298000
      7 O3          2.3550    3.8810    1.5370 o         1 1ZG     -0.414000
      8 N           0.0740    3.6970    1.7780 n         1 1ZG     -0.368000
      9 CA          0.1570    2.3830    2.3310 c3        1 1ZG      0.015000
     10 C          -0.8260    1.4840    1.6380 c2        1 1ZG      0.293000
     11 O          -1.7050    0.9280    2.2840 o         1 1ZG     -0.406000
     12 CB         -0.1650    2.4370    3.8290 c3        1 1ZG     -0.123000
     13 CG1        -0.4930    1.0450    4.3290 c3        1 1ZG     -0.214000
     14 CG2         1.0150    2.9630    4.5670 c3        1 1ZG     -0.214000
     15 N1         -0.6630    1.1810    0.2070 n         1 1ZG     -0.286000
     16 CA1        -1.5550    0.1400   -0.6650 c3        1 1ZG     -0.027000
     17 C5         -0.8660   -1.1780   -0.7160 c2        1 1ZG      0.271000
     18 O4         -0.1760   -1.5380    0.2150 o         1 1ZG     -0.456000
     19 CB1        -1.6570    0.7560   -1.8580 c3        1 1ZG     -0.166000
     20 CG         -0.4200    1.6420   -1.9760 c3        1 1ZG     -0.211000
     21 CD          0.2080    1.6840   -0.5830 c3        1 1ZG     -0.041000
     22 N2         -1.0680   -2.0630   -1.8580 n         1 1ZG     -0.251000
     23 CA2        -0.2990   -3.2960   -1.9690 c3        1 1ZG     -0.579000
     24 P           1.2050   -2.9830   -2.8890 p5        1 1ZG      1.604500
     25 O1P         0.8560   -2.5250   -4.2760 o         1 1ZG     -0.930167
     26 O2P         2.0110   -1.9130   -2.1930 o         1 1ZG     -0.930167
     27 CB2        -1.1190   -4.3430   -2.6910 c3        1 1ZG     -0.118000
     28 CG3        -0.9900   -5.6910   -1.9610 c2        1 1ZG     -0.007000
     29 CD1        -0.4240   -6.7810   -2.6130 c2        1 1ZG     -0.118000
     30 CD2        -1.5510   -5.8520   -0.7030 c1        1 1ZG     -0.144000
     31 CE1        -0.4210   -8.0340   -2.0020 c1        1 1ZG     -0.163000
     32 CE2        -1.5480   -7.1130   -0.0890 c1        1 1ZG     -0.175500
     33 CZ         -0.9870   -8.1940   -0.7350 c1        1 1ZG     -0.175500
     34 OGG         2.0140   -4.2460   -2.9680 o         1 1ZG     -0.930167
     35 H21         2.6770    6.9480    1.2060 hc        1 1ZG      0.069000
     36 H22         3.2730    5.6590    0.4510 hc        1 1ZG      0.069000
     37 H31         0.8790    5.4410   -0.4020 hc        1 1ZG      0.111500
     38 H32         0.5330    6.2710    0.9220 hc        1 1ZG      0.111500
     39 H          -0.7630    4.0830    1.6200 hn        1 1ZG      0.232000
     40 HA          1.0520    2.0390    2.2070 h1        1 1ZG      0.136000
     41 HB         -0.9360    3.0280    3.9780 hc        1 1ZG      0.097000
     42 HG11       -0.2140    0.9610    5.2840 hc        1 1ZG      0.078500
     43 HG12       -1.4570    0.8900    4.2550 hc        1 1ZG      0.078500
     44 HG13       -0.0200    0.3930    3.7970 hc        1 1ZG      0.078500
     45 HG21        0.8100    3.0040    5.5300 hc        1 1ZG      0.078500
     46 HG22        1.2300    3.8570    4.2410 hc        1 1ZG      0.078500
     47 HG23        1.7720    2.3760    4.4230 hc        1 1ZG      0.078500
     48 HA1        -2.4390   -0.1160   -0.3180 h1        1 1ZG      0.124000
     49 HB2        -2.4690    1.3030   -1.8890 hc        1 1ZG      0.084500
     50 HB3        -1.6680    0.0910   -2.5820 hc        1 1ZG      0.084500
     51 HG2        -0.6790    2.5470   -2.2570 hc        1 1ZG      0.134000
     52 HG3         0.2120    1.2570   -2.6190 hc        1 1ZG      0.134000
     53 HD2         0.4040    2.6130   -0.3260 h1        1 1ZG      0.092500
     54 HD3         1.0250    1.1500   -0.5680 h1        1 1ZG      0.092500
     55 HN2        -1.6920   -1.8560   -2.4900 hn        1 1ZG      0.249000
     56 HA2        -0.0750   -3.6160   -1.0830 h1        1 1ZG      0.093000
     57 HB1        -0.7870   -4.4380   -3.6180 hc        1 1ZG      0.091500
     58 HB21       -2.0590   -4.0700   -2.7080 hc        1 1ZG      0.091500
     59 HD1         0.0590   -6.6480   -3.4610 ha        1 1ZG      0.221000
     60 HD21       -1.9470   -5.0880   -0.2450 ha        1 1ZG      0.149000
     61 HE1        -0.0160   -8.8150   -2.4690 ha        1 1ZG      0.095000
     62 HE2        -1.9430   -7.2250    0.7980 ha        1 1ZG      0.085000
     63 HZ         -0.9160   -9.0590   -0.2710 ha        1 1ZG      0.085000
@<TRIPOS>BOND
     1    1    2 1   
     2    1    4 1   
     3    4    5 1   
     4    4   35 1   
     5    4   36 1   
     6    5    6 1   
     7    5   37 1   
     8    5   38 1   
     9    6    7 1   
    10    6    8 1   
    11    8    9 1   
    12    8   39 1   
    13    9   10 1   
    14    9   12 1   
    15    9   40 1   
    16   10   11 1   
    17   10   15 1   
    18   12   13 1   
    19   12   14 1   
    20   12   41 1   
    21   13   42 1   
    22   13   43 1   
    23   13   44 1   
    24   14   45 1   
    25   14   46 1   
    26   14   47 1   
    27   15   16 1   
    28   15   21 1   
    29   16   17 1   
    30   16   19 1   
    31   16   48 1   
    32   17   18 1   
    33   17   22 1   
    34   19   20 1   
    35   19   49 1   
    36   19   50 1   
    37   20   21 1   
    38   20   51 1   
    39   20   52 1   
    40   21   53 1   
    41   21   54 1   
    42   22   23 1   
    43   22   55 1   
    44   23   24 1   
    45   23   27 1   
    46   23   56 1   
    47   24   25 1   
    48   24   26 1   
    49   24   34 1   
    50   27   28 1   
    51   27   57 1   
    52   27   58 1   
    53   28   29 1   
    54   28   30 1   
    55   29   31 1   
    56   29   59 1   
    57   30   60 1   
    58   31   61 1   
    59   32   33 1   
    60   32   62 1   
    61   33   63 1   
@<TRIPOS>SUBSTRUCTURE
     1 1ZG         1 TEMP              0 ****  ****    0 ROOT
