@<TRIPOS>MOLECULE
1ZN
   52    52     1     0     0
SMALL
bcc


@<TRIPOS>ATOM
      1 C1         -2.0010    0.3750    2.6640 c3        1 1ZN      0.114700
      2 O1         -2.8920    1.1550    1.8840 os        1 1ZN     -0.426600
      3 C2         -2.6640    1.0540    0.4740 c3        1 1ZN      0.148100
      4 C3         -4.0450    1.1730   -0.1830 c3        1 1ZN     -0.045100
      5 C4         -4.6700   -0.1530   -0.4360 ca        1 1ZN     -0.070300
      6 C5         -5.8390   -0.5300    0.2330 ca        1 1ZN     -0.126500
      7 C6         -6.4300   -1.7660   -0.0240 ca        1 1ZN     -0.131000
      8 C7         -5.8590   -2.6370   -0.9510 ca        1 1ZN     -0.138000
      9 C8         -4.6910   -2.2690   -1.6200 ca        1 1ZN     -0.131000
     10 C9         -4.0990   -1.0340   -1.3650 ca        1 1ZN     -0.126500
     11 C10        -1.7210    2.1690   -0.0170 c3        1 1ZN     -0.043500
     12 C11        -2.1410    3.5190    0.5290 c3        1 1ZN     -0.081100
     13 C12        -0.3070    1.8740    0.3390 c2        1 1ZN     -0.212200
     14 C13         0.5350    1.0950   -0.3680 ce        1 1ZN     -0.044200
     15 C14         0.1380    0.3890   -1.6130 c3        1 1ZN     -0.064900
     16 C15         1.9110    0.9180    0.0810 ce        1 1ZN     -0.189000
     17 C16         2.8990    0.4140   -0.6680 c2        1 1ZN     -0.090200
     18 C17         4.3030    0.2210   -0.1530 c3        1 1ZN      0.196700
     19 N1          5.1630    1.3200   -0.5770 n3        1 1ZN     -0.900800
     20 C18         4.7930   -1.1790   -0.5750 c3        1 1ZN     -0.221700
     21 C19         3.9390   -2.2570    0.0460 c3        1 1ZN     -0.064100
     22 C20         6.2740   -1.4190   -0.1850 c         1 1ZN      0.911600
     23 OXT         6.8640   -2.3810   -0.7500 o         1 1ZN     -0.842800
     24 O3          6.8220   -0.6520    0.6590 o         1 1ZN     -0.842800
     25 H1         -2.2830    0.6070    3.7210 h1        1 1ZN      0.035367
     26 H2         -2.1450   -0.7140    2.4520 h1        1 1ZN      0.035367
     27 H3         -0.9390    0.6650    2.4660 h1        1 1ZN      0.035367
     28 H4         -2.2020    0.0570    0.2250 h1        1 1ZN      0.055700
     29 H5         -4.7030    1.7950    0.4810 hc        1 1ZN      0.059200
     30 H6         -3.9410    1.7160   -1.1600 hc        1 1ZN      0.059200
     31 H7         -6.2890    0.1510    0.9710 ha        1 1ZN      0.134000
     32 H8         -7.3480   -2.0550    0.5080 ha        1 1ZN      0.127000
     33 H9         -6.3240   -3.6130   -1.1520 ha        1 1ZN      0.125000
     34 H10        -4.2350   -2.9550   -2.3480 ha        1 1ZN      0.127000
     35 H11        -3.1750   -0.7460   -1.8900 ha        1 1ZN      0.134000
     36 H12        -1.8100    2.2030   -1.1420 hc        1 1ZN      0.047700
     37 H13        -2.1340    3.5040    1.6460 hc        1 1ZN      0.034367
     38 H14        -1.4440    4.3140    0.1740 hc        1 1ZN      0.034367
     39 H15        -3.1760    3.7630    0.1880 hc        1 1ZN      0.034367
     40 H16         0.0520    2.3720    1.2560 ha        1 1ZN      0.124000
     41 H17         0.5330    0.9410   -2.5030 hc        1 1ZN      0.039700
     42 H18         0.5650   -0.6450   -1.6250 hc        1 1ZN      0.039700
     43 H19        -0.9720    0.3060   -1.7120 hc        1 1ZN      0.039700
     44 H20         2.1150    1.2440    1.1160 ha        1 1ZN      0.125000
     45 H21         2.7370    0.1040   -1.7130 ha        1 1ZN      0.109000
     46 H22         4.2910    0.2430    0.9790 h1        1 1ZN      0.066700
     47 H23         6.0190    1.2550   -0.0460 hn        1 1ZN      0.353800
     48 H24         5.3980    1.2000   -1.5440 hn        1 1ZN      0.353800
     49 H25         4.7320   -1.2650   -1.6940 hc        1 1ZN      0.032700
     50 H26         3.9640   -2.1840    1.1600 hc        1 1ZN      0.019700
     51 H27         2.8770   -2.1720   -0.2900 hc        1 1ZN      0.019700
     52 H28         4.3350   -3.2590   -0.2500 hc        1 1ZN      0.019700
@<TRIPOS>BOND
     1    1    2 1   
     2    1   25 1   
     3    1   26 1   
     4    1   27 1   
     5    2    3 1   
     6    3    4 1   
     7    3   11 1   
     8    3   28 1   
     9    4    5 1   
    10    4   29 1   
    11    4   30 1   
    12    5    6 ar  
    13    5   10 ar  
    14    6    7 ar  
    15    6   31 1   
    16    7    8 ar  
    17    7   32 1   
    18    8    9 ar  
    19    8   33 1   
    20    9   10 ar  
    21    9   34 1   
    22   10   35 1   
    23   11   12 1   
    24   11   13 1   
    25   11   36 1   
    26   12   37 1   
    27   12   38 1   
    28   12   39 1   
    29   13   14 2   
    30   13   40 1   
    31   14   15 1   
    32   14   16 1   
    33   15   41 1   
    34   15   42 1   
    35   15   43 1   
    36   16   17 2   
    37   16   44 1   
    38   17   18 1   
    39   17   45 1   
    40   18   19 1   
    41   18   20 1   
    42   18   46 1   
    43   19   47 1   
    44   19   48 1   
    45   20   21 1   
    46   20   22 1   
    47   20   49 1   
    48   21   50 1   
    49   21   51 1   
    50   21   52 1   
    51   22   23 1   
    52   22   24 1   
@<TRIPOS>SUBSTRUCTURE
     1 1ZN         1 TEMP              0 ****  ****    0 ROOT
