@<TRIPOS>MOLECULE
1ZN
   52    48     1     0     0
SMALL
bcc


@<TRIPOS>ATOM
      1 C1         -3.0270   -1.6730   -2.6770 c3        1 1ZN     -0.072000
      2 O1         -1.5810   -1.6770   -2.6490 os        1 1ZN     -0.288000
      3 C2         -1.0360   -1.6370   -1.3580 c3        1 1ZN      0.037000
      4 C3         -0.3370   -2.9590   -1.0620 c3        1 1ZN     -0.140000
      5 C4         -1.3540   -3.9530   -0.4030 c2        1 1ZN     -0.062000
      6 C5         -1.3960   -4.0910    0.9770 c1        1 1ZN     -0.124000
      7 C6         -2.2910   -4.9840    1.5600 c1        1 1ZN     -0.137500
      8 C7         -3.1400   -5.7350    0.7600 c1        1 1ZN     -0.137500
      9 C8         -3.0980   -5.5970   -0.6160 c1        1 1ZN     -0.138000
     10 C9         -2.2030   -4.7050   -1.2000 c2        1 1ZN     -0.131000
     11 C10        -0.0250   -0.4890   -1.2650 c3        1 1ZN     -0.078000
     12 C11        -0.0200    0.2750   -2.5450 c3        1 1ZN     -0.202000
     13 C12        -0.4180    0.4490   -0.1140 c2        1 1ZN     -0.235000
     14 C13         0.5300    0.8220    0.8350 c1        1 1ZN      0.005000
     15 C14         1.9460    0.3040    0.7320 c2        1 1ZN     -0.176000
     16 C15         0.1280    1.7780    2.0070 c2        1 1ZN     -0.201000
     17 C16         0.6570    3.0650    2.0710 c1        1 1ZN     -0.099000
     18 C17         1.6320    3.5460    0.9980 c2        1 1ZN     -0.015000
     19 N1          0.9170    3.8610   -0.1840 n3        1 1ZN     -0.337000
     20 C18         2.3500    4.7710    1.4880 c3        1 1ZN     -0.217000
     21 C19         3.6470    4.9440    0.7100 c3        1 1ZN     -0.185000
     22 C20         2.6650    4.6180    2.9660 c2        1 1ZN      0.334000
     23 OXT         1.9220    5.1630    3.8290 o         1 1ZN     -0.574500
     24 O3          3.6540    3.9300    3.3310 o         1 1ZN     -0.574500
     25 H1         -3.3640   -0.9750   -2.0760 h1        1 1ZN      0.066667
     26 H2         -3.3630   -2.5490   -2.3820 h1        1 1ZN      0.066667
     27 H3         -3.3370   -1.4950   -3.5940 h1        1 1ZN      0.066667
     28 H4         -1.7480   -1.4950   -0.7110 h1        1 1ZN      0.087000
     29 H5          0.4110   -2.8030   -0.4480 hc        1 1ZN      0.110000
     30 H6          0.0020   -3.3450   -1.9010 hc        1 1ZN      0.110000
     31 H7         -0.7410   -3.6280    1.5320 ha        1 1ZN      0.141000
     32 H8         -2.3670   -5.0340    2.5340 ha        1 1ZN      0.124500
     33 H9         -3.7580   -6.3870    1.1720 ha        1 1ZN      0.124500
     34 H10        -3.6790   -6.1500   -1.1830 ha        1 1ZN      0.121000
     35 H11        -2.0300   -5.1390   -2.0630 ha        1 1ZN      0.141000
     36 H12         0.8660   -0.8520   -1.1000 hc        1 1ZN      0.101000
     37 H13        -0.9420    0.4540   -2.8220 hc        1 1ZN      0.071667
     38 H14         0.4320   -0.2480   -3.2350 hc        1 1ZN      0.071667
     39 H15         0.4540    1.1270   -2.4150 hc        1 1ZN      0.071667
     40 H16        -1.3310    0.7830   -0.0480 ha        1 1ZN      0.114000
     41 H17         1.9340   -0.6760    0.7200 ha        1 1ZN      0.082000
     42 H18         2.4650    0.6140    1.5040 ha        1 1ZN      0.082000
     43 H19         2.3570    0.6360   -0.0940 ha        1 1ZN      0.082000
     44 H20        -0.5010    1.4680    2.7010 ha        1 1ZN      0.108000
     45 H21         0.4020    3.6670    2.8130 ha        1 1ZN      0.178000
     46 H22         2.2790    2.8450    0.8090 h4        1 1ZN      0.122000
     47 H23         0.3660    4.5810   -0.0260 hn        1 1ZN      0.126500
     48 H24         1.5120    4.0720   -0.8560 hn        1 1ZN      0.126500
     49 H25         1.7820    5.5580    1.3540 hc        1 1ZN      0.077000
     50 H26         3.4440    5.0400   -0.2500 hc        1 1ZN      0.057333
     51 H27         4.1130    5.7460    1.0280 hc        1 1ZN      0.057333
     52 H28         4.2200    4.1570    0.8470 hc        1 1ZN      0.057333
@<TRIPOS>BOND
     1    1    2 1   
     2    1   25 1   
     3    1   26 1   
     4    1   27 1   
     5    2    3 1   
     6    3    4 1   
     7    3   11 1   
     8    3   28 1   
     9    4    5 1   
    10    4   29 1   
    11    4   30 1   
    12    5    6 1   
    13    5   10 1   
    14    6   31 1   
    15    7    8 1   
    16    7   32 1   
    17    8   33 1   
    18    9   10 1   
    19    9   34 1   
    20   10   35 1   
    21   11   12 1   
    22   11   13 1   
    23   11   36 1   
    24   12   37 1   
    25   12   38 1   
    26   12   39 1   
    27   13   14 1   
    28   13   40 1   
    29   14   16 1   
    30   15   41 1   
    31   15   42 1   
    32   15   43 1   
    33   16   17 1   
    34   16   44 1   
    35   17   45 1   
    36   18   19 1   
    37   18   20 1   
    38   18   46 1   
    39   19   47 1   
    40   19   48 1   
    41   20   21 1   
    42   20   22 1   
    43   20   49 1   
    44   21   50 1   
    45   21   51 1   
    46   21   52 1   
    47   22   23 1   
    48   22   24 1   
@<TRIPOS>SUBSTRUCTURE
     1 1ZN         1 TEMP              0 ****  ****    0 ROOT
