@<TRIPOS>MOLECULE
1ZQ
   33    24     1     0     0
SMALL
bcc


@<TRIPOS>ATOM
      1 O01        -4.7770   -0.1650    1.0500 oh        1 1ZQ     -0.265000
      2 C02        -3.3720   -0.0830    1.0580 c1        1 1ZQ      0.059000
      3 C03        -2.6880   -0.0310    2.2620 c1        1 1ZQ      0.032000
      4 O04        -3.4000   -0.0060    3.4730 oh        1 1ZQ     -0.238000
      5 C05        -1.3250    0.0190    2.2700 c1        1 1ZQ     -0.102000
      6 C06        -0.6360    0.0170    1.0930 c1        1 1ZQ     -0.066000
      7 C07         0.8790    0.0090    1.1020 c1        1 1ZQ     -0.002333
      8 C08         1.5770    1.1900    1.3000 c1        1 1ZQ     -0.114000
      9 C09         2.9610    1.1740    1.3650 c1        1 1ZQ     -0.168000
     10 C10         3.6480   -0.0230    1.2310 c1        1 1ZQ      0.097000
     11 F11         4.9850   -0.0400    1.3110 f         1 1ZQ     -0.104000
     12 C12         2.9500   -1.2040    1.0320 c2        1 1ZQ     -0.166000
     13 C13         1.5660   -1.1880    0.9680 c1        1 1ZQ     -0.082000
     14 C14        -1.3220   -0.0360   -0.1110 c1        1 1ZQ      0.033000
     15 C15        -0.5600    0.0020   -1.4180 c1        1 1ZQ     -0.002333
     16 C16        -0.3630   -1.1660   -2.1380 c1        1 1ZQ     -0.125500
     17 C17         0.2550   -1.1200   -3.3780 c1        1 1ZQ     -0.125500
     18 C18         0.6770    0.0930   -3.8980 c1        1 1ZQ     -0.002333
     19 F19         1.2480    0.1410   -5.1080 f         1 1ZQ     -0.104000
     20 C20         0.4800    1.2610   -3.1780 c1        1 1ZQ     -0.114000
     21 C21        -0.1380    1.2160   -1.9380 c1        1 1ZQ     -0.114000
     22 N22        -2.6830   -0.0860   -0.1180 n2        1 1ZQ     -0.170000
     23 H1         -3.2930   -0.7800    3.8950 ho        1 1ZQ      0.241000
     24 H2         -0.8420    0.0560    3.1180 ha        1 1ZQ      0.165000
     25 H4          1.0930    2.0320    1.3950 ha        1 1ZQ      0.146667
     26 H5          3.4530    2.0060    1.5050 ha        1 1ZQ      0.151000
     27 H6          3.4340   -2.0460    0.9380 ha        1 1ZQ      0.152000
     28 H7          1.0740   -2.0200    0.8280 ha        1 1ZQ      0.146000
     29 H8         -0.6600   -2.0210   -1.7720 ha        1 1ZQ      0.148500
     30 H9          0.3940   -1.9440   -3.8860 ha        1 1ZQ      0.148500
     31 H10         0.7770    2.1160   -3.5440 ha        1 1ZQ      0.146667
     32 H11        -0.2770    2.0380   -1.4310 ha        1 1ZQ      0.146667
     33 H12        -5.1160    0.5900    0.7260 ho        1 1ZQ      0.251000
@<TRIPOS>BOND
     1    1    2 1   
     2    1   33 1   
     3    2   22 1   
     4    3    4 1   
     5    3    5 1   
     6    4   23 1   
     7    5   24 1   
     8    6   14 1   
     9    7    8 1   
    10    8   25 1   
    11    9   10 1   
    12    9   26 1   
    13   10   12 1   
    14   12   13 1   
    15   12   27 1   
    16   13   28 1   
    17   14   22 1   
    18   15   21 1   
    19   16   17 1   
    20   16   29 1   
    21   17   30 1   
    22   18   20 1   
    23   20   31 1   
    24   21   32 1   
@<TRIPOS>SUBSTRUCTURE
     1 1ZQ         1 TEMP              0 ****  ****    0 ROOT
