@<TRIPOS>MOLECULE
1ZQ
   33    35     1     0     0
SMALL
bcc


@<TRIPOS>ATOM
      1 O01         0.0710    0.0930    0.1660 oh        1 1ZQ     -0.636300
      2 C02         1.4460    0.0640    0.0550 ca        1 1ZQ      0.557600
      3 C03         2.1610    0.0310    1.2880 ca        1 1ZQ      0.011800
      4 O04         1.5520    0.0380    2.5150 oh        1 1ZQ     -0.484100
      5 C05         3.5540   -0.0130    1.2320 ca        1 1ZQ     -0.102000
      6 C06         4.1930   -0.0180   -0.0200 cp        1 1ZQ     -0.131300
      7 C07         5.6510   -0.1010   -0.0520 cp        1 1ZQ     -0.055000
      8 C08         6.4170    0.7830    0.7230 ca        1 1ZQ     -0.088500
      9 C09         7.8040    0.7010    0.7350 ca        1 1ZQ     -0.167000
     10 C10         8.4460   -0.2870   -0.0360 ca        1 1ZQ      0.131900
     11 F11         9.7970   -0.3770   -0.0290 f         1 1ZQ     -0.138900
     12 C12         7.6870   -1.1830   -0.8120 ca        1 1ZQ     -0.167000
     13 C13         6.3000   -1.0820   -0.8150 ca        1 1ZQ     -0.088500
     14 C14         3.3980    0.0400   -1.1930 cq        1 1ZQ      0.468800
     15 C15         4.0160    0.0850   -2.5340 cq        1 1ZQ     -0.157500
     16 C16         3.7560   -0.9320   -3.4600 ca        1 1ZQ     -0.079000
     17 C17         4.3160   -0.8880   -4.7320 ca        1 1ZQ     -0.170000
     18 C18         5.1400    0.1960   -5.0890 ca        1 1ZQ      0.132900
     19 F19         5.6890    0.2470   -6.3260 f         1 1ZQ     -0.138900
     20 C20         5.3940    1.2280   -4.1660 ca        1 1ZQ     -0.170000
     21 C21         4.8290    1.1660   -2.8970 ca        1 1ZQ     -0.079000
     22 N22         2.0400    0.0700   -1.1550 nb        1 1ZQ     -0.696000
     23 H1          0.5920    0.0590    2.3720 ho        1 1ZQ      0.442000
     24 H2          4.1390   -0.0520    2.1630 ha        1 1ZQ      0.165000
     25 H4          5.9130    1.5520    1.3290 ha        1 1ZQ      0.144000
     26 H5          8.4050    1.3960    1.3380 ha        1 1ZQ      0.151500
     27 H6          8.1950   -1.9530   -1.4100 ha        1 1ZQ      0.151500
     28 H7          5.7030   -1.7770   -1.4270 ha        1 1ZQ      0.144000
     29 H8          3.0980   -1.7710   -3.1830 ha        1 1ZQ      0.146000
     30 H9          4.1180   -1.6860   -5.4620 ha        1 1ZQ      0.151500
     31 H10         6.0340    2.0730   -4.4560 ha        1 1ZQ      0.151500
     32 H11         5.0230    1.9730   -2.1730 ha        1 1ZQ      0.146000
     33 H12        -0.3240    0.1270   -0.7210 ho        1 1ZQ      0.452000
@<TRIPOS>BOND
     1    1    2 1   
     2    1   33 1   
     3    2    3 ar  
     4    2   22 ar  
     5    3    4 1   
     6    3    5 ar  
     7    4   23 1   
     8    5    6 ar  
     9    5   24 1   
    10    6    7 1   
    11    6   14 2   
    12    7    8 ar  
    13    7   13 ar  
    14    8    9 ar  
    15    8   25 1   
    16    9   10 ar  
    17    9   26 1   
    18   10   11 1   
    19   10   12 ar  
    20   12   13 ar  
    21   12   27 1   
    22   13   28 1   
    23   14   15 1   
    24   14   22 1   
    25   15   16 1   
    26   15   21 2   
    27   16   17 ar  
    28   16   29 1   
    29   17   18 ar  
    30   17   30 1   
    31   18   19 1   
    32   18   20 ar  
    33   20   21 ar  
    34   20   31 1   
    35   21   32 1   
@<TRIPOS>SUBSTRUCTURE
     1 1ZQ         1 TEMP              0 ****  ****    0 ROOT
