@<TRIPOS>MOLECULE
1ZQ
   33    35     1     0     0
SMALL
bcc


@<TRIPOS>ATOM
      1 O01        -4.7340    1.0740    0.1710 oh        1 1ZQ     -0.636300
      2 C02        -3.4870    0.4840    0.1050 ca        1 1ZQ      0.557600
      3 C03        -3.4850   -0.9360   -0.0100 ca        1 1ZQ      0.011800
      4 O04        -4.6260   -1.6940   -0.0440 oh        1 1ZQ     -0.484100
      5 C05        -2.2500   -1.5810   -0.0930 ca        1 1ZQ     -0.102000
      6 C06        -1.0710   -0.8160   -0.0570 cp        1 1ZQ     -0.131300
      7 C07         0.2080   -1.5120   -0.1810 cp        1 1ZQ     -0.055000
      8 C08         0.4840   -2.6150    0.6400 ca        1 1ZQ     -0.088500
      9 C09         1.6800   -3.3120    0.5150 ca        1 1ZQ     -0.167000
     10 C10         2.6190   -2.9100   -0.4530 ca        1 1ZQ      0.131900
     11 F11         3.7850   -3.5850   -0.5840 f         1 1ZQ     -0.138900
     12 C12         2.3480   -1.8080   -1.2860 ca        1 1ZQ     -0.167000
     13 C13         1.1490   -1.1200   -1.1430 ca        1 1ZQ     -0.088500
     14 C14        -1.1730    0.5910    0.0820 cq        1 1ZQ      0.468800
     15 C15         0.0330    1.4390    0.1740 cq        1 1ZQ     -0.157500
     16 C16         0.2680    2.4280   -0.7890 ca        1 1ZQ     -0.079000
     17 C17         1.3900    3.2460   -0.7000 ca        1 1ZQ     -0.170000
     18 C18         2.2840    3.0810    0.3750 ca        1 1ZQ      0.132900
     19 F19         3.3770    3.8740    0.4700 f         1 1ZQ     -0.138900
     20 C20         2.0440    2.0980    1.3530 ca        1 1ZQ     -0.170000
     21 C21         0.9200    1.2860    1.2470 ca        1 1ZQ     -0.079000
     22 N22        -2.3680    1.2350    0.1520 nb        1 1ZQ     -0.696000
     23 H1         -5.3860   -1.0920    0.0130 ho        1 1ZQ      0.442000
     24 H2         -2.2090   -2.6760   -0.1950 ha        1 1ZQ      0.165000
     25 H4         -0.2530   -2.9310    1.3940 ha        1 1ZQ      0.144000
     26 H5          1.9000   -4.1740    1.1620 ha        1 1ZQ      0.151500
     27 H6          3.0870   -1.5020   -2.0410 ha        1 1ZQ      0.151500
     28 H7          0.9370   -0.2530   -1.7890 ha        1 1ZQ      0.144000
     29 H8         -0.4410    2.5650   -1.6200 ha        1 1ZQ      0.146000
     30 H9          1.5820    4.0220   -1.4550 ha        1 1ZQ      0.151500
     31 H10         2.7450    1.9810    2.1910 ha        1 1ZQ      0.151500
     32 H11         0.7280    0.5170    2.0110 ha        1 1ZQ      0.146000
     33 H12        -4.6320    2.0350    0.2600 ho        1 1ZQ      0.452000
@<TRIPOS>BOND
     1    1    2 1   
     2    1   33 1   
     3    2    3 ar  
     4    2   22 ar  
     5    3    4 1   
     6    3    5 ar  
     7    4   23 1   
     8    5    6 ar  
     9    5   24 1   
    10    6    7 1   
    11    6   14 2   
    12    7    8 ar  
    13    7   13 ar  
    14    8    9 ar  
    15    8   25 1   
    16    9   10 ar  
    17    9   26 1   
    18   10   11 1   
    19   10   12 ar  
    20   12   13 ar  
    21   12   27 1   
    22   13   28 1   
    23   14   15 1   
    24   14   22 1   
    25   15   16 1   
    26   15   21 2   
    27   16   17 ar  
    28   16   29 1   
    29   17   18 ar  
    30   17   30 1   
    31   18   19 1   
    32   18   20 ar  
    33   20   21 ar  
    34   20   31 1   
    35   21   32 1   
@<TRIPOS>SUBSTRUCTURE
     1 1ZQ         1 TEMP              0 ****  ****    0 ROOT
