@<TRIPOS>MOLECULE
1ZQ
   33    35     1     0     0
SMALL
bcc


@<TRIPOS>ATOM
      1 O01         0.0710    0.1200    0.1650 oh        1 1ZQ     -0.636300
      2 C02         1.4460    0.0830    0.0540 ca        1 1ZQ      0.557600
      3 C03         2.1610    0.0430    1.2870 ca        1 1ZQ      0.011800
      4 O04         1.5510    0.0530    2.5140 oh        1 1ZQ     -0.484100
      5 C05         3.5540   -0.0090    1.2320 ca        1 1ZQ     -0.102000
      6 C06         4.1920   -0.0170   -0.0200 cp        1 1ZQ     -0.131300
      7 C07         5.6510   -0.1080   -0.0520 cp        1 1ZQ     -0.055000
      8 C08         6.4210    0.7700    0.7250 ca        1 1ZQ     -0.088500
      9 C09         7.8080    0.6800    0.7360 ca        1 1ZQ     -0.167000
     10 C10         8.4440   -0.3120   -0.0350 ca        1 1ZQ      0.131900
     11 F11         9.7940   -0.4090   -0.0280 f         1 1ZQ     -0.138900
     12 C12         7.6790   -1.2010   -0.8120 ca        1 1ZQ     -0.167000
     13 C13         6.2930   -1.0920   -0.8150 ca        1 1ZQ     -0.088500
     14 C14         3.3990    0.0470   -1.1930 cq        1 1ZQ      0.468800
     15 C15         4.0180    0.0900   -2.5340 cq        1 1ZQ     -0.157500
     16 C16         3.7500   -0.9240   -3.4610 ca        1 1ZQ     -0.079000
     17 C17         4.3110   -0.8810   -4.7340 ca        1 1ZQ     -0.170000
     18 C18         5.1430    0.1970   -5.0880 ca        1 1ZQ      0.132900
     19 F19         5.6910    0.2470   -6.3250 f         1 1ZQ     -0.138900
     20 C20         5.4030    1.2260   -4.1640 ca        1 1ZQ     -0.170000
     21 C21         4.8370    1.1670   -2.8950 ca        1 1ZQ     -0.079000
     22 N22         2.0410    0.0860   -1.1560 nb        1 1ZQ     -0.696000
     23 H1          0.5910    0.0800    2.3710 ho        1 1ZQ      0.442000
     24 H2          4.1380   -0.0520    2.1630 ha        1 1ZQ      0.165000
     25 H4          5.9210    1.5420    1.3310 ha        1 1ZQ      0.144000
     26 H5          8.4130    1.3710    1.3410 ha        1 1ZQ      0.151500
     27 H6          8.1840   -1.9740   -1.4110 ha        1 1ZQ      0.151500
     28 H7          5.6920   -1.7830   -1.4280 ha        1 1ZQ      0.144000
     29 H8          3.0870   -1.7580   -3.1860 ha        1 1ZQ      0.146000
     30 H9          4.1080   -1.6770   -5.4650 ha        1 1ZQ      0.151500
     31 H10         6.0490    2.0680   -4.4530 ha        1 1ZQ      0.151500
     32 H11         5.0370    1.9710   -2.1700 ha        1 1ZQ      0.146000
     33 H12        -0.3230    0.1570   -0.7220 ho        1 1ZQ      0.452000
@<TRIPOS>BOND
     1    1    2 1   
     2    1   33 1   
     3    2    3 ar  
     4    2   22 ar  
     5    3    4 1   
     6    3    5 ar  
     7    4   23 1   
     8    5    6 ar  
     9    5   24 1   
    10    6    7 1   
    11    6   14 2   
    12    7    8 ar  
    13    7   13 ar  
    14    8    9 ar  
    15    8   25 1   
    16    9   10 ar  
    17    9   26 1   
    18   10   11 1   
    19   10   12 ar  
    20   12   13 ar  
    21   12   27 1   
    22   13   28 1   
    23   14   15 1   
    24   14   22 1   
    25   15   16 1   
    26   15   21 2   
    27   16   17 ar  
    28   16   29 1   
    29   17   18 ar  
    30   17   30 1   
    31   18   19 1   
    32   18   20 ar  
    33   20   21 ar  
    34   20   31 1   
    35   21   32 1   
@<TRIPOS>SUBSTRUCTURE
     1 1ZQ         1 TEMP              0 ****  ****    0 ROOT
