@<TRIPOS>MOLECULE
1ZT
   18    17     1     0     0
SMALL
bcc


@<TRIPOS>ATOM
      1 C           1.6020   -1.2440    0.2800 c         1 1ZT      0.643100
      2 O           2.0510   -0.7530    1.3390 o         1 1ZT     -0.636100
      3 CH3         2.2770   -2.4570   -0.3300 c3        1 1ZT     -0.177100
      4 N           0.5530   -0.6990   -0.4330 n         1 1ZT     -0.505900
      5 CA         -0.3880    0.2240    0.1700 c3        1 1ZT     -0.054300
      6 C1         -1.8550   -0.3710    0.2230 c         1 1ZT      0.908600
      7 O1         -2.0940   -1.4220   -0.4340 o         1 1ZT     -0.825300
      8 CB         -0.5060    1.5380   -0.5940 c3        1 1ZT      0.042700
      9 SG          0.9770    2.5190   -0.4710 sh        1 1ZT     -0.419900
     10 OXT        -2.6870    0.2680    0.9150 o         1 1ZT     -0.825300
     11 H1          1.5630   -3.3140   -0.3670 hc        1 1ZT      0.050367
     12 H2          2.6300   -2.2330   -1.3650 hc        1 1ZT      0.050367
     13 H3          3.1540   -2.7390    0.3000 hc        1 1ZT      0.050367
     14 H           0.1080   -1.3120   -1.0900 hn        1 1ZT      0.310500
     15 HA         -0.0690    0.4430    1.2290 h1        1 1ZT      0.089700
     16 HB2        -0.7270    1.3510   -1.6720 h1        1 1ZT      0.066700
     17 HB3        -1.3640    2.0980   -0.1450 h1        1 1ZT      0.066700
     18 HG          0.4770    3.6660   -0.8880 hs        1 1ZT      0.165800
@<TRIPOS>BOND
     1    1    2 2   
     2    1    3 1   
     3    1    4 1   
     4    3   11 1   
     5    3   12 1   
     6    3   13 1   
     7    4    5 1   
     8    4   14 1   
     9    5    6 1   
    10    5    8 1   
    11    5   15 1   
    12    6    7 1   
    13    6   10 1   
    14    8    9 1   
    15    8   16 1   
    16    8   17 1   
    17    9   18 1   
@<TRIPOS>SUBSTRUCTURE
     1 1ZT         1 TEMP              0 ****  ****    0 ROOT
