@<TRIPOS>MOLECULE
1ZT
   18    16     1     0     0
SMALL
bcc


@<TRIPOS>ATOM
      1 C           0.4140   -0.0760    1.7320 c1        1 1ZT      0.285000
      2 O           1.6250    0.0200    1.7020 o         1 1ZT     -0.407000
      3 CH3        -0.3010   -0.2100    3.0580 c2        1 1ZT     -0.244000
      4 N          -0.3280   -0.0780    0.5230 n3        1 1ZT     -0.332000
      5 CA          0.3470    0.0060   -0.7240 c3        1 1ZT     -0.081000
      6 C1          0.6270    1.4570   -1.0490 c2        1 1ZT      0.325000
      7 O1          1.7780    1.8070   -1.4190 o         1 1ZT     -0.562000
      8 CB         -0.5210   -0.5940   -1.8080 c3        1 1ZT     -0.204000
      9 SG          0.3000   -0.4450   -3.3720 sh        1 1ZT     -0.170000
     10 OXT        -0.2930    2.3120   -0.9570 o         1 1ZT     -0.562000
     11 H1         -0.6850   -1.1090    3.1330 ha        1 1ZT      0.090000
     12 H2         -1.0160    0.4570    3.1130 ha        1 1ZT      0.090000
     13 H3          0.3370   -0.0660    3.7890 ha        1 1ZT      0.090000
     14 H          -1.2370   -0.1420    0.5460 hn        1 1ZT      0.237000
     15 HA          1.1900   -0.4850   -0.6720 h1        1 1ZT      0.119000
     16 HB2        -1.3760   -0.1200   -1.8410 h1        1 1ZT      0.096500
     17 HB3        -0.6800   -1.5390   -1.6120 h1        1 1ZT      0.096500
     18 HG         -0.1810   -1.1960   -4.1410 hs        1 1ZT      0.134000
@<TRIPOS>BOND
     1    1    2 1   
     2    1    4 1   
     3    3   11 1   
     4    3   12 1   
     5    3   13 1   
     6    4    5 1   
     7    4   14 1   
     8    5    6 1   
     9    5    8 1   
    10    5   15 1   
    11    6    7 1   
    12    6   10 1   
    13    8    9 1   
    14    8   16 1   
    15    8   17 1   
    16    9   18 1   
@<TRIPOS>SUBSTRUCTURE
     1 1ZT         1 TEMP              0 ****  ****    0 ROOT
