@<TRIPOS>MOLECULE
1ZV
   92    91     1     0     0
SMALL
bcc


@<TRIPOS>ATOM
      1 N          -1.9610   -1.5890   -2.1210 n3        1 1ZV     -0.316000
      2 CA         -0.5550   -1.6710   -2.1970 c3        1 1ZV     -0.001000
      3 C           0.0320   -1.6440   -0.7890 c2        1 1ZV      0.275000
      4 O          -0.7020   -1.5460    0.1720 o         1 1ZV     -0.385000
      5 CB         -0.1550   -2.9800   -2.8960 c3        1 1ZV     -0.150000
      6 CG         -0.5890   -2.9270   -4.3800 c3        1 1ZV     -0.117000
      7 C1          0.0450   -4.1260   -5.1520 c2        1 1ZV     -0.082000
      8 C2         -0.2780   -5.4320   -4.7930 c2        1 1ZV     -0.127000
      9 C6          0.8120   -3.8870   -6.2930 c1        1 1ZV     -0.129000
     10 C3          0.1670   -6.5010   -5.5740 c1        1 1ZV     -0.125000
     11 C5          1.2560   -4.9560   -7.0730 c1        1 1ZV     -0.126000
     12 C4          0.9330   -6.2600   -6.7140 c1        1 1ZV     -0.126000
     13 N1          1.3690   -0.9300   -0.7980 n         1 1ZV     -0.337000
     14 CA1         2.0720   -0.6460    0.2410 c3        1 1ZV      0.023000
     15 C7          1.1020    0.1950    0.8870 c2        1 1ZV      0.320000
     16 O1          0.7270    1.2190    0.3440 o         1 1ZV     -0.478000
     17 CB1         3.1710    0.3120   -0.3220 c3        1 1ZV     -0.155000
     18 CG1         3.0850    0.2080   -1.8260 c3        1 1ZV     -0.173000
     19 CD          2.3380   -0.7930   -2.0510 c3        1 1ZV     -0.024000
     20 N2          1.3340    0.1730    2.4010 n         1 1ZV     -0.343000
     21 CA2         1.0410    1.4900    2.9710 c3        1 1ZV     -0.015000
     22 C8         -0.4480    1.7820    2.8560 c2        1 1ZV      0.189000
     23 O2         -1.1050    1.2520    1.9850 o         1 1ZV     -0.277000
     24 CB2         1.8130    2.5370    2.2320 c3        1 1ZV     -0.157000
     25 CG2         2.8640    3.1790    3.1850 c3        1 1ZV     -0.185000
     26 CD1         3.9600    3.8910    2.3460 c3        1 1ZV     -0.062000
     27 NE          5.1060    4.1760    3.1870 n3        1 1ZV     -0.302000
     28 CZ          6.4250    3.8300    2.7430 c2        1 1ZV      0.373000
     29 NH1         6.8560    2.4860    2.7920 n3        1 1ZV     -0.335000
     30 NH2         7.2320    4.7630    2.2920 n2        1 1ZV     -0.380000
     31 C9         -1.0600    1.9920    4.2750 c3        1 1ZV      0.084000
     32 O3         -1.3690    3.3220    4.4500 oh        1 1ZV     -0.348000
     33 N3         -2.2450    1.2080    4.4050 n3        1 1ZV     -0.330000
     34 C11        -3.4510    2.0080    3.9130 c3        1 1ZV     -0.077000
     35 C21        -4.6830    1.0490    3.7490 c3        1 1ZV     -0.175000
     36 C31        -5.3320    1.2740    2.3530 c3        1 1ZV     -0.170000
     37 C41        -5.7280   -0.1290    1.7240 c3        1 1ZV     -0.155000
     38 C51        -5.5530   -0.0700    0.1210 c3        1 1ZV     -0.155000
     39 C61        -4.2650   -0.8720   -0.2960 c3        1 1ZV     -0.173000
     40 C71        -4.3400   -1.2250   -1.8060 c3        1 1ZV     -0.182000
     41 C81        -3.0520   -0.7530   -2.5090 c3        1 1ZV      0.103000
     42 O8         -2.7810    0.5600   -2.1450 oh        1 1ZV     -0.387000
     43 H          -2.2790   -2.2900   -1.6170 hn        1 1ZV      0.186000
     44 HA         -0.2130   -0.9140   -2.7050 h1        1 1ZV      0.114000
     45 HB2         0.8200   -3.0940   -2.8440 hc        1 1ZV      0.096500
     46 HB3        -0.5970   -3.7360   -2.4520 hc        1 1ZV      0.096500
     47 HG2        -0.2870   -2.0880   -4.7790 hc        1 1ZV      0.096500
     48 HG3        -1.5590   -2.9820   -4.4370 hc        1 1ZV      0.096500
     49 HC2        -0.8120   -5.6000   -3.9980 ha        1 1ZV      0.132000
     50 H6          1.0410   -2.9630   -6.5490 ha        1 1ZV      0.127000
     51 H3         -0.0590   -7.4160   -5.3220 ha        1 1ZV      0.135000
     52 H5          1.7960   -4.7870   -7.8780 ha        1 1ZV      0.135000
     53 H4          1.2460   -7.0110   -7.2620 ha        1 1ZV      0.135000
     54 HA1         2.3060   -1.3320    0.9020 h1        1 1ZV      0.140000
     55 HB21        4.0590    0.0260   -0.0140 hc        1 1ZV      0.104500
     56 HB31        2.9960    1.2240   -0.0390 hc        1 1ZV      0.104500
     57 HG21        2.6850    1.0210   -2.2000 hc        1 1ZV      0.102000
     58 HG31        3.9810    0.0590   -2.2100 hc        1 1ZV      0.102000
     59 HD2         1.8130   -0.6440   -2.8690 h1        1 1ZV      0.095500
     60 HD3         2.8830   -1.6040   -2.1440 h1        1 1ZV      0.095500
     61 H1          2.0050   -0.3390    2.7540 hn        1 1ZV      0.269000
     62 HA2         1.3020    1.5010    3.9170 h1        1 1ZV      0.122000
     63 HB22        1.2040    3.2240    1.9130 hc        1 1ZV      0.116500
     64 HB32        2.2720    2.1270    1.4680 hc        1 1ZV      0.116500
     65 HG22        3.2740    2.4820    3.7330 hc        1 1ZV      0.101000
     66 HG32        2.4210    3.8330    3.7670 hc        1 1ZV      0.101000
     67 HD21        4.2340    3.3110    1.6070 h1        1 1ZV      0.136000
     68 HD31        3.6040    4.7280    1.9870 h1        1 1ZV      0.136000
     69 HE          4.9960    4.6650    3.9510 hn        1 1ZV      0.259000
     70 HH11        6.7870    2.0180    3.5650 hn        1 1ZV      0.283500
     71 HH12        7.2040    2.0880    2.0480 hn        1 1ZV      0.283500
     72 HH21        6.9530    5.6330    2.2610 DU        1 1ZV      0.270000
     73 HH22        8.0740    4.5410    2.0070 hn        1 1ZV      0.272000
     74 H11        -0.4070    1.7150    4.9580 h2        1 1ZV      0.117000
     75 HO         -1.0480    3.6040    5.2510 ho        1 1ZV      0.236000
     76 HN         -2.1610    0.4430    3.9090 hn        1 1ZV      0.196000
     77 H111       -3.2410    2.4180    3.0520 h1        1 1ZV      0.084000
     78 H12        -3.6680    2.7120    4.5690 h1        1 1ZV      0.084000
     79 H21        -5.3420    1.2390    4.4520 hc        1 1ZV      0.096000
     80 H22        -4.3880    0.1280    3.8230 hc        1 1ZV      0.096000
     81 H31        -4.7020    1.7220    1.7720 hc        1 1ZV      0.083000
     82 H32        -6.1420    1.8310    2.4520 hc        1 1ZV      0.083000
     83 H41        -5.1440   -0.8280    2.0910 hc        1 1ZV      0.085000
     84 H42        -6.6670   -0.3350    1.9450 hc        1 1ZV      0.085000
     85 H51        -6.3440   -0.4710   -0.3100 hc        1 1ZV      0.083500
     86 H52        -5.4650    0.8600   -0.1630 hc        1 1ZV      0.083500
     87 H61        -4.2100   -1.6950    0.2280 hc        1 1ZV      0.090000
     88 H62        -3.4780   -0.3290   -0.1290 hc        1 1ZV      0.090000
     89 H71        -4.4320   -2.1900   -1.9100 hc        1 1ZV      0.102500
     90 H72        -5.1130   -0.7780   -2.2080 hc        1 1ZV      0.102500
     91 H81        -3.1730   -0.8050   -3.4750 h2        1 1ZV      0.121000
     92 HO8        -3.1120    1.1100   -2.7570 ho        1 1ZV      0.216000
@<TRIPOS>BOND
     1    1    2 1   
     2    1   41 1   
     3    1   43 1   
     4    2    3 1   
     5    2    5 1   
     6    2   44 1   
     7    3    4 1   
     8    3   13 1   
     9    5    6 1   
    10    5   45 1   
    11    5   46 1   
    12    6    7 1   
    13    6   47 1   
    14    6   48 1   
    15    7    8 1   
    16    7    9 1   
    17    8   10 1   
    18    8   49 1   
    19    9   50 1   
    20   10   51 1   
    21   11   12 1   
    22   11   52 1   
    23   12   53 1   
    24   13   14 1   
    25   13   19 1   
    26   14   15 1   
    27   14   17 1   
    28   14   54 1   
    29   15   16 1   
    30   15   20 1   
    31   17   18 1   
    32   17   55 1   
    33   17   56 1   
    34   18   19 1   
    35   18   57 1   
    36   18   58 1   
    37   19   59 1   
    38   19   60 1   
    39   20   21 1   
    40   20   61 1   
    41   21   22 1   
    42   21   24 1   
    43   21   62 1   
    44   22   23 1   
    45   22   31 1   
    46   24   25 1   
    47   24   63 1   
    48   24   64 1   
    49   25   26 1   
    50   25   65 1   
    51   25   66 1   
    52   26   27 1   
    53   26   67 1   
    54   26   68 1   
    55   27   28 1   
    56   27   69 1   
    57   28   29 1   
    58   28   30 1   
    59   29   70 1   
    60   29   71 1   
    61   30   73 1   
    62   31   32 1   
    63   31   33 1   
    64   31   74 1   
    65   32   75 1   
    66   33   34 1   
    67   33   76 1   
    68   34   35 1   
    69   34   77 1   
    70   34   78 1   
    71   35   36 1   
    72   35   79 1   
    73   35   80 1   
    74   36   37 1   
    75   36   81 1   
    76   36   82 1   
    77   37   38 1   
    78   37   83 1   
    79   37   84 1   
    80   38   39 1   
    81   38   85 1   
    82   38   86 1   
    83   39   40 1   
    84   39   87 1   
    85   39   88 1   
    86   40   41 1   
    87   40   89 1   
    88   40   90 1   
    89   41   42 1   
    90   41   91 1   
    91   42   92 1   
@<TRIPOS>SUBSTRUCTURE
     1 1ZV         1 TEMP              0 ****  ****    0 ROOT
