@<TRIPOS>MOLECULE
1ZV
   92    94     1     0     0
SMALL
bcc


@<TRIPOS>ATOM
      1 N           2.4780    1.6110    0.4920 n3        1 1ZV     -0.887200
      2 CA          2.9380    0.2450    0.4200 c3        1 1ZV      0.146500
      3 C           1.8200   -0.6410   -0.1890 c         1 1ZV      0.669100
      4 O           1.1980   -0.2890   -1.2140 o         1 1ZV     -0.636100
      5 CB          4.1760   -0.0160   -0.4570 c3        1 1ZV     -0.112400
      6 CG          5.4110    0.6870    0.0690 c3        1 1ZV     -0.034100
      7 C1          6.6270    0.2920   -0.6950 ca        1 1ZV     -0.090300
      8 C2          6.7910    0.7080   -2.0220 ca        1 1ZV     -0.126500
      9 C6          7.6240   -0.4810   -0.0900 ca        1 1ZV     -0.126500
     10 C3          7.9340    0.3510   -2.7340 ca        1 1ZV     -0.125000
     11 C5          8.7680   -0.8360   -0.8050 ca        1 1ZV     -0.125000
     12 C4          8.9240   -0.4220   -2.1270 ca        1 1ZV     -0.125000
     13 N1          1.5050   -1.8410    0.4270 n         1 1ZV     -0.459800
     14 CA1         0.6920   -2.8470   -0.2460 c3        1 1ZV      0.033700
     15 C7         -0.8260   -2.6570    0.0110 c         1 1ZV      0.669100
     16 O1         -1.4780   -3.4960    0.6620 o         1 1ZV     -0.628100
     17 CB1         1.1590   -4.2280    0.2670 c3        1 1ZV     -0.086400
     18 CG1         2.0660   -3.9570    1.4600 c3        1 1ZV     -0.091400
     19 CD          2.3190   -2.4410    1.4730 c3        1 1ZV      0.083000
     20 N2         -1.4110   -1.5700   -0.6050 n         1 1ZV     -0.562900
     21 CA2        -2.8010   -1.1980   -0.5260 c3        1 1ZV      0.043700
     22 C8         -3.0420    0.0160    0.3800 c         1 1ZV      0.497100
     23 O2         -2.6210    0.0920    1.5330 o         1 1ZV     -0.489100
     24 CB2        -3.7380   -2.3260   -0.0600 c3        1 1ZV     -0.079400
     25 CG2        -5.1880   -1.9530   -0.2870 c3        1 1ZV     -0.096400
     26 CD1        -6.0660   -3.1130    0.1820 c3        1 1ZV      0.016300
     27 NE         -7.4790   -2.8270    0.0250 nh        1 1ZV     -0.395100
     28 CZ         -8.4710   -3.7010    0.4050 cz        1 1ZV      0.520300
     29 NH1        -8.1600   -4.9260    0.9510 nh        1 1ZV     -0.509200
     30 NH2        -9.7950   -3.3490    0.2340 nh        1 1ZV     -0.509200
     31 C9         -3.8530    1.1980   -0.1940 c3        1 1ZV      0.295300
     32 O3         -4.7210    0.6750   -1.2030 oh        1 1ZV     -0.642800
     33 N3         -3.0440    2.2810   -0.7130 n3        1 1ZV     -0.863200
     34 C11        -2.7250    3.3140    0.2550 c3        1 1ZV      0.169800
     35 C21        -1.6850    4.3060   -0.2620 c3        1 1ZV     -0.089400
     36 C31        -1.4080    5.3670    0.7840 c3        1 1ZV     -0.077400
     37 C41        -0.1750    6.1830    0.4490 c3        1 1ZV     -0.078400
     38 C51         1.0710    5.7240    1.1780 c3        1 1ZV     -0.080400
     39 C61         1.4270    4.2850    0.8710 c3        1 1ZV     -0.078400
     40 C71         2.7720    3.9050    1.4480 c3        1 1ZV     -0.115400
     41 C81         2.9650    2.3880    1.6250 c3        1 1ZV      0.389300
     42 O8          2.3450    1.9460    2.8280 oh        1 1ZV     -0.604800
     43 H           2.5460    2.0950   -0.3770 hn        1 1ZV      0.399800
     44 HA          3.1610   -0.0860    1.4790 h1        1 1ZV      0.088700
     45 HB2         4.3610   -1.1230   -0.4820 hc        1 1ZV      0.061200
     46 HB3         3.9700    0.3130   -1.5100 hc        1 1ZV      0.061200
     47 HG2         5.2750    1.8000   -0.0140 hc        1 1ZV      0.049700
     48 HG3         5.5450    0.4470    1.1580 hc        1 1ZV      0.049700
     49 HC2         6.0120    1.3190   -2.5010 ha        1 1ZV      0.129500
     50 H6          7.5090   -0.8070    0.9540 ha        1 1ZV      0.129500
     51 H3          8.0560    0.6820   -3.7760 ha        1 1ZV      0.135500
     52 H5          9.5480   -1.4420   -0.3220 ha        1 1ZV      0.135500
     53 H4          9.8270   -0.7010   -2.6890 ha        1 1ZV      0.137000
     54 HA1         0.8490   -2.7740   -1.3640 h1        1 1ZV      0.083700
     55 HB21        0.2880   -4.8650    0.5590 hc        1 1ZV      0.072700
     56 HB31        1.7170   -4.7520   -0.5480 hc        1 1ZV      0.072700
     57 HG21        1.5730   -4.2720    2.4120 hc        1 1ZV      0.061700
     58 HG31        3.0300   -4.5130    1.3690 hc        1 1ZV      0.061700
     59 HD2         3.4100   -2.2310    1.2950 h1        1 1ZV      0.055700
     60 HD3         2.0270   -1.9940    2.4630 h1        1 1ZV      0.055700
     61 H1         -0.8090   -0.8900   -1.0230 hn        1 1ZV      0.350500
     62 HA2        -3.1100   -0.8950   -1.5770 h1        1 1ZV      0.079700
     63 HB22       -3.4940   -3.2650   -0.6240 hc        1 1ZV      0.081700
     64 HB32       -3.5520   -2.5310    1.0290 hc        1 1ZV      0.081700
     65 HG22       -5.4340   -1.0160    0.2830 hc        1 1ZV      0.072700
     66 HG32       -5.3620   -1.7330   -1.3730 hc        1 1ZV      0.072700
     67 HD21       -5.8090   -4.0350   -0.4170 h1        1 1ZV      0.069700
     68 HD31       -5.8480   -3.3170    1.2720 h1        1 1ZV      0.069700
     69 HE         -7.7260   -1.9400   -0.3660 hn        1 1ZV      0.326700
     70 HH11       -7.2120   -5.1960    1.0890 hn        1 1ZV      0.326450
     71 HH12       -8.8770   -5.5580    1.2280 hn        1 1ZV      0.326450
     72 HH21      -10.0420   -2.4710   -0.1600 hn        1 1ZV      0.326450
     73 HH22      -10.5260   -3.9690    0.4970 hn        1 1ZV      0.326450
     74 H11        -4.5200    1.5890    0.6370 h2        1 1ZV      0.075700
     75 HO         -4.8170    1.3330   -1.9060 ho        1 1ZV      0.436000
     76 HN         -2.2300    1.9480   -1.1910 hn        1 1ZV      0.383800
     77 H111       -3.6800    3.8680    0.4840 h1        1 1ZV      0.043200
     78 H12        -2.3500    2.8670    1.2230 h1        1 1ZV      0.043200
     79 H21        -0.7360    3.7620   -0.5140 hc        1 1ZV      0.053700
     80 H22        -2.0500    4.7930   -1.2030 hc        1 1ZV      0.053700
     81 H31        -2.2990    6.0470    0.8550 hc        1 1ZV      0.043700
     82 H32        -1.2840    4.8870    1.7920 hc        1 1ZV      0.043700
     83 H41         0.0100    6.1560   -0.6580 hc        1 1ZV      0.045700
     84 H42        -0.3630    7.2560    0.7240 hc        1 1ZV      0.045700
     85 H51         1.9260    6.3890    0.8850 hc        1 1ZV      0.045200
     86 H52         0.9230    5.8420    2.2850 hc        1 1ZV      0.045200
     87 H61         0.6320    3.6110    1.2910 hc        1 1ZV      0.043200
     88 H62         1.4370    4.1350   -0.2410 hc        1 1ZV      0.043200
     89 H71         3.5900    4.2990    0.7910 hc        1 1ZV      0.061200
     90 H72         2.8980    4.3660    2.4640 hc        1 1ZV      0.061200
     91 H81         4.0660    2.1880    1.8350 h2        1 1ZV      0.059700
     92 HO8         1.3930    2.0920    2.7580 ho        1 1ZV      0.410000
@<TRIPOS>BOND
     1    1    2 1   
     2    1   41 1   
     3    1   43 1   
     4    2    3 1   
     5    2    5 1   
     6    2   44 1   
     7    3    4 2   
     8    3   13 1   
     9    5    6 1   
    10    5   45 1   
    11    5   46 1   
    12    6    7 1   
    13    6   47 1   
    14    6   48 1   
    15    7    8 ar  
    16    7    9 ar  
    17    8   10 ar  
    18    8   49 1   
    19    9   11 ar  
    20    9   50 1   
    21   10   12 ar  
    22   10   51 1   
    23   11   12 ar  
    24   11   52 1   
    25   12   53 1   
    26   13   14 1   
    27   13   19 1   
    28   14   15 1   
    29   14   17 1   
    30   14   54 1   
    31   15   16 2   
    32   15   20 1   
    33   17   18 1   
    34   17   55 1   
    35   17   56 1   
    36   18   19 1   
    37   18   57 1   
    38   18   58 1   
    39   19   59 1   
    40   19   60 1   
    41   20   21 1   
    42   20   61 1   
    43   21   22 1   
    44   21   24 1   
    45   21   62 1   
    46   22   23 2   
    47   22   31 1   
    48   24   25 1   
    49   24   63 1   
    50   24   64 1   
    51   25   26 1   
    52   25   65 1   
    53   25   66 1   
    54   26   27 1   
    55   26   67 1   
    56   26   68 1   
    57   27   28 2   
    58   27   69 1   
    59   28   29 1   
    60   28   30 1   
    61   29   70 1   
    62   29   71 1   
    63   30   72 1   
    64   30   73 1   
    65   31   32 1   
    66   31   33 1   
    67   31   74 1   
    68   32   75 1   
    69   33   34 1   
    70   33   76 1   
    71   34   35 1   
    72   34   77 1   
    73   34   78 1   
    74   35   36 1   
    75   35   79 1   
    76   35   80 1   
    77   36   37 1   
    78   36   81 1   
    79   36   82 1   
    80   37   38 1   
    81   37   83 1   
    82   37   84 1   
    83   38   39 1   
    84   38   85 1   
    85   38   86 1   
    86   39   40 1   
    87   39   87 1   
    88   39   88 1   
    89   40   41 1   
    90   40   89 1   
    91   40   90 1   
    92   41   42 1   
    93   41   91 1   
    94   42   92 1   
@<TRIPOS>SUBSTRUCTURE
     1 1ZV         1 TEMP              0 ****  ****    0 ROOT
