@<TRIPOS>MOLECULE
1ZW
   21    21     1     0     0
SMALL
bcc


@<TRIPOS>ATOM
      1 CAK         0.2080    0.0270   -0.0570 c         1 1ZW      0.040200
      2 SAC         1.7000   -0.0110   -0.0950 s         1 1ZW      0.136600
      3 NAJ        -0.6730    0.0320    1.1380 ny        1 1ZW     -0.625800
      4 CAI         0.0350   -0.0070    2.4630 c3        1 1ZW      0.160100
      5 CAM        -0.9500    0.0040    3.5820 ca        1 1ZW     -0.176300
      6 CAG        -1.4230   -1.2040    4.1070 ca        1 1ZW     -0.104000
      7 CAE        -2.3100   -1.1990    5.1810 ca        1 1ZW     -0.086000
      8 CAL        -2.7290    0.0210    5.7330 ca        1 1ZW      0.054000
      9 CAD        -3.6360    0.0300    6.8280 cg        1 1ZW      0.192800
     10 NAB        -4.3780    0.0380    7.7230 n1        1 1ZW     -0.279800
     11 CAF        -2.2510    1.2320    5.2100 ca        1 1ZW     -0.086000
     12 CAH        -1.3640    1.2210    4.1360 ca        1 1ZW     -0.104000
     13 H1         -0.4810    0.0580   -0.9390 hx        1 1ZW      0.096200
     14 H3          0.6690   -0.9400    2.4940 hx        1 1ZW      0.114700
     15 H4          0.7180    0.8900    2.5210 hx        1 1ZW      0.114700
     16 H5         -1.0830   -2.1660    3.6910 ha        1 1ZW      0.146000
     17 H6         -2.6780   -2.1500    5.6000 ha        1 1ZW      0.174000
     18 H7         -2.5720    2.1910    5.6520 ha        1 1ZW      0.174000
     19 H8         -0.9770    2.1740    3.7430 ha        1 1ZW      0.146000
     20 H2         -1.2620    0.8760    1.1110 hn        1 1ZW      0.456800
     21 HAJ2       -1.3060   -0.7790    1.0860 hn        1 1ZW      0.456800
@<TRIPOS>BOND
     1    1    2 2   
     2    1    3 1   
     3    1   13 1   
     4    3    4 1   
     5    3   20 1   
     6    3   21 1   
     7    4    5 1   
     8    4   14 1   
     9    4   15 1   
    10    5    6 ar  
    11    5   12 ar  
    12    6    7 ar  
    13    6   16 1   
    14    7    8 ar  
    15    7   17 1   
    16    8    9 1   
    17    8   11 ar  
    18    9   10 3   
    19   11   12 ar  
    20   11   18 1   
    21   12   19 1   
@<TRIPOS>SUBSTRUCTURE
     1 1ZW         1 TEMP              0 ****  ****    0 ROOT
