@<TRIPOS>MOLECULE
1ZW
   21    21     1     0     0
SMALL
bcc


@<TRIPOS>ATOM
      1 CAK         0.2160    0.0440   -0.0540 c         1 1ZW      0.040200
      2 SAC         1.7080   -0.0090   -0.0890 s         1 1ZW      0.136600
      3 NAJ        -0.6680    0.0480    1.1400 n4        1 1ZW     -0.625800
      4 CAI         0.0370   -0.0100    2.4660 c3        1 1ZW      0.160100
      5 CAM        -0.9500   -0.0010    3.5830 ca        1 1ZW     -0.176300
      6 CAG        -1.4390   -1.2090    4.0920 ca        1 1ZW     -0.104000
      7 CAE        -2.3290   -1.2060    5.1640 ca        1 1ZW     -0.086000
      8 CAL        -2.7340    0.0130    5.7300 ca        1 1ZW      0.054000
      9 CAD        -3.6430    0.0190    6.8230 cg        1 1ZW      0.192800
     10 NAB        -4.3870    0.0250    7.7170 n1        1 1ZW     -0.279800
     11 CAF        -2.2400    1.2240    5.2230 ca        1 1ZW     -0.086000
     12 CAH        -1.3510    1.2140    4.1510 ca        1 1ZW     -0.104000
     13 H1         -0.4720    0.0910   -0.9360 hx        1 1ZW      0.096200
     14 H3          0.6620   -0.9490    2.4890 hx        1 1ZW      0.114700
     15 H4          0.7280    0.8800    2.5330 hx        1 1ZW      0.114700
     16 H5         -1.1100   -2.1700    3.6650 ha        1 1ZW      0.146000
     17 H6         -2.7090   -2.1580    5.5710 ha        1 1ZW      0.174000
     18 H7         -2.5510    2.1800    5.6760 ha        1 1ZW      0.174000
     19 H8         -0.9520    2.1680    3.7690 ha        1 1ZW      0.146000
     20 H2         -1.2490    0.8980    1.1190 hn        1 1ZW      0.456800
     21 HAJ2       -1.3090   -0.7560    1.0790 hn        1 1ZW      0.456800
@<TRIPOS>BOND
     1    1    2 2   
     2    1    3 1   
     3    1   13 1   
     4    3    4 1   
     5    3   20 1   
     6    3   21 1   
     7    4    5 1   
     8    4   14 1   
     9    4   15 1   
    10    5    6 ar  
    11    5   12 ar  
    12    6    7 ar  
    13    6   16 1   
    14    7    8 ar  
    15    7   17 1   
    16    8    9 1   
    17    8   11 ar  
    18    9   10 3   
    19   11   12 ar  
    20   11   18 1   
    21   12   19 1   
@<TRIPOS>SUBSTRUCTURE
     1 1ZW         1 TEMP              0 ****  ****    0 ROOT
