@<TRIPOS>MOLECULE
1ZW
   21    22     1     0     0
SMALL
bcc


@<TRIPOS>ATOM
      1 CAK        -0.7410    0.1060    0.5910 c         1 1ZW      0.055200
      2 SAC        -0.9670    1.4440   -0.0310 s         1 1ZW      0.137600
      3 NAJ        -1.3080   -0.3240    1.9020 n4        1 1ZW     -0.588800
      4 CAI        -0.2640   -0.7040    2.8670 cx        1 1ZW      0.002500
      5 CAM         0.1040    0.2090    4.0290 cx        1 1ZW     -0.045500
      6 CAG        -0.6380   -1.0950    4.2920 cx        1 1ZW     -0.056500
      7 CAE        -2.0290   -1.0010    4.7350 c2        1 1ZW     -0.133200
      8 CAL        -2.6490    0.2010    4.8560 ce        1 1ZW      0.049300
      9 CAD        -4.0020    0.2940    5.2830 cg        1 1ZW      0.148500
     10 NAB        -5.1090    0.3760    5.6320 n1        1 1ZW     -0.269800
     11 CAF        -1.9370    1.4470    4.6160 ce        1 1ZW     -0.112000
     12 CAH        -0.6390    1.4510    4.2500 c2        1 1ZW     -0.167200
     13 H1         -0.1460   -0.7530    0.1990 hx        1 1ZW      0.101200
     14 H3          1.1870    0.2790    4.2700 hc        1 1ZW      0.138700
     15 H4          0.5530   -1.2760    2.3690 hx        1 1ZW      0.150700
     16 H5         -0.0870   -1.9600    4.7200 hc        1 1ZW      0.140700
     17 H6         -2.5280   -1.9440    5.0190 ha        1 1ZW      0.180000
     18 H7         -2.4840    2.3870    4.8090 ha        1 1ZW      0.180000
     19 H8         -0.0690    2.3920    4.1620 ha        1 1ZW      0.174000
     20 H2         -1.9170   -1.1430    1.7560 hn        1 1ZW      0.457300
     21 HAJ2       -1.8820    0.4390    2.3070 hn        1 1ZW      0.457300
@<TRIPOS>BOND
     1    1    2 2   
     2    1    3 1   
     3    1   13 1   
     4    3    4 1   
     5    3   20 1   
     6    3   21 1   
     7    4    5 1   
     8    4    6 1   
     9    4   15 1   
    10    5    6 1   
    11    5   12 1   
    12    5   14 1   
    13    6    7 1   
    14    6   16 1   
    15    7    8 2   
    16    7   17 1   
    17    8    9 1   
    18    8   11 1   
    19    9   10 3   
    20   11   12 2   
    21   11   18 1   
    22   12   19 1   
@<TRIPOS>SUBSTRUCTURE
     1 1ZW         1 TEMP              0 ****  ****    0 ROOT
