@<TRIPOS>MOLECULE
1ZX
   63    57     1     0     0
SMALL
bcc


@<TRIPOS>ATOM
      1 N          -1.5960    0.3780   -4.2050 n3        1 1ZX     -0.334000
      2 CA         -1.2270    1.6630   -3.7620 c3        1 1ZX     -0.038000
      3 C          -0.7300    1.5820   -2.3110 c2        1 1ZX      0.310000
      4 O           0.4620    1.6460   -2.0720 o         1 1ZX     -0.409000
      5 CB         -0.1180    2.2070   -4.6490 c3        1 1ZX     -0.151000
      6 CG         -0.7320    3.1240   -5.7440 c2        1 1ZX     -0.092000
      7 CD1        -0.3010    4.4420   -5.8700 c1        1 1ZX     -0.122000
      8 CD2        -1.6840    2.6170   -6.6240 c1        1 1ZX     -0.140000
      9 CE1        -0.8230    5.2530   -6.8770 c1        1 1ZX     -0.121000
     10 CE2        -2.2060    3.4290   -7.6320 c1        1 1ZX     -0.124000
     11 CZ         -1.7750    4.7450   -7.7570 c1        1 1ZX     -0.122000
     12 N1         -1.6930    1.5070   -1.2120 n         1 1ZX     -0.306000
     13 CA1        -1.3630    1.4990    0.3400 c3        1 1ZX      0.012000
     14 C1         -0.7170    0.1730    0.7210 c2        1 1ZX      0.302000
     15 O1         -0.5780   -0.6950   -0.1140 o         1 1ZX     -0.372000
     16 CB1        -2.5700    1.6970    0.8720 c3        1 1ZX     -0.166000
     17 CG1        -3.6360    1.1230   -0.1650 c3        1 1ZX     -0.174000
     18 CD         -3.2130    1.4210   -1.3330 c3        1 1ZX     -0.023000
     19 N2         -0.1870   -0.0210    2.0740 n         1 1ZX     -0.382000
     20 CA2         0.2390   -1.3260    2.4970 c3        1 1ZX     -0.022000
     21 C2         -0.8230   -1.9460    3.3400 c2        1 1ZX      0.236000
     22 O2         -1.3960   -1.2780    4.1850 o         1 1ZX     -0.350000
     23 CB2         1.5350   -1.2030    3.3130 c3        1 1ZX     -0.164000
     24 CG2         1.9060   -2.5820    3.9040 c3        1 1ZX     -0.161000
     25 CD3         3.2940   -2.5000    4.5750 c3        1 1ZX     -0.058000
     26 NE          3.4720   -3.6300    5.4520 n3        1 1ZX     -0.306000
     27 CZ1         4.7900   -4.1170    5.7470 c2        1 1ZX      0.388000
     28 NH1         5.3030   -5.2530    5.0510 n3        1 1ZX     -0.377000
     29 NH2         5.5260   -3.5160    6.6610 n2        1 1ZX     -0.359000
     30 C3         -1.2770   -3.3660    3.0630 c3        1 1ZX     -0.274000
     31 H          -2.5100    0.3030   -4.1990 hn        1 1ZX      0.156500
     32 H2         -1.2820    0.2450   -5.0620 hn        1 1ZX      0.156500
     33 HA         -1.9990    2.2560   -3.8080 h1        1 1ZX      0.123000
     34 HB2         0.5110    2.7250   -4.1050 hc        1 1ZX      0.108500
     35 HB3         0.3550    1.4620   -5.0760 hc        1 1ZX      0.108500
     36 HD1         0.3660    4.7990   -5.2530 DU        1 1ZX      0.163200
     37 HD2        -1.9860    1.6920   -6.5360 DU        1 1ZX      0.163200
     38 HE1        -0.5200    6.1770   -6.9650 DU        1 1ZX      0.163200
     39 HE2        -2.8730    3.0730   -8.2480 DU        1 1ZX      0.163200
     40 HZ         -2.1420    5.3160   -8.4660 ha        1 1ZX      0.140000
     41 HA1        -0.7080    2.1400    0.6800 h1        1 1ZX      0.125000
     42 HB21       -2.6430    1.2160    1.7290 hc        1 1ZX      0.116000
     43 HB31       -2.7200    2.6530    1.0120 hc        1 1ZX      0.116000
     44 HG2        -4.5130    1.5390   -0.0100 hc        1 1ZX      0.102000
     45 HG3        -3.7050    0.1530   -0.0720 hc        1 1ZX      0.102000
     46 HD21       -3.5810    2.2890   -1.6180 h1        1 1ZX      0.102500
     47 HD3        -3.4640    0.7170   -1.9760 h1        1 1ZX      0.102500
     48 H1         -0.2020    0.6720    2.6740 hn        1 1ZX      0.265000
     49 HA2         0.4000   -1.8840    1.7140 h1        1 1ZX      0.144000
     50 HB22        2.2590   -0.8920    2.7310 hc        1 1ZX      0.106000
     51 HB32        1.4020   -0.5590    4.0420 hc        1 1ZX      0.106000
     52 HG21        1.2400   -2.8410    4.5680 hc        1 1ZX      0.100000
     53 HG31        1.9280   -3.2490    3.1880 hc        1 1ZX      0.100000
     54 HD22        3.9910   -2.5090    3.8860 h1        1 1ZX      0.126000
     55 HD31        3.3580   -1.6720    5.0920 h1        1 1ZX      0.126000
     56 HE          2.7540   -3.9810    5.8860 hn        1 1ZX      0.269000
     57 HH11        6.2060   -5.3170    4.8790 hn        1 1ZX      0.274000
     58 HH12        4.7550   -5.9690    4.8820 hn        1 1ZX      0.274000
     59 HH21        5.1960   -2.7850    7.1100 DU        1 1ZX      0.163200
     60 HH22        6.3670   -3.8280    6.8480 hn        1 1ZX      0.273000
     61 H11        -2.0750   -3.3500    2.4930 hc        1 1ZX      0.120667
     62 H21        -0.5590   -3.8560    2.6070 hc        1 1ZX      0.120667
     63 H38        -1.4890   -3.8110    3.9080 hc        1 1ZX      0.120667
@<TRIPOS>BOND
     1    1    2 1   
     2    1   31 1   
     3    1   32 1   
     4    2    3 1   
     5    2    5 1   
     6    2   33 1   
     7    3    4 1   
     8    3   12 1   
     9    5    6 1   
    10    5   34 1   
    11    5   35 1   
    12    6    7 1   
    13    6    8 1   
    14    8   10 1   
    15    9   11 1   
    16   11   40 1   
    17   12   13 1   
    18   12   18 1   
    19   13   14 1   
    20   13   16 1   
    21   13   41 1   
    22   14   15 1   
    23   14   19 1   
    24   16   17 1   
    25   16   42 1   
    26   16   43 1   
    27   17   18 1   
    28   17   44 1   
    29   17   45 1   
    30   18   46 1   
    31   18   47 1   
    32   19   20 1   
    33   19   48 1   
    34   20   21 1   
    35   20   23 1   
    36   20   49 1   
    37   21   22 1   
    38   21   30 1   
    39   23   24 1   
    40   23   50 1   
    41   23   51 1   
    42   24   25 1   
    43   24   52 1   
    44   24   53 1   
    45   25   26 1   
    46   25   54 1   
    47   25   55 1   
    48   26   27 1   
    49   26   56 1   
    50   27   28 1   
    51   27   29 1   
    52   28   57 1   
    53   28   58 1   
    54   29   60 1   
    55   30   61 1   
    56   30   62 1   
    57   30   63 1   
@<TRIPOS>SUBSTRUCTURE
     1 1ZX         1 TEMP              0 ****  ****    0 ROOT
