@<TRIPOS>MOLECULE
1ZX
   63    64     1     0     0
SMALL
bcc


@<TRIPOS>ATOM
      1 N           1.6630   -2.3800   -0.8610 n3        1 1ZX     -0.912800
      2 CA          2.1930   -1.2570   -0.1110 c3        1 1ZX      0.111500
      3 C           1.0340   -0.4080    0.4500 c         1 1ZX      0.689100
      4 O          -0.0230   -0.9470    0.8620 o         1 1ZX     -0.683100
      5 CB          3.1020   -1.6160    1.0820 c3        1 1ZX     -0.069100
      6 CG          4.2760   -2.4120    0.6390 ca        1 1ZX     -0.107300
      7 CD1         5.4740   -1.7740    0.2950 ca        1 1ZX     -0.129000
      8 CD2         4.1990   -3.8080    0.5750 ca        1 1ZX     -0.129000
      9 CE1         6.5770   -2.5230   -0.1110 ca        1 1ZX     -0.120000
     10 CE2         5.3030   -4.5550    0.1690 ca        1 1ZX     -0.120000
     11 CZ          6.4930   -3.9140   -0.1750 ca        1 1ZX     -0.115000
     12 N1          1.1790    0.9550    0.5400 n         1 1ZX     -0.448800
     13 CA1         0.1020    1.8140    1.0060 c3        1 1ZX      0.040700
     14 C1         -1.2240    1.6170    0.2380 c         1 1ZX      0.649100
     15 O1         -1.3030    0.9520   -0.8180 o         1 1ZX     -0.650100
     16 CB1         0.5840    3.2740    0.8540 c3        1 1ZX     -0.086400
     17 CG1         1.9870    3.2080    0.2600 c3        1 1ZX     -0.089400
     18 CD          2.2860    1.7230   -0.0020 c3        1 1ZX      0.089000
     19 N2         -2.3540    2.1470    0.8290 n         1 1ZX     -0.546900
     20 CA2        -3.6050    2.2800    0.1120 c3        1 1ZX     -0.014300
     21 C2         -4.0020    3.7570   -0.0780 c         1 1ZX      0.547100
     22 O2         -3.6330    4.6290    0.7110 o         1 1ZX     -0.511100
     23 CB2        -4.7790    1.5720    0.8180 c3        1 1ZX     -0.086400
     24 CG2        -5.0680    0.1850    0.2860 c3        1 1ZX     -0.111400
     25 CD3        -4.2150   -0.9210    0.9110 c3        1 1ZX      0.019300
     26 NE         -2.9440   -1.1900    0.2870 nh        1 1ZX     -0.381100
     27 CZ1        -2.8030   -1.7750   -0.9580 cz        1 1ZX      0.513300
     28 NH1        -3.8970   -2.2940   -1.6300 nh        1 1ZX     -0.497700
     29 NH2        -1.5520   -1.8910   -1.5090 nh        1 1ZX     -0.497700
     30 C3         -4.8400    4.0330   -1.2780 c3        1 1ZX     -0.201100
     31 H           2.4250   -2.9120   -1.2410 hn        1 1ZX      0.368300
     32 H2          1.1190   -2.9720   -0.2610 hn        1 1ZX      0.368300
     33 HA          2.7980   -0.6410   -0.8430 h1        1 1ZX      0.085700
     34 HB2         3.4440   -0.6650    1.5700 hc        1 1ZX      0.066200
     35 HB3         2.5090   -2.1910    1.8430 hc        1 1ZX      0.066200
     36 HD1         5.5480   -0.6780    0.3540 ha        1 1ZX      0.128500
     37 HD2         3.2670   -4.3190    0.8610 ha        1 1ZX      0.128500
     38 HE1         7.5170   -2.0150   -0.3750 ha        1 1ZX      0.142000
     39 HE2         5.2370   -5.6530    0.1270 ha        1 1ZX      0.142000
     40 HZ          7.3660   -4.5050   -0.4930 ha        1 1ZX      0.145000
     41 HA1        -0.0910    1.5630    2.0920 h1        1 1ZX      0.091700
     42 HB21       -0.1010    3.8560    0.1900 hc        1 1ZX      0.071700
     43 HB31        0.5960    3.7710    1.8560 hc        1 1ZX      0.071700
     44 HG2         2.0470    3.7870   -0.6940 hc        1 1ZX      0.071700
     45 HG3         2.7390    3.6350    0.9690 hc        1 1ZX      0.071700
     46 HD21        3.2390    1.4070    0.5060 h1        1 1ZX      0.058700
     47 HD3         2.3920    1.5320   -1.1060 h1        1 1ZX      0.058700
     48 H1         -2.2340    2.7820    1.5900 hn        1 1ZX      0.330500
     49 HA2        -3.4710    1.8330   -0.9200 h1        1 1ZX      0.095700
     50 HB22       -4.6080    1.5330    1.9270 hc        1 1ZX      0.069700
     51 HB32       -5.7020    2.1960    0.6590 hc        1 1ZX      0.069700
     52 HG21       -6.1380   -0.0600    0.5350 hc        1 1ZX      0.062700
     53 HG31       -4.9810    0.1790   -0.8320 hc        1 1ZX      0.062700
     54 HD22       -3.9810   -0.6490    1.9830 h1        1 1ZX      0.077200
     55 HD31       -4.8180   -1.8750    0.9380 h1        1 1ZX      0.077200
     56 HE         -2.1380   -0.7160    0.6640 hn        1 1ZX      0.348700
     57 HH11       -4.7900   -2.3050   -1.1950 hn        1 1ZX      0.322450
     58 HH12       -3.7680   -2.8480   -2.4440 hn        1 1ZX      0.322450
     59 HH21       -1.4230   -2.3020   -2.4030 hn        1 1ZX      0.322450
     60 HH22       -0.7820   -1.3860   -1.1050 hn        1 1ZX      0.322450
     61 H11        -5.5950    3.2250   -1.4320 hc        1 1ZX      0.076367
     62 H21        -5.3690    5.0130   -1.1700 hc        1 1ZX      0.076367
     63 H38        -4.1810    4.0850   -2.1810 hc        1 1ZX      0.076367
@<TRIPOS>BOND
     1    1    2 1   
     2    1   31 1   
     3    1   32 1   
     4    2    3 1   
     5    2    5 1   
     6    2   33 1   
     7    3    4 2   
     8    3   12 1   
     9    5    6 1   
    10    5   34 1   
    11    5   35 1   
    12    6    7 ar  
    13    6    8 ar  
    14    7    9 ar  
    15    7   36 1   
    16    8   10 ar  
    17    8   37 1   
    18    9   11 ar  
    19    9   38 1   
    20   10   11 ar  
    21   10   39 1   
    22   11   40 1   
    23   12   13 1   
    24   12   18 1   
    25   13   14 1   
    26   13   16 1   
    27   13   41 1   
    28   14   15 2   
    29   14   19 1   
    30   16   17 1   
    31   16   42 1   
    32   16   43 1   
    33   17   18 1   
    34   17   44 1   
    35   17   45 1   
    36   18   46 1   
    37   18   47 1   
    38   19   20 1   
    39   19   48 1   
    40   20   21 1   
    41   20   23 1   
    42   20   49 1   
    43   21   22 2   
    44   21   30 1   
    45   23   24 1   
    46   23   50 1   
    47   23   51 1   
    48   24   25 1   
    49   24   52 1   
    50   24   53 1   
    51   25   26 1   
    52   25   54 1   
    53   25   55 1   
    54   26   27 2   
    55   26   56 1   
    56   27   28 1   
    57   27   29 1   
    58   28   57 1   
    59   28   58 1   
    60   29   59 1   
    61   29   60 1   
    62   30   61 1   
    63   30   62 1   
    64   30   63 1   
@<TRIPOS>SUBSTRUCTURE
     1 1ZX         1 TEMP              0 ****  ****    0 ROOT
