@<TRIPOS>MOLECULE
1ZZ
   71    73     1     0     0
SMALL
bcc


@<TRIPOS>ATOM
      1 P          -1.1680    0.0800   -0.9570 p5        1 1ZZ      1.456800
      2 C1         12.7630    5.5460    5.4850 c3        1 1ZZ     -0.092100
      3 N1         -1.3060   -5.0110   -0.1780 na        1 1ZZ     -0.280000
      4 O1          0.2960    1.1590    0.8690 o         1 1ZZ     -0.588000
      5 C2         11.2580    5.5720    5.4120 c3        1 1ZZ     -0.080400
      6 N2          0.1030   -4.3960    1.5450 nc        1 1ZZ     -0.573100
      7 O2          0.5220    0.1040   -1.0080 os        1 1ZZ     -0.545500
      8 C3         10.7330    4.5790    4.3970 c3        1 1ZZ     -0.079400
      9 N3         -0.5930   -7.4280   -0.3570 nb        1 1ZZ     -0.722000
     10 O3         -1.5460   -0.9420    0.0420 o         1 1ZZ     -0.810500
     11 C4          9.2210    4.6080    4.3280 c3        1 1ZZ     -0.079400
     12 N4          1.1540   -8.0160    1.2760 nb        1 1ZZ     -0.798000
     13 O4         -1.7110    1.4160   -1.2060 o         1 1ZZ     -0.810500
     14 C5          8.6970    3.6160    3.3120 c3        1 1ZZ     -0.078400
     15 N5          1.9440   -6.4510    2.9170 nh        1 1ZZ     -0.940500
     16 O5         -1.2900   -0.7440   -2.3880 os        1 1ZZ     -0.571200
     17 C6          7.1850    3.6450    3.2440 c3        1 1ZZ     -0.079400
     18 O6         -1.6110   -4.3680   -2.4500 os        1 1ZZ     -0.419600
     19 C7          6.6610    2.6550    2.2270 c3        1 1ZZ     -0.078400
     20 O7         -4.6540   -4.7350   -1.3060 oh        1 1ZZ     -0.586800
     21 C8          5.1490    2.6840    2.1600 c3        1 1ZZ     -0.079400
     22 O8         -4.4100   -2.5000   -2.5720 oh        1 1ZZ     -0.616800
     23 C9          4.6230    1.6960    1.1400 c3        1 1ZZ     -0.078400
     24 C10         3.1120    1.7270    1.0780 c3        1 1ZZ     -0.079400
     25 C11         2.5900    0.7500    0.0480 c3        1 1ZZ     -0.128400
     26 C12         1.0970    0.7110    0.0330 c         1 1ZZ      0.675100
     27 C13        -0.8540   -2.0660   -2.3930 c3        1 1ZZ      0.185400
     28 C14        -2.0310   -3.0130   -2.6750 c3        1 1ZZ      0.076100
     29 C15        -3.2570   -2.7400   -1.7830 c3        1 1ZZ      0.069100
     30 C16        -3.4870   -4.0240   -0.9660 c3        1 1ZZ      0.127100
     31 C17        -2.2350   -4.9120   -1.2800 c3        1 1ZZ      0.214800
     32 C18        -0.8360   -3.9800    0.6820 cd        1 1ZZ      0.438700
     33 C19         0.3020   -5.7550    1.2530 ca        1 1ZZ     -0.212200
     34 C20        -0.5700   -6.1600    0.1530 ca        1 1ZZ      0.449800
     35 C21         0.2840   -8.2540    0.2560 ca        1 1ZZ      0.658900
     36 C22         1.1620   -6.7520    1.8120 ca        1 1ZZ      0.719200
     37 H1         13.1290    6.2850    6.2380 hc        1 1ZZ      0.030700
     38 H1A        13.2100    5.8010    4.4940 hc        1 1ZZ      0.030700
     39 H1B        13.1260    4.5320    5.7810 hc        1 1ZZ      0.030700
     40 H2         10.9120    6.6040    5.1380 hc        1 1ZZ      0.038200
     41 H2A        10.8280    5.3370    6.4210 hc        1 1ZZ      0.038200
     42 H3         11.0770    3.5470    4.6690 hc        1 1ZZ      0.038700
     43 H3A        11.1600    4.8140    3.3870 hc        1 1ZZ      0.038700
     44 H4          8.8770    5.6410    4.0570 hc        1 1ZZ      0.039200
     45 H4A         8.7940    4.3720    5.3380 hc        1 1ZZ      0.039200
     46 H5          9.0410    2.5830    3.5830 hc        1 1ZZ      0.038200
     47 H5A         9.1230    3.8520    2.3010 hc        1 1ZZ      0.038200
     48 HN5         2.6980   -7.0600    3.1300 hn        1 1ZZ      0.422800
     49 HN5A        2.0860   -5.4840    3.0940 hn        1 1ZZ      0.422800
     50 HO7        -4.8020   -4.6300   -2.2550 ho        1 1ZZ      0.419000
     51 H8          4.8030    3.7180    1.8930 hc        1 1ZZ      0.041700
     52 H8A         4.7220    2.4440    3.1690 hc        1 1ZZ      0.041700
     53 HO8        -4.3190   -1.6000   -2.9080 ho        1 1ZZ      0.425000
     54 H9          4.9690    0.6620    1.4060 hc        1 1ZZ      0.035700
     55 H9A         5.0480    1.9370    0.1300 hc        1 1ZZ      0.035700
     56 H10         2.7600    2.7620    0.8230 hc        1 1ZZ      0.057200
     57 H10A        2.6780    1.4760    2.0820 hc        1 1ZZ      0.057200
     58 H11         2.9560   -0.2880    0.2700 hc        1 1ZZ      0.069200
     59 H11A        2.9520    1.0240   -0.9780 hc        1 1ZZ      0.069200
     60 H13        -0.3790   -2.3350   -1.4090 h1        1 1ZZ      0.037700
     61 H13A       -0.0980   -2.1920   -3.2170 h1        1 1ZZ      0.037700
     62 H14        -2.3120   -2.9660   -3.7620 h1        1 1ZZ      0.069700
     63 H15        -3.0480   -1.8680   -1.0930 h1        1 1ZZ      0.128700
     64 H16        -3.5900   -3.7960    0.1290 h1        1 1ZZ      0.106700
     65 H17        -2.5460   -5.9600   -1.5710 h2        1 1ZZ      0.112700
     66 H18        -1.2320   -2.9390    0.6210 h5        1 1ZZ      0.156800
     67 H21         0.3070   -9.2930   -0.1350 h5        1 1ZZ      0.037100
     68 H6          6.8400    4.6790    2.9750 hc        1 1ZZ      0.039700
     69 H34         6.7580    3.4080    4.2540 hc        1 1ZZ      0.039700
     70 H7          7.0870    2.8920    1.2160 hc        1 1ZZ      0.037200
     71 H36         7.0050    1.6220    2.4960 hc        1 1ZZ      0.037200
@<TRIPOS>BOND
     1    1    7 1   
     2    1   10 1   
     3    1   13 1   
     4    1   16 1   
     5    2    5 1   
     6    2   37 1   
     7    2   38 1   
     8    2   39 1   
     9    3   31 1   
    10    3   32 1   
    11    3   34 1   
    12    4   26 2   
    13    5    8 1   
    14    5   40 1   
    15    5   41 1   
    16    6   32 2   
    17    6   33 1   
    18    7   26 1   
    19    8   11 1   
    20    8   42 1   
    21    8   43 1   
    22    9   34 ar  
    23    9   35 ar  
    24   11   14 1   
    25   11   44 1   
    26   11   45 1   
    27   12   35 ar  
    28   12   36 ar  
    29   14   17 1   
    30   14   46 1   
    31   14   47 1   
    32   15   36 1   
    33   15   48 1   
    34   15   49 1   
    35   16   27 1   
    36   17   19 1   
    37   17   68 1   
    38   17   69 1   
    39   18   28 1   
    40   18   31 1   
    41   19   21 1   
    42   19   70 1   
    43   19   71 1   
    44   20   30 1   
    45   20   50 1   
    46   21   23 1   
    47   21   51 1   
    48   21   52 1   
    49   22   29 1   
    50   22   53 1   
    51   23   24 1   
    52   23   54 1   
    53   23   55 1   
    54   24   25 1   
    55   24   56 1   
    56   24   57 1   
    57   25   26 1   
    58   25   58 1   
    59   25   59 1   
    60   27   28 1   
    61   27   60 1   
    62   27   61 1   
    63   28   29 1   
    64   28   62 1   
    65   29   30 1   
    66   29   63 1   
    67   30   31 1   
    68   30   64 1   
    69   31   65 1   
    70   32   66 1   
    71   33   34 ar  
    72   33   36 ar  
    73   35   67 1   
@<TRIPOS>SUBSTRUCTURE
     1 1ZZ         1 TEMP              0 ****  ****    0 ROOT
