@<TRIPOS>MOLECULE
1ZZ
   71    73     1     0     0
SMALL
bcc


@<TRIPOS>ATOM
      1 P          -0.7240   -0.3370    0.8600 p5        1 1ZZ      1.439800
      2 C1         13.2680    7.1820    4.5370 c3        1 1ZZ     -0.092100
      3 N1         -1.4490   -6.0010   -0.8120 na        1 1ZZ     -0.281000
      4 O1          0.9170    0.9950    2.3470 o         1 1ZZ     -0.593000
      5 C2         11.8470    6.8250    4.8860 c3        1 1ZZ     -0.080400
      6 N2         -0.9280   -6.8150    1.2830 nc        1 1ZZ     -0.561100
      7 O2          0.8760    0.0250    0.4070 os        1 1ZZ     -0.539500
      8 C3         11.2110    5.9620    3.8170 c3        1 1ZZ     -0.079400
      9 N3         -3.0450   -7.8240   -1.5110 nb        1 1ZZ     -0.744000
     10 O3         -0.6430   -1.4230    1.8500 o         1 1ZZ     -0.800500
     11 C4          9.7830    5.6060    4.1730 c3        1 1ZZ     -0.079400
     12 N4         -3.3340   -9.5350    0.2340 nb        1 1ZZ     -0.799000
     13 O4         -1.5290    0.8860    0.8180 o         1 1ZZ     -0.800500
     14 C5          9.1480    4.7440    3.1030 c3        1 1ZZ     -0.078400
     15 N5         -2.1110   -9.4760    2.2960 nv        1 1ZZ     -0.943500
     16 O5         -1.0120   -1.1140   -0.5780 os        1 1ZZ     -0.559200
     17 C6          7.7210    4.3880    3.4590 c3        1 1ZZ     -0.079400
     18 O6         -0.2590   -4.3620   -2.0230 os        1 1ZZ     -0.415600
     19 C7          7.0850    3.5270    2.3890 c3        1 1ZZ     -0.078400
     20 O7         -3.4420   -4.7340   -3.3120 oh        1 1ZZ     -0.599800
     21 C8          5.6570    3.1720    2.7450 c3        1 1ZZ     -0.079400
     22 O8         -2.0360   -2.6560   -3.9400 oh        1 1ZZ     -0.589800
     23 C9          5.0200    2.3120    1.6750 c3        1 1ZZ     -0.078400
     24 C10         3.5930    1.9580    2.0350 c3        1 1ZZ     -0.079400
     25 C11         2.9570    1.1040    0.9620 c3        1 1ZZ     -0.130400
     26 C12         1.5510    0.7330    1.3110 c         1 1ZZ      0.672100
     27 C13        -0.5130   -2.4120   -0.6090 c3        1 1ZZ      0.169400
     28 C14        -0.6420   -2.9680   -2.0280 c3        1 1ZZ      0.127100
     29 C15        -2.0890   -2.8980   -2.5470 c3        1 1ZZ      0.130100
     30 C16        -2.6700   -4.2920   -2.2170 c3        1 1ZZ      0.072100
     31 C17        -1.4110   -5.2020   -2.0210 c3        1 1ZZ      0.225800
     32 C18        -0.7250   -5.8300    0.3930 cd        1 1ZZ      0.453700
     33 C19        -1.8290   -7.6920    0.6610 ca        1 1ZZ     -0.211200
     34 C20        -2.1710   -7.1940   -0.6680 ca        1 1ZZ      0.437800
     35 C21        -3.5550   -8.9570   -0.9780 ca        1 1ZZ      0.670900
     36 C22        -2.4480   -8.9140    1.0800 ca        1 1ZZ      0.735200
     37 H1         13.7180    7.8180    5.3370 hc        1 1ZZ      0.030700
     38 H1A        13.3080    7.7470    3.5740 hc        1 1ZZ      0.030700
     39 H1B        13.8900    6.2610    4.4270 hc        1 1ZZ      0.030700
     40 H2         11.8250    6.2810    5.8670 hc        1 1ZZ      0.037700
     41 H2A        11.2440    7.7630    5.0170 hc        1 1ZZ      0.037700
     42 H3         11.2300    6.5060    2.8360 hc        1 1ZZ      0.038700
     43 H3A        11.8110    5.0240    3.6870 hc        1 1ZZ      0.038700
     44 H4          9.1830    6.5450    4.3040 hc        1 1ZZ      0.038700
     45 H4A         9.7640    5.0630    5.1540 hc        1 1ZZ      0.038700
     46 H5          9.1660    5.2880    2.1220 hc        1 1ZZ      0.037700
     47 H5A         9.7480    3.8050    2.9720 hc        1 1ZZ      0.037700
     48 HN5        -1.6460   -8.8850    2.9440 hn        1 1ZZ      0.431300
     49 HN5A       -2.6870  -10.1950    2.6620 hn        1 1ZZ      0.431300
     50 HO7        -3.7650   -5.6180   -3.0880 ho        1 1ZZ      0.424000
     51 H8          5.6380    2.6260    3.7250 hc        1 1ZZ      0.041700
     52 H8A         5.0570    4.1100    2.8790 hc        1 1ZZ      0.041700
     53 HO8        -2.9320   -2.7800   -4.2780 ho        1 1ZZ      0.412000
     54 H9          5.0370    2.8580    0.6950 hc        1 1ZZ      0.034700
     55 H9A         5.6190    1.3730    1.5400 hc        1 1ZZ      0.034700
     56 H10         2.9880    2.8930    2.1740 hc        1 1ZZ      0.056700
     57 H10A        3.5670    1.4080    3.0120 hc        1 1ZZ      0.056700
     58 H11         3.5400    0.1570    0.8140 hc        1 1ZZ      0.065700
     59 H11A        2.9420    1.6480   -0.0190 hc        1 1ZZ      0.065700
     60 H13        -1.0940   -3.0500    0.1150 h1        1 1ZZ      0.035200
     61 H13A        0.5670   -2.4120   -0.2960 h1        1 1ZZ      0.035200
     62 H14         0.0720   -2.4700   -2.7350 h1        1 1ZZ      0.102700
     63 H15        -2.6600   -2.0800   -2.0310 h1        1 1ZZ      0.102700
     64 H16        -3.3010   -4.2440   -1.2900 h1        1 1ZZ      0.070700
     65 H17        -1.2950   -5.9080   -2.8980 h2        1 1ZZ      0.095700
     66 H18        -0.0820   -4.9470    0.5400 h5        1 1ZZ      0.108800
     67 H21        -4.2740   -9.5040   -1.6240 h5        1 1ZZ      0.041100
     68 H6          7.1200    5.3270    3.5910 hc        1 1ZZ      0.039700
     69 H34         7.7020    3.8440    4.4400 hc        1 1ZZ      0.039700
     70 H7          7.1030    4.0720    1.4080 hc        1 1ZZ      0.036700
     71 H36         7.6840    2.5880    2.2560 hc        1 1ZZ      0.036700
@<TRIPOS>BOND
     1    1    7 1   
     2    1   10 1   
     3    1   13 1   
     4    1   16 1   
     5    2    5 1   
     6    2   37 1   
     7    2   38 1   
     8    2   39 1   
     9    3   31 1   
    10    3   32 1   
    11    3   34 1   
    12    4   26 2   
    13    5    8 1   
    14    5   40 1   
    15    5   41 1   
    16    6   32 2   
    17    6   33 1   
    18    7   26 1   
    19    8   11 1   
    20    8   42 1   
    21    8   43 1   
    22    9   34 ar  
    23    9   35 ar  
    24   11   14 1   
    25   11   44 1   
    26   11   45 1   
    27   12   35 ar  
    28   12   36 ar  
    29   14   17 1   
    30   14   46 1   
    31   14   47 1   
    32   15   36 1   
    33   15   48 1   
    34   15   49 1   
    35   16   27 1   
    36   17   19 1   
    37   17   68 1   
    38   17   69 1   
    39   18   28 1   
    40   18   31 1   
    41   19   21 1   
    42   19   70 1   
    43   19   71 1   
    44   20   30 1   
    45   20   50 1   
    46   21   23 1   
    47   21   51 1   
    48   21   52 1   
    49   22   29 1   
    50   22   53 1   
    51   23   24 1   
    52   23   54 1   
    53   23   55 1   
    54   24   25 1   
    55   24   56 1   
    56   24   57 1   
    57   25   26 1   
    58   25   58 1   
    59   25   59 1   
    60   27   28 1   
    61   27   60 1   
    62   27   61 1   
    63   28   29 1   
    64   28   62 1   
    65   29   30 1   
    66   29   63 1   
    67   30   31 1   
    68   30   64 1   
    69   31   65 1   
    70   32   66 1   
    71   33   34 ar  
    72   33   36 ar  
    73   35   67 1   
@<TRIPOS>SUBSTRUCTURE
     1 1ZZ         1 TEMP              0 ****  ****    0 ROOT
