@<TRIPOS>MOLECULE
1ZZ
   71    67     1     0     0
SMALL
bcc


@<TRIPOS>ATOM
      1 P          -3.4890   -1.4070    1.8580 p3        1 1ZZ      2.570000
      2 C1         10.4020    6.4190    3.0200 c3        1 1ZZ     -0.210000
      3 N1         -5.7530   -3.4090   -4.6480 n2        1 1ZZ     -0.160500
      4 O1         -2.0390    0.2490    3.6940 o         1 1ZZ     -0.402000
      5 C2          8.9810    6.3650    3.5100 c3        1 1ZZ     -0.159000
      6 N2         -7.6670   -2.7900   -5.5240 n2        1 1ZZ     -0.160500
      7 O2         -2.0030   -1.6560    2.3580 os        1 1ZZ     -0.671000
      8 C3          8.3750    4.9620    3.1900 c3        1 1ZZ     -0.158000
      9 N3         -5.4450   -5.4130   -6.1410 n1        1 1ZZ     -0.192000
     10 O3         -4.4480   -1.5380    3.0330 o         1 1ZZ     -1.115000
     11 C4          6.8930    4.9750    3.5000 c3        1 1ZZ     -0.158000
     12 N4         -7.2070   -5.7520   -7.6990 n1        1 1ZZ     -0.274000
     13 O4         -3.5960   -0.0240    1.2730 os        1 1ZZ     -1.166000
     14 C5          6.3130    3.5110    3.3990 c3        1 1ZZ     -0.157000
     15 N5         -8.9320   -4.2550   -8.0610 n3        1 1ZZ     -0.343000
     16 O5         -3.8650   -2.4890    0.7430 os        1 1ZZ     -0.724000
     17 C6          4.8410    3.5360    3.6860 c3        1 1ZZ     -0.158000
     18 O6         -5.1550   -3.3500   -2.2670 os        1 1ZZ     -0.275000
     19 C7          4.2690    2.0750    3.6030 c3        1 1ZZ     -0.157000
     20 O7         -2.7150   -3.2250   -4.9170 oh        1 1ZZ     -0.316000
     21 C8          2.7360    2.1180    3.7120 c3        1 1ZZ     -0.158000
     22 O8         -1.9010   -2.9180   -2.5580 oh        1 1ZZ     -0.364000
     23 C9          2.1630    0.6610    3.6500 c3        1 1ZZ     -0.157000
     24 C10         0.6690    0.7150    3.5840 c3        1 1ZZ     -0.158000
     25 C11         0.1150   -0.6980    3.4210 c3        1 1ZZ     -0.157000
     26 C12        -1.3610   -0.6310    3.1620 c2        1 1ZZ      0.343000
     27 C13        -4.4160   -2.0340   -0.4920 c3        1 1ZZ      0.050000
     28 C14        -4.0800   -3.0320   -1.5950 c3        1 1ZZ     -0.048000
     29 C15        -3.1130   -2.3760   -2.6470 c3        1 1ZZ      0.003000
     30 C16        -3.7280   -2.6760   -4.0150 c3        1 1ZZ     -0.001000
     31 C17        -4.6810   -3.5870   -3.7730 c2        1 1ZZ      0.121000
     32 C18        -6.7310   -2.4950   -4.5670 c1        1 1ZZ     -0.026000
     33 C19        -7.2500   -3.8990   -6.1950 c1        1 1ZZ     -0.083000
     34 C20        -6.0730   -4.2880   -5.6630 c1        1 1ZZ     -0.083000
     35 C21        -6.0170   -6.1450   -7.1610 c1        1 1ZZ      0.005000
     36 C22        -7.8300   -4.6410   -7.2300 c1        1 1ZZ      0.211000
     37 H1         10.7010    7.3840    2.9510 hc        1 1ZZ      0.070000
     38 H1A        10.4610    5.9920    2.1290 hc        1 1ZZ      0.070000
     39 H1B        10.9940    5.9310    3.6640 hc        1 1ZZ      0.070000
     40 H2          8.4520    7.0630    3.0600 hc        1 1ZZ      0.077000
     41 H2A         8.9640    6.5110    4.4500 hc        1 1ZZ      0.077000
     42 H3          8.8170    4.2810    3.7380 hc        1 1ZZ      0.078000
     43 H3A         8.5060    4.7610    2.2660 hc        1 1ZZ      0.078000
     44 H4          6.7490    5.3310    4.4440 hc        1 1ZZ      0.078000
     45 H4A         6.4330    5.5520    2.8620 hc        1 1ZZ      0.078000
     46 H5          6.7580    2.9420    4.0470 hc        1 1ZZ      0.077000
     47 H5A         6.4650    3.1560    2.4880 hc        1 1ZZ      0.077000
     48 HN5        -8.9790   -4.5470   -8.9050 hn        1 1ZZ      0.224000
     49 HN5A       -9.5940   -3.7580   -7.7230 hn        1 1ZZ      0.224000
     50 HO7        -2.3500   -2.5680   -5.3860 ho        1 1ZZ      0.226000
     51 H8          2.4820    2.5300    4.5610 hc        1 1ZZ      0.081000
     52 H8A         2.3530    2.6700    2.9350 hc        1 1ZZ      0.081000
     53 HO8        -1.2940   -2.2760   -2.5170 ho        1 1ZZ      0.281000
     54 H9          2.4440    0.1540    4.4750 hc        1 1ZZ      0.075000
     55 H9A         2.5150    0.2000    2.8420 hc        1 1ZZ      0.075000
     56 H10         0.3020    1.1290    4.4530 hc        1 1ZZ      0.096000
     57 H10A        0.3860    1.2820    2.7950 hc        1 1ZZ      0.096000
     58 H11         0.2800   -1.2090    4.2390 hc        1 1ZZ      0.109000
     59 H11A        0.5600   -1.1390    2.6660 hc        1 1ZZ      0.109000
     60 H13        -5.3620   -1.9580   -0.4090 h1        1 1ZZ      0.063500
     61 H13A       -4.0270   -1.1380   -0.7220 h1        1 1ZZ      0.063500
     62 H14        -3.6620   -3.8530   -1.2040 h1        1 1ZZ      0.136000
     63 H15        -3.0630   -1.4140   -2.5050 h1        1 1ZZ      0.129000
     64 H16        -4.1140   -1.8800   -4.3900 h1        1 1ZZ      0.126000
     65 H17        -4.3260   -4.4620   -3.8680 h4        1 1ZZ      0.154000
     66 H18        -6.7560   -1.7240   -3.9500 DU        1 1ZZ      0.219000
     67 H21        -5.5950   -7.0050   -7.4570 ha        1 1ZZ      0.179000
     68 H6          4.6870    3.9040    4.6050 hc        1 1ZZ      0.079000
     69 H34         4.3850    4.1060    3.0240 hc        1 1ZZ      0.079000
     70 H7          4.5250    1.6710    2.7460 hc        1 1ZZ      0.077000
     71 H36         4.6420    1.5270    4.3550 hc        1 1ZZ      0.077000
@<TRIPOS>BOND
     1    1    7 1   
     2    1   10 1   
     3    1   16 1   
     4    2    5 1   
     5    2   37 1   
     6    2   38 1   
     7    2   39 1   
     8    3   32 1   
     9    3   34 1   
    10    4   26 1   
    11    5    8 1   
    12    5   40 1   
    13    5   41 1   
    14    6   32 1   
    15    6   33 1   
    16    7   26 1   
    17    8   11 1   
    18    8   42 1   
    19    8   43 1   
    20    9   35 1   
    21   11   14 1   
    22   11   44 1   
    23   11   45 1   
    24   12   36 1   
    25   14   17 1   
    26   14   46 1   
    27   14   47 1   
    28   15   36 1   
    29   15   48 1   
    30   15   49 1   
    31   16   27 1   
    32   17   19 1   
    33   17   68 1   
    34   17   69 1   
    35   18   28 1   
    36   18   31 1   
    37   19   21 1   
    38   19   70 1   
    39   19   71 1   
    40   20   30 1   
    41   20   50 1   
    42   21   23 1   
    43   21   51 1   
    44   21   52 1   
    45   22   29 1   
    46   22   53 1   
    47   23   24 1   
    48   23   54 1   
    49   23   55 1   
    50   24   25 1   
    51   24   56 1   
    52   24   57 1   
    53   25   26 1   
    54   25   58 1   
    55   25   59 1   
    56   27   28 1   
    57   27   60 1   
    58   27   61 1   
    59   28   29 1   
    60   28   62 1   
    61   29   30 1   
    62   29   63 1   
    63   30   31 1   
    64   30   64 1   
    65   31   65 1   
    66   33   34 1   
    67   35   67 1   
@<TRIPOS>SUBSTRUCTURE
     1 1ZZ         1 TEMP              0 ****  ****    0 ROOT
