@<TRIPOS>MOLECULE
1ZZ
   72    74     1     0     0
SMALL
bcc


@<TRIPOS>ATOM
      1 P           1.0040   -0.5070   -3.9100 p5        1 1ZZ      1.651500
      2 C1         11.7100   -7.5740    6.1100 c3        1 1ZZ     -0.092100
      3 N1         -1.9430    5.0630   -4.4770 na        1 1ZZ     -0.285000
      4 O1          2.1060   -2.5040   -2.8150 o         1 1ZZ     -0.552000
      5 C2         10.6370   -7.6970    5.0600 c3        1 1ZZ     -0.080400
      6 N2         -3.1740    5.7500   -6.3100 nc        1 1ZZ     -0.540100
      7 O2          2.2530   -0.3670   -2.8700 os        1 1ZZ     -0.573500
      8 C3         10.1270   -6.3390    4.6250 c3        1 1ZZ     -0.079400
      9 N3         -3.2040    2.9310   -3.9980 nb        1 1ZZ     -0.762000
     10 O3         -0.2720   -0.9300   -3.3690 o         1 1ZZ     -0.778300
     11 C4          9.0490   -6.4670    3.5710 c3        1 1ZZ     -0.079400
     12 N4         -5.0860    2.5770   -5.5430 nb        1 1ZZ     -0.793000
     13 O4          1.6760   -1.1670   -5.1860 oh        1 1ZZ     -0.741400
     14 C5          8.5390   -5.1090    3.1370 c3        1 1ZZ     -0.078400
     15 N5         -5.6000    4.1230   -7.2900 nh        1 1ZZ     -0.958500
     16 O5          1.0150    0.9940   -4.4780 os        1 1ZZ     -0.599200
     17 C6          7.4620   -5.2380    2.0820 c3        1 1ZZ     -0.079400
     18 O6          0.2490    4.2370   -4.0600 os        1 1ZZ     -0.413600
     19 C7          6.9520   -3.8800    1.6490 c3        1 1ZZ     -0.079400
     20 O7         -0.6720    5.4200   -1.1660 oh        1 1ZZ     -0.585800
     21 C8          5.8750   -4.0100    0.5940 c3        1 1ZZ     -0.079400
     22 O8          0.4280    3.1190   -0.9540 oh        1 1ZZ     -0.597800
     23 C9          5.3660   -2.6510    0.1610 c3        1 1ZZ     -0.078400
     24 C10         4.2880   -2.7870   -0.8930 c3        1 1ZZ     -0.082400
     25 C11         3.7880   -1.4240   -1.3240 c3        1 1ZZ     -0.119400
     26 C12         2.7060   -1.5350   -2.3360 c         1 1ZZ      0.690100
     27 C13        -0.0840    1.8400   -4.2210 c3        1 1ZZ      0.158400
     28 C14         0.3630    3.0060   -3.3300 c3        1 1ZZ      0.114100
     29 C15        -0.4760    3.1450   -2.0450 c3        1 1ZZ      0.082100
     30 C16        -1.1660    4.5260   -2.1340 c3        1 1ZZ      0.090100
     31 C17        -0.8280    5.0460   -3.5660 c3        1 1ZZ      0.220800
     32 C18        -2.1330    6.0180   -5.5140 cd        1 1ZZ      0.417700
     33 C19        -3.7070    4.5460   -5.8240 ca        1 1ZZ     -0.236200
     34 C20        -2.9320    4.0840   -4.6780 ca        1 1ZZ      0.462800
     35 C21        -4.2750    2.2680   -4.4990 ca        1 1ZZ      0.694900
     36 C22        -4.8200    3.7380   -6.2350 ca        1 1ZZ      0.767200
     37 H1         12.0720   -8.5850    6.4160 hc        1 1ZZ      0.032700
     38 H1A        11.3180   -7.0510    7.0160 hc        1 1ZZ      0.032700
     39 H1B        12.5790   -6.9920    5.7190 hc        1 1ZZ      0.032700
     40 H2          9.7840   -8.3050    5.4620 hc        1 1ZZ      0.038700
     41 H2A        11.0420   -8.2460    4.1690 hc        1 1ZZ      0.038700
     42 H3         10.9780   -5.7300    4.2210 hc        1 1ZZ      0.039700
     43 H3A         9.7200   -5.7890    5.5140 hc        1 1ZZ      0.039700
     44 H4          8.1970   -7.0770    3.9750 hc        1 1ZZ      0.039700
     45 H4A         9.4560   -7.0180    2.6820 hc        1 1ZZ      0.039700
     46 H5          8.1320   -4.5590    4.0260 hc        1 1ZZ      0.039700
     47 H5A         9.3900   -4.5000    2.7330 hc        1 1ZZ      0.039700
     48 HN5        -5.3670    4.9480   -7.7840 hn        1 1ZZ      0.451300
     49 HN5A        2.0790   -0.5660   -5.8130 ho        1 1ZZ      0.489000
     50 HO7         0.2960    5.3710   -1.1820 ho        1 1ZZ      0.419000
     51 H8          6.2820   -4.5600   -0.2950 hc        1 1ZZ      0.044200
     52 H8A         5.0230   -4.6190    0.9980 hc        1 1ZZ      0.044200
     53 HO8        -0.1020    3.2140   -0.1510 ho        1 1ZZ      0.420000
     54 H9          6.2170   -2.0430   -0.2440 hc        1 1ZZ      0.041200
     55 H9A         4.9590   -2.1010    1.0500 hc        1 1ZZ      0.041200
     56 H10         3.4320   -3.3910   -0.4920 hc        1 1ZZ      0.061200
     57 H10A        4.6890   -3.3390   -1.7830 hc        1 1ZZ      0.061200
     58 H11         3.3830   -0.8530   -0.4450 hc        1 1ZZ      0.088700
     59 H11A        4.6230   -0.8140   -1.7630 hc        1 1ZZ      0.088700
     60 H13        -0.4210    2.2510   -5.2150 h1        1 1ZZ      0.081200
     61 H13A       -0.9130    1.2430   -3.7490 h1        1 1ZZ      0.081200
     62 H14         1.4600    2.9160   -3.0870 h1        1 1ZZ      0.109700
     63 H15        -1.2360    2.3260   -1.9440 h1        1 1ZZ      0.091700
     64 H16        -2.2690    4.4670   -1.9360 h1        1 1ZZ      0.121700
     65 H17        -0.4080    6.0970   -3.5270 h2        1 1ZZ      0.100700
     66 H18        -1.4710    6.8890   -5.6040 h5        1 1ZZ      0.075800
     67 H21        -4.5300    1.3170   -3.9790 h5        1 1ZZ      0.058100
     68 H6          6.6100   -5.8470    2.4870 hc        1 1ZZ      0.040700
     69 H34         7.8690   -5.7890    1.1930 hc        1 1ZZ      0.040700
     70 H7          7.8030   -3.2710    1.2450 hc        1 1ZZ      0.039700
     71 H36         6.5450   -3.3300    2.5380 hc        1 1ZZ      0.039700
     72 H53        -6.3570    3.5620   -7.5930 hn        1 1ZZ      0.451300
@<TRIPOS>BOND
     1    1    7 1   
     2    1   10 2   
     3    1   13 1   
     4    1   16 1   
     5    2    5 1   
     6    2   37 1   
     7    2   38 1   
     8    2   39 1   
     9    3   31 1   
    10    3   32 1   
    11    3   34 1   
    12    4   26 2   
    13    5    8 1   
    14    5   40 1   
    15    5   41 1   
    16    6   32 2   
    17    6   33 1   
    18    7   26 1   
    19    8   11 1   
    20    8   42 1   
    21    8   43 1   
    22    9   34 ar  
    23    9   35 ar  
    24   11   14 1   
    25   11   44 1   
    26   11   45 1   
    27   12   35 ar  
    28   12   36 ar  
    29   13   49 1   
    30   14   17 1   
    31   14   46 1   
    32   14   47 1   
    33   15   36 1   
    34   15   48 1   
    35   15   72 1   
    36   16   27 1   
    37   17   19 1   
    38   17   68 1   
    39   17   69 1   
    40   18   28 1   
    41   18   31 1   
    42   19   21 1   
    43   19   70 1   
    44   19   71 1   
    45   20   30 1   
    46   20   50 1   
    47   21   23 1   
    48   21   51 1   
    49   21   52 1   
    50   22   29 1   
    51   22   53 1   
    52   23   24 1   
    53   23   54 1   
    54   23   55 1   
    55   24   25 1   
    56   24   56 1   
    57   24   57 1   
    58   25   26 1   
    59   25   58 1   
    60   25   59 1   
    61   27   28 1   
    62   27   60 1   
    63   27   61 1   
    64   28   29 1   
    65   28   62 1   
    66   29   30 1   
    67   29   63 1   
    68   30   31 1   
    69   30   64 1   
    70   31   65 1   
    71   32   66 1   
    72   33   34 ar  
    73   33   36 ar  
    74   35   67 1   
@<TRIPOS>SUBSTRUCTURE
     1 1ZZ         1 TEMP              0 ****  ****    0 ROOT
