@<TRIPOS>MOLECULE
1ZZ
   71    73     1     0     0
SMALL
bcc


@<TRIPOS>ATOM
      1 P           0.9870    3.3460   -0.0610 p5        1 1ZZ      1.456800
      2 C1        -13.7850   -3.5390    0.0470 c3        1 1ZZ     -0.092100
      3 N1          4.3220   -0.5770   -0.2240 na        1 1ZZ     -0.280000
      4 O1         -1.2460    2.5750   -1.0890 o         1 1ZZ     -0.588000
      5 C2        -12.7550   -2.6710   -0.6260 c3        1 1ZZ     -0.080400
      6 N2          2.4690   -1.6100   -1.1350 nc        1 1ZZ     -0.573100
      7 O2         -0.1620    2.4340    0.7790 os        1 1ZZ     -0.545500
      8 C3        -11.4870   -2.5720    0.1950 c3        1 1ZZ     -0.079400
      9 N3          5.5290   -2.6600    0.5470 nb        1 1ZZ     -0.722000
     10 O3          1.6610    2.4200   -0.9960 o         1 1ZZ     -0.810500
     11 C4        -10.4550   -1.6980   -0.4850 c3        1 1ZZ     -0.079400
     12 N4          4.2870   -4.7180    0.0110 nb        1 1ZZ     -0.798000
     13 O4          0.5170    4.7180   -0.2530 o         1 1ZZ     -0.810500
     14 C5         -9.1880   -1.6000    0.3370 c3        1 1ZZ     -0.078400
     15 N5          2.2320   -4.6810   -1.2290 nh        1 1ZZ     -0.940500
     16 O5          2.0270    3.3870    1.2270 os        1 1ZZ     -0.571200
     17 C6         -8.1560   -0.7270   -0.3440 c3        1 1ZZ     -0.079400
     18 O6          4.7240    0.9650    1.5450 os        1 1ZZ     -0.419600
     19 C7         -6.8890   -0.6280    0.4780 c3        1 1ZZ     -0.078400
     20 O7          6.7220    1.9520   -0.8500 oh        1 1ZZ     -0.586800
     21 C8         -5.8580    0.2450   -0.2030 c3        1 1ZZ     -0.079400
     22 O8          5.3910    3.9400    0.1160 oh        1 1ZZ     -0.616800
     23 C9         -4.5910    0.3440    0.6190 c3        1 1ZZ     -0.078400
     24 C10        -3.5620    1.2170   -0.0670 c3        1 1ZZ     -0.079400
     25 C11        -2.3000    1.3200    0.7600 c3        1 1ZZ     -0.128400
     26 C12        -1.2540    2.1340    0.0710 c         1 1ZZ      0.675100
     27 C13         2.6300    2.1860    1.5880 c3        1 1ZZ      0.185400
     28 C14         4.1510    2.2730    1.3880 c3        1 1ZZ      0.076100
     29 C15         4.5510    2.8050   -0.0020 c3        1 1ZZ      0.069100
     30 C16         5.3530    1.6770   -0.6770 c3        1 1ZZ      0.127100
     31 C17         5.1920    0.4550    0.2900 c3        1 1ZZ      0.214800
     32 C18         3.0630   -0.4370   -0.8710 cd        1 1ZZ      0.438700
     33 C19         3.3370   -2.5910   -0.6300 ca        1 1ZZ     -0.212200
     34 C20         4.5090   -1.9560   -0.0340 ca        1 1ZZ      0.449800
     35 C21         5.3230   -3.9950    0.5200 ca        1 1ZZ      0.658900
     36 C22         3.2740   -4.0190   -0.5980 ca        1 1ZZ      0.719200
     37 H1        -14.0580   -3.1230    1.0470 hc        1 1ZZ      0.030700
     38 H1A       -14.7100   -3.5990   -0.5750 hc        1 1ZZ      0.030700
     39 H1B       -13.3920   -4.5740    0.1950 hc        1 1ZZ      0.030700
     40 H2        -12.5110   -3.0900   -1.6390 hc        1 1ZZ      0.038200
     41 H2A       -13.1750   -1.6430   -0.7880 hc        1 1ZZ      0.038200
     42 H3        -11.7270   -2.1510    1.2070 hc        1 1ZZ      0.038700
     43 H3A       -11.0630   -3.5980    0.3570 hc        1 1ZZ      0.038700
     44 H4        -10.2140   -2.1190   -1.4970 hc        1 1ZZ      0.039200
     45 H4A       -10.8790   -0.6720   -0.6470 hc        1 1ZZ      0.039200
     46 H5         -9.4280   -1.1790    1.3490 hc        1 1ZZ      0.038200
     47 H5A        -8.7640   -2.6260    0.4990 hc        1 1ZZ      0.038200
     48 HN5         2.0730   -5.6300   -0.9900 hn        1 1ZZ      0.422800
     49 HN5A        1.4300   -4.1300   -1.4280 hn        1 1ZZ      0.422800
     50 HO7         7.0160    2.4900   -0.1020 ho        1 1ZZ      0.419000
     51 H8         -5.6170   -0.1750   -1.2150 hc        1 1ZZ      0.041700
     52 H8A        -6.2810    1.2720   -0.3650 hc        1 1ZZ      0.041700
     53 HO8         4.8110    4.6760    0.3500 ho        1 1ZZ      0.425000
     54 H9         -4.8310    0.7670    1.6300 hc        1 1ZZ      0.035700
     55 H9A        -4.1670   -0.6820    0.7810 hc        1 1ZZ      0.035700
     56 H10        -3.3110    0.7970   -1.0770 hc        1 1ZZ      0.057200
     57 H10A       -3.9810    2.2430   -0.2370 hc        1 1ZZ      0.057200
     58 H11        -2.5160    1.7890    1.7560 hc        1 1ZZ      0.069200
     59 H11A       -1.8700    0.3010    0.9530 hc        1 1ZZ      0.069200
     60 H13         2.4310    1.9990    2.6800 h1        1 1ZZ      0.037700
     61 H13A        2.2170    1.3320    0.9830 h1        1 1ZZ      0.037700
     62 H14         4.6130    2.8980    2.2000 h1        1 1ZZ      0.069700
     63 H15         3.6260    3.0440   -0.6060 h1        1 1ZZ      0.128700
     64 H16         4.9640    1.4640   -1.7090 h1        1 1ZZ      0.106700
     65 H17         6.1960   -0.0150    0.5180 h2        1 1ZZ      0.112700
     66 H18         2.6430    0.5650   -1.1250 h5        1 1ZZ      0.156800
     67 H21         6.1220   -4.6060    0.9920 h5        1 1ZZ      0.037100
     68 H6         -7.9160   -1.1480   -1.3560 hc        1 1ZZ      0.039700
     69 H34        -8.5800    0.3000   -0.5060 hc        1 1ZZ      0.039700
     70 H7         -7.1300   -0.2070    1.4900 hc        1 1ZZ      0.037200
     71 H36        -6.4650   -1.6540    0.6400 hc        1 1ZZ      0.037200
@<TRIPOS>BOND
     1    1    7 1   
     2    1   10 1   
     3    1   13 1   
     4    1   16 1   
     5    2    5 1   
     6    2   37 1   
     7    2   38 1   
     8    2   39 1   
     9    3   31 1   
    10    3   32 1   
    11    3   34 1   
    12    4   26 2   
    13    5    8 1   
    14    5   40 1   
    15    5   41 1   
    16    6   32 2   
    17    6   33 1   
    18    7   26 1   
    19    8   11 1   
    20    8   42 1   
    21    8   43 1   
    22    9   34 ar  
    23    9   35 ar  
    24   11   14 1   
    25   11   44 1   
    26   11   45 1   
    27   12   35 ar  
    28   12   36 ar  
    29   14   17 1   
    30   14   46 1   
    31   14   47 1   
    32   15   36 1   
    33   15   48 1   
    34   15   49 1   
    35   16   27 1   
    36   17   19 1   
    37   17   68 1   
    38   17   69 1   
    39   18   28 1   
    40   18   31 1   
    41   19   21 1   
    42   19   70 1   
    43   19   71 1   
    44   20   30 1   
    45   20   50 1   
    46   21   23 1   
    47   21   51 1   
    48   21   52 1   
    49   22   29 1   
    50   22   53 1   
    51   23   24 1   
    52   23   54 1   
    53   23   55 1   
    54   24   25 1   
    55   24   56 1   
    56   24   57 1   
    57   25   26 1   
    58   25   58 1   
    59   25   59 1   
    60   27   28 1   
    61   27   60 1   
    62   27   61 1   
    63   28   29 1   
    64   28   62 1   
    65   29   30 1   
    66   29   63 1   
    67   30   31 1   
    68   30   64 1   
    69   31   65 1   
    70   32   66 1   
    71   33   34 ar  
    72   33   36 ar  
    73   35   67 1   
@<TRIPOS>SUBSTRUCTURE
     1 1ZZ         1 TEMP              0 ****  ****    0 ROOT
