@<TRIPOS>MOLECULE
E02
   35    29     1     0     0
SMALL
bcc


@<TRIPOS>ATOM
      1 N1          0.2230   -2.1880    0.3000 n2        1 E02     -0.175000
      2 C2         -0.0780   -3.0350   -0.7200 c1        1 E02     -0.012000
      3 N3         -0.5960   -4.1720   -0.1840 n2        1 E02     -0.175000
      4 C4         -0.6170   -4.0290    1.1640 c1        1 E02     -0.047500
      5 C5         -0.1100   -2.7990    1.4650 c1        1 E02     -0.047500
      6 C6         -0.0150   -2.3860    2.8070 c1        1 E02     -0.102000
      7 C7         -0.4370   -3.2280    3.8230 c1        1 E02     -0.132500
      8 C8         -0.9530   -4.4780    3.5180 c1        1 E02     -0.132500
      9 C9         -1.0460   -4.8850    2.1970 c1        1 E02     -0.102000
     10 C10         0.6200   -0.8260    0.4030 c2        1 E02     -0.050000
     11 C11         1.1600   -0.3570   -0.9300 c2        1 E02      0.258000
     12 O12         1.6150   -1.1610   -1.7180 o         1 E02     -0.274000
     13 C13         1.1740    1.1190   -1.2620 c2        1 E02     -0.180000
     14 C14        -0.0100    1.7730   -1.5640 c2        1 E02      0.009000
     15 C15         0.0030    3.1240   -1.8720 c1        1 E02     -0.809000
     16 C16         1.2010    3.8220   -1.8780 c1        1 E02      0.070000
     17 C17         2.3850    3.1680   -1.5760 c1        1 E02     -0.160000
     18 C18         2.3720    1.8170   -1.2680 c1        1 E02     -0.011000
     19 S19        -1.5130    3.9610   -2.2560 s4        1 E02      2.077800
     20 O20        -1.3030    5.0020   -3.2230 o         1 E02     -0.536400
     21 CL21        1.2130    5.5300   -2.2260 cl        1 E02      0.011000
     22 O22        -2.4190    3.1010   -2.9640 o         1 E02     -0.536400
     23 N23        -2.1990    4.5510   -0.8850 n2        1 E02     -0.953000
     24 H2          0.0550   -2.8570   -1.6700 DU        1 E02      0.216000
     25 H6          0.3490   -1.5060    3.0230 ha        1 E02      0.140500
     26 H7         -0.3710   -2.9420    4.7540 ha        1 E02      0.133000
     27 H8         -1.2500   -5.0710    4.2340 ha        1 E02      0.133000
     28 H9         -1.4100   -5.7650    1.9820 ha        1 E02      0.140500
     29 H10        -0.1520   -0.2790    0.6540 ha        1 E02      0.122000
     30 H10A        1.3170   -0.7400    1.0860 ha        1 E02      0.122000
     31 H14        -0.8540    1.2820   -1.5600 ha        1 E02      0.172000
     32 H17         3.2290    3.6590   -1.5800 ha        1 E02      0.163000
     33 H18         3.2060    1.3560   -1.0560 ha        1 E02      0.168000
     34 HN23       -2.9130    4.1200   -0.5090 hn        1 E02      0.250000
     35 HN2A       -1.8780    5.3180   -0.5060 hn        1 E02      0.250000
@<TRIPOS>BOND
     1    1    2 1   
     2    1    5 1   
     3    2    3 1   
     4    3    4 1   
     5    4    9 1   
     6    5    6 1   
     7    6   25 1   
     8    7    8 1   
     9    7   26 1   
    10    8   27 1   
    11    9   28 1   
    12   10   11 1   
    13   10   29 1   
    14   10   30 1   
    15   11   12 1   
    16   11   13 1   
    17   13   14 1   
    18   13   18 1   
    19   14   15 1   
    20   14   31 1   
    21   15   19 1   
    22   16   17 1   
    23   16   21 1   
    24   17   32 1   
    25   18   33 1   
    26   19   20 1   
    27   19   22 1   
    28   23   34 1   
    29   23   35 1   
@<TRIPOS>SUBSTRUCTURE
     1 E02         1 TEMP              0 ****  ****    0 ROOT
