@<TRIPOS>MOLECULE
E02
   36    38     1     0     0
SMALL
bcc


@<TRIPOS>ATOM
      1 N1          0.1820    0.4650   -0.6300 na        1 E02     -0.180300
      2 C2          0.6000    1.8170   -0.5070 cc        1 E02      0.390700
      3 N3         -0.0630    2.4940    0.4350 nd        1 E02     -0.559100
      4 C4         -0.9830    1.5750    0.9910 ca        1 E02      0.049400
      5 C5         -0.8470    0.2940    0.3180 ca        1 E02     -0.078200
      6 C6         -1.6230   -0.8070    0.6910 ca        1 E02     -0.140000
      7 C7         -2.5310   -0.6260    1.7270 ca        1 E02     -0.096000
      8 C8         -2.6710    0.6080    2.3830 ca        1 E02     -0.141000
      9 C9         -1.9060    1.7130    2.0350 ca        1 E02     -0.061000
     10 C10         0.4950   -0.4040   -1.7090 c3        1 E02     -0.046700
     11 C11        -0.3250   -0.2520   -2.9880 c         1 E02      0.537700
     12 O12        -0.0350   -0.9080   -3.9880 o         1 E02     -0.463100
     13 C13        -1.4940    0.6700   -2.9880 ca        1 E02     -0.165600
     14 C14        -1.3200    2.0420   -2.8610 ca        1 E02      0.038000
     15 C15        -2.4170    2.9360   -2.8120 ca        1 E02     -0.521500
     16 C16        -3.7070    2.3730   -2.9590 ca        1 E02      0.144400
     17 C17        -3.8910    1.0000   -3.1090 ca        1 E02     -0.137000
     18 C18        -2.7870    0.1450   -3.1210 ca        1 E02      0.038000
     19 S19        -2.0830    4.4870   -2.4850 sy        1 E02      1.488200
     20 O20        -2.8910    5.1310   -1.5820 o         1 E02     -0.552300
     21 CL21       -5.0670    3.3820   -2.9780 cl        1 E02     -0.035400
     22 O22        -0.7480    4.8040   -2.6190 o         1 E02     -0.552300
     23 N23        -2.7550    5.2420   -4.1160 n4        1 E02     -0.788500
     24 H2          1.4430    2.2100   -1.0930 h5        1 E02      0.077800
     25 H6         -1.5040   -1.7840    0.2040 ha        1 E02      0.141000
     26 H7         -3.1510   -1.4770    2.0520 ha        1 E02      0.148000
     27 H8         -3.3990    0.6930    3.2060 ha        1 E02      0.150000
     28 H9         -2.0040    2.6700    2.5700 ha        1 E02      0.160000
     29 H10         1.5820   -0.2630   -1.9900 h1        1 E02      0.112700
     30 H10A        0.3630   -1.4750   -1.3660 h1        1 E02      0.112700
     31 H14        -0.2930    2.4550   -2.7800 ha        1 E02      0.181000
     32 H17        -4.9090    0.5830   -3.2160 ha        1 E02      0.191000
     33 H18        -2.9340   -0.9450   -3.2410 ha        1 E02      0.184000
     34 HN23       -2.0160    5.7520   -4.5970 hn        1 E02      0.457800
     35 HN2A       -3.1170    4.5410   -4.7550 hn        1 E02      0.457800
     36 H233       -3.5080    5.8990   -3.9160 hn        1 E02      0.457800
@<TRIPOS>BOND
     1    1    2 1   
     2    1    5 1   
     3    1   10 1   
     4    2    3 2   
     5    2   24 1   
     6    3    4 1   
     7    4    5 ar  
     8    4    9 ar  
     9    5    6 ar  
    10    6    7 ar  
    11    6   25 1   
    12    7    8 ar  
    13    7   26 1   
    14    8    9 ar  
    15    8   27 1   
    16    9   28 1   
    17   10   11 1   
    18   10   29 1   
    19   10   30 1   
    20   11   12 2   
    21   11   13 1   
    22   13   14 ar  
    23   13   18 ar  
    24   14   15 ar  
    25   14   31 1   
    26   15   16 ar  
    27   15   19 1   
    28   16   17 ar  
    29   16   21 1   
    30   17   18 ar  
    31   17   32 1   
    32   18   33 1   
    33   19   20 2   
    34   19   22 2   
    35   19   23 1   
    36   23   34 1   
    37   23   35 1   
    38   23   36 1   
@<TRIPOS>SUBSTRUCTURE
     1 E02         1 TEMP              0 ****  ****    0 ROOT
