@<TRIPOS>MOLECULE
E02
   36    38     1     0     0
SMALL
bcc


@<TRIPOS>ATOM
      1 N1          0.1730    0.4720   -0.6040 na        1 E02     -0.180300
      2 C2          0.5820    1.8270   -0.4730 cc        1 E02      0.390700
      3 N3         -0.0970    2.4990    0.4610 nd        1 E02     -0.559100
      4 C4         -1.0190    1.5740    1.0030 ca        1 E02      0.049400
      5 C5         -0.8680    0.2950    0.3300 ca        1 E02     -0.078200
      6 C6         -1.6430   -0.8110    0.6920 ca        1 E02     -0.140000
      7 C7         -2.5660   -0.6360    1.7160 ca        1 E02     -0.096000
      8 C8         -2.7210    0.5970    2.3720 ca        1 E02     -0.141000
      9 C9         -1.9570    1.7060    2.0350 ca        1 E02     -0.061000
     10 C10         0.5040   -0.3940   -1.6800 c3        1 E02     -0.046700
     11 C11        -0.3000   -0.2450   -2.9690 c         1 E02      0.537700
     12 O12         0.0040   -0.9000   -3.9650 o         1 E02     -0.463100
     13 C13        -1.4730    0.6730   -2.9830 ca        1 E02     -0.165600
     14 C14        -1.3060    2.0460   -2.8530 ca        1 E02      0.038000
     15 C15        -2.4070    2.9350   -2.8180 ca        1 E02     -0.521500
     16 C16        -3.6920    2.3670   -2.9820 ca        1 E02      0.144400
     17 C17        -3.8690    0.9940   -3.1350 ca        1 E02     -0.137000
     18 C18        -2.7630    0.1420   -3.1330 ca        1 E02      0.038000
     19 S19        -2.0830    4.4870   -2.4850 sy        1 E02      1.488200
     20 O20        -2.9050    5.1270   -1.5930 o         1 E02     -0.552300
     21 CL21       -5.0560    3.3710   -3.0180 cl        1 E02     -0.035400
     22 O22        -0.7470    4.8090   -2.6010 o         1 E02     -0.552300
     23 N23        -2.7370    5.2410   -4.1240 n4        1 E02     -0.788500
     24 H2          1.4300    2.2240   -1.0470 h5        1 E02      0.077800
     25 H6         -1.5130   -1.7870    0.2050 ha        1 E02      0.141000
     26 H7         -3.1860   -1.4910    2.0320 ha        1 E02      0.148000
     27 H8         -3.4600    0.6770    3.1850 ha        1 E02      0.150000
     28 H9         -2.0670    2.6620    2.5700 ha        1 E02      0.160000
     29 H10         0.3740   -1.4660   -1.3390 h1        1 E02      0.112700
     30 H10A        1.5940   -0.2460   -1.9470 h1        1 E02      0.112700
     31 H14        -0.2810    2.4620   -2.7590 ha        1 E02      0.181000
     32 H17        -4.8840    0.5730   -3.2560 ha        1 E02      0.191000
     33 H18        -2.9030   -0.9470   -3.2560 ha        1 E02      0.184000
     34 HN23       -1.9930    5.7540   -4.5950 hn        1 E02      0.457800
     35 HN2A       -3.4950    5.8950   -3.9330 hn        1 E02      0.457800
     36 H233       -3.0870    4.5380   -4.7690 hn        1 E02      0.457800
@<TRIPOS>BOND
     1    1    2 1   
     2    1    5 1   
     3    1   10 1   
     4    2    3 2   
     5    2   24 1   
     6    3    4 1   
     7    4    5 ar  
     8    4    9 ar  
     9    5    6 ar  
    10    6    7 ar  
    11    6   25 1   
    12    7    8 ar  
    13    7   26 1   
    14    8    9 ar  
    15    8   27 1   
    16    9   28 1   
    17   10   11 1   
    18   10   29 1   
    19   10   30 1   
    20   11   12 2   
    21   11   13 1   
    22   13   14 ar  
    23   13   18 ar  
    24   14   15 ar  
    25   14   31 1   
    26   15   16 ar  
    27   15   19 1   
    28   16   17 ar  
    29   16   21 1   
    30   17   18 ar  
    31   17   32 1   
    32   18   33 1   
    33   19   20 2   
    34   19   22 2   
    35   19   23 1   
    36   23   34 1   
    37   23   35 1   
    38   23   36 1   
@<TRIPOS>SUBSTRUCTURE
     1 E02         1 TEMP              0 ****  ****    0 ROOT
