@<TRIPOS>MOLECULE
E02
   36    38     1     0     0
SMALL
bcc


@<TRIPOS>ATOM
      1 N1          0.1730    0.4470   -0.6350 na        1 E02     -0.180300
      2 C2          0.5960    1.7950   -0.4910 cc        1 E02      0.390700
      3 N3         -0.0690    2.4620    0.4570 nd        1 E02     -0.559100
      4 C4         -0.9970    1.5380    0.9940 ca        1 E02      0.049400
      5 C5         -0.8620    0.2670    0.3050 ca        1 E02     -0.078200
      6 C6         -1.6450   -0.8360    0.6590 ca        1 E02     -0.140000
      7 C7         -2.5580   -0.6660    1.6920 ca        1 E02     -0.096000
      8 C8         -2.6960    0.5600    2.3640 ca        1 E02     -0.141000
      9 C9         -1.9250    1.6670    2.0350 ca        1 E02     -0.061000
     10 C10         0.4890   -0.4090   -1.7240 c3        1 E02     -0.046700
     11 C11        -0.3230   -0.2360   -3.0050 c         1 E02      0.537700
     12 O12        -0.0300   -0.8800   -4.0120 o         1 E02     -0.463100
     13 C13        -1.4890    0.6900   -2.9990 ca        1 E02     -0.165600
     14 C14        -1.3100    2.0600   -2.8530 ca        1 E02      0.038000
     15 C15        -2.4040    2.9580   -2.7970 ca        1 E02     -0.521500
     16 C16        -3.6950    2.4010   -2.9590 ca        1 E02      0.144400
     17 C17        -3.8840    1.0310   -3.1290 ca        1 E02     -0.137000
     18 C18        -2.7840    0.1720   -3.1460 ca        1 E02      0.038000
     19 S19        -2.0650    4.5020   -2.4470 sy        1 E02      1.488200
     20 O20        -2.8760    5.1370   -1.5410 o         1 E02     -0.552300
     21 Cl21       -5.0510    3.4170   -2.9720 cl        1 E02     -0.035400
     22 O22        -0.7280    4.8160   -2.5690 o         1 E02     -0.552300
     23 N23        -2.7260    5.2820   -4.0710 nz        1 E02     -0.788500
     24 H2          1.4430    2.1920   -1.0660 h5        1 E02      0.077800
     25 H6         -1.5270   -1.8070    0.1590 ha        1 E02      0.141000
     26 H7         -3.1830   -1.5180    2.0020 ha        1 E02      0.148000
     27 H8         -3.4290    0.6370    3.1830 ha        1 E02      0.150000
     28 H9         -2.0230    2.6160    2.5820 ha        1 E02      0.160000
     29 H10         1.5780   -0.2690   -1.9970 h1        1 E02      0.112700
     30 H10A        0.3510   -1.4840   -1.3960 h1        1 E02      0.112700
     31 H14        -0.2820    2.4670   -2.7600 ha        1 E02      0.181000
     32 H17        -4.9030    0.6210   -3.2480 ha        1 E02      0.191000
     33 H18        -2.9340   -0.9150   -3.2820 ha        1 E02      0.184000
     34 HN23       -1.9820    5.7960   -4.5420 hn        1 E02      0.457800
     35 HN2A       -3.0860    4.5910   -4.7230 hn        1 E02      0.457800
     36 H233       -3.4770    5.9400   -3.8670 hn        1 E02      0.457800
@<TRIPOS>BOND
     1    1    2 1   
     2    1    5 1   
     3    1   10 1   
     4    2    3 2   
     5    2   24 1   
     6    3    4 1   
     7    4    5 ar  
     8    4    9 ar  
     9    5    6 ar  
    10    6    7 ar  
    11    6   25 1   
    12    7    8 ar  
    13    7   26 1   
    14    8    9 ar  
    15    8   27 1   
    16    9   28 1   
    17   10   11 1   
    18   10   29 1   
    19   10   30 1   
    20   11   12 2   
    21   11   13 1   
    22   13   14 ar  
    23   13   18 ar  
    24   14   15 ar  
    25   14   31 1   
    26   15   16 ar  
    27   15   19 1   
    28   16   17 ar  
    29   16   21 1   
    30   17   18 ar  
    31   17   32 1   
    32   18   33 1   
    33   19   20 2   
    34   19   22 2   
    35   19   23 1   
    36   23   34 1   
    37   23   35 1   
    38   23   36 1   
@<TRIPOS>SUBSTRUCTURE
     1 E02         1 TEMP              0 ****  ****    0 ROOT
