@<TRIPOS>MOLECULE
E02
   35    37     1     0     0
SMALL
bcc


@<TRIPOS>ATOM
      1 N1         -3.2510   -0.3850    0.6010 na        1 E02     -0.185300
      2 C2         -3.8170   -0.0170    1.8470 cc        1 E02      0.443700
      3 N3         -5.0630    0.4560    1.7430 nd        1 E02     -0.565100
      4 C4         -5.3730    0.4100    0.3640 ca        1 E02      0.070400
      5 C5         -4.2340   -0.1210   -0.3680 ca        1 E02     -0.071200
      6 C6         -4.2720   -0.2710   -1.7580 ca        1 E02     -0.138000
      7 C7         -5.4380    0.1060   -2.4110 ca        1 E02     -0.111000
      8 C8         -6.5440    0.6190   -1.7130 ca        1 E02     -0.152000
      9 C9         -6.5290    0.7770   -0.3340 ca        1 E02     -0.066000
     10 C10        -1.9840   -0.9920    0.3630 c3        1 E02     -0.038700
     11 C11        -0.8110   -0.4100    1.1410 c         1 E02      0.567700
     12 O12        -0.9440    0.1830    2.2140 o         1 E02     -0.502100
     13 C13         0.5150   -0.6360    0.5280 ca        1 E02     -0.199600
     14 C14         1.5340    0.2940    0.7580 ca        1 E02      0.029000
     15 C15         2.8100    0.1380    0.2020 ca        1 E02     -0.359500
     16 C16         3.0470   -1.0030   -0.5770 ca        1 E02      0.145400
     17 C17         2.0420   -1.9480   -0.8100 ca        1 E02     -0.159000
     18 C18         0.7770   -1.7610   -0.2630 ca        1 E02     -0.037000
     19 S19         3.9570    1.3880    0.4890 sy        1 E02      1.521200
     20 O20         4.3720    1.9050   -0.7490 o         1 E02     -0.644800
     21 CL21        4.5770   -1.2800   -1.2610 cl        1 E02     -0.066400
     22 O22         3.3620    2.2910    1.3950 o         1 E02     -0.644800
     23 N23         5.1580    0.6220    1.2050 n3        1 E02     -1.026700
     24 H2         -3.2330   -0.0970    2.7760 h5        1 E02      0.087800
     25 H6         -3.4130   -0.6680   -2.3150 ha        1 E02      0.130000
     26 H7         -5.4980    0.0020   -3.5050 ha        1 E02      0.132000
     27 H8         -7.4440    0.9030   -2.2790 ha        1 E02      0.134000
     28 H9         -7.3980    1.1820    0.2050 ha        1 E02      0.150000
     29 H10        -2.0330   -2.0910    0.6360 h1        1 E02      0.076200
     30 H10A       -1.7590   -0.9130   -0.7410 h1        1 E02      0.076200
     31 H14         1.3210    1.1750    1.4000 ha        1 E02      0.193000
     32 H17         2.2500   -2.8370   -1.4270 ha        1 E02      0.161000
     33 H18        -0.0080   -2.5120   -0.4480 ha        1 E02      0.143000
     34 HN23        5.2320    0.5190    2.1860 hn        1 E02      0.453800
     35 HN2A        5.9200    0.2170    0.7200 hn        1 E02      0.453800
@<TRIPOS>BOND
     1    1    2 1   
     2    1    5 1   
     3    1   10 1   
     4    2    3 2   
     5    2   24 1   
     6    3    4 1   
     7    4    5 ar  
     8    4    9 ar  
     9    5    6 ar  
    10    6    7 ar  
    11    6   25 1   
    12    7    8 ar  
    13    7   26 1   
    14    8    9 ar  
    15    8   27 1   
    16    9   28 1   
    17   10   11 1   
    18   10   29 1   
    19   10   30 1   
    20   11   12 2   
    21   11   13 1   
    22   13   14 ar  
    23   13   18 ar  
    24   14   15 ar  
    25   14   31 1   
    26   15   16 ar  
    27   15   19 1   
    28   16   17 ar  
    29   16   21 1   
    30   17   18 ar  
    31   17   32 1   
    32   18   33 1   
    33   19   20 2   
    34   19   22 2   
    35   19   23 1   
    36   23   34 1   
    37   23   35 1   
@<TRIPOS>SUBSTRUCTURE
     1 E02         1 TEMP              0 ****  ****    0 ROOT
