@<TRIPOS>MOLECULE
E04
   62    66     1     0     0
SMALL
bcc


@<TRIPOS>ATOM
      1 O26         5.5950    0.6930    2.0460 o         1 E04     -0.588500
      2 C20         5.0450    0.5190    0.9550 c         1 E04      0.721600
      3 C21         5.7140    0.7200   -0.3890 c3        1 E04     -0.122000
      4 C25         7.0620    0.0080   -0.3640 c3        1 E04     -0.087600
      5 C24         5.9450    2.2180   -0.5650 c3        1 E04     -0.087600
      6 C22         4.8700    0.1760   -1.5360 c3        1 E04     -0.080400
      7 C23         3.3980    0.4110   -1.2930 c3        1 E04     -0.105400
      8 C17         2.9330   -0.2470   -0.0030 c3        1 E04      0.167800
      9 O19         3.7300    0.1720    1.1160 os        1 E04     -0.409900
     10 C13         1.4410    0.0770    0.3480 c3        1 E04     -0.042000
     11 C18         1.2740   -0.0470    1.8570 c3        1 E04     -0.081100
     12 C14         0.7010   -1.0320   -0.4360 c3        1 E04     -0.064700
     13 C15         1.5190   -2.2880   -0.1740 c3        1 E04     -0.071400
     14 C16         2.9640   -1.7980   -0.0820 c3        1 E04     -0.099400
     15 C8         -0.7760   -1.0420   -0.1070 c3        1 E04     -0.048700
     16 C9         -1.3740    0.3110   -0.5310 c3        1 E04     -0.017400
     17 C11        -0.6200    1.4820    0.0920 c3        1 E04     -0.071400
     18 C12         0.8850    1.4110   -0.1200 c3        1 E04     -0.066400
     19 C10        -2.8460    0.3370   -0.2520 ca        1 E04     -0.043300
     20 C1         -3.5180    1.5500   -0.0550 ca        1 E04     -0.139000
     21 C2         -4.8950    1.5900    0.1450 ca        1 E04     -0.107000
     22 C3         -5.6310    0.4020    0.1490 ca        1 E04     -0.141600
     23 C27        -7.1040    0.3770    0.3660 c         1 E04      0.671700
     24 O29        -7.6700   -0.5690    0.9550 o         1 E04     -0.612100
     25 N28        -7.8540    1.4250   -0.1130 n         1 E04     -0.675000
     26 C4         -4.9710   -0.8160   -0.0310 ca        1 E04     -0.080000
     27 C5         -3.5870   -0.8590   -0.2340 ca        1 E04     -0.080300
     28 C6         -2.9590   -2.2010   -0.3900 c3        1 E04     -0.036100
     29 C7         -1.5130   -2.1530   -0.8330 c3        1 E04     -0.074400
     30 H251        7.6850    0.4030    0.4750 hc        1 E04      0.048700
     31 H252        6.9220   -1.0900   -0.2160 hc        1 E04      0.048700
     32 H253        7.5950    0.1770   -1.3290 hc        1 E04      0.048700
     33 H241        6.5340    2.4030   -1.4950 hc        1 E04      0.048700
     34 H242        4.9710    2.7590   -0.6420 hc        1 E04      0.048700
     35 H243        6.5120    2.6210    0.3090 hc        1 E04      0.048700
     36 H221        5.1790    0.6770   -2.4900 hc        1 E04      0.054200
     37 H222        5.0700   -0.9210   -1.6600 hc        1 E04      0.054200
     38 H231        3.2100    1.5160   -1.2320 hc        1 E04      0.061200
     39 H232        2.8000    0.0040   -2.1490 hc        1 E04      0.061200
     40 H181        0.2040    0.0320    2.1610 hc        1 E04      0.046033
     41 H182        1.6760   -1.0280    2.2100 hc        1 E04      0.046033
     42 H183        1.8460    0.7680    2.3660 hc        1 E04      0.046033
     43 H14         0.7950   -0.7950   -1.5370 hc        1 E04      0.043700
     44 H151        1.3940   -3.0320   -0.9980 hc        1 E04      0.048700
     45 H152        1.2020   -2.7770    0.7800 hc        1 E04      0.048700
     46 H161        3.5470   -2.1340   -0.9740 hc        1 E04      0.057200
     47 H162        3.4610   -2.2040    0.8340 hc        1 E04      0.057200
     48 H8         -0.9220   -1.1840    0.9990 hc        1 E04      0.067700
     49 H9         -1.2590    0.3970   -1.6530 hc        1 E04      0.057700
     50 H111       -0.9800    2.4390   -0.3720 hc        1 E04      0.046700
     51 H112       -0.8510    1.5340    1.1880 hc        1 E04      0.046700
     52 H121        1.0980    1.5540   -1.2120 hc        1 E04      0.044700
     53 H122        1.3780    2.2470    0.4400 hc        1 E04      0.044700
     54 H1         -2.9600    2.4990   -0.0540 ha        1 E04      0.136000
     55 H2         -5.3850    2.5590    0.3160 ha        1 E04      0.132000
     56 H281       -7.4410    2.1520   -0.6360 hn        1 E04      0.312000
     57 H282       -8.8360    1.4110    0.0020 hn        1 E04      0.312000
     58 H4         -5.5540   -1.7520    0.0010 ha        1 E04      0.156000
     59 H61        -3.5530   -2.8070   -1.1270 hc        1 E04      0.055200
     60 H62        -3.0250   -2.7320    0.6010 hc        1 E04      0.055200
     61 H71        -1.4550   -1.9870   -1.9410 hc        1 E04      0.045200
     62 H72        -1.0200   -3.1370   -0.6160 hc        1 E04      0.045200
@<TRIPOS>BOND
     1    1    2 2   
     2    2    3 1   
     3    2    9 1   
     4    3    4 1   
     5    3    5 1   
     6    3    6 1   
     7    4   30 1   
     8    4   31 1   
     9    4   32 1   
    10    5   33 1   
    11    5   34 1   
    12    5   35 1   
    13    6    7 1   
    14    6   36 1   
    15    6   37 1   
    16    7    8 1   
    17    7   38 1   
    18    7   39 1   
    19    8    9 1   
    20    8   10 1   
    21    8   14 1   
    22   10   11 1   
    23   10   12 1   
    24   10   18 1   
    25   11   40 1   
    26   11   41 1   
    27   11   42 1   
    28   12   13 1   
    29   12   15 1   
    30   12   43 1   
    31   13   14 1   
    32   13   44 1   
    33   13   45 1   
    34   14   46 1   
    35   14   47 1   
    36   15   16 1   
    37   15   29 1   
    38   15   48 1   
    39   16   17 1   
    40   16   19 1   
    41   16   49 1   
    42   17   18 1   
    43   17   50 1   
    44   17   51 1   
    45   18   52 1   
    46   18   53 1   
    47   19   20 ar  
    48   19   27 ar  
    49   20   21 ar  
    50   20   54 1   
    51   21   22 ar  
    52   21   55 1   
    53   22   23 1   
    54   22   26 ar  
    55   23   24 2   
    56   23   25 1   
    57   25   56 1   
    58   25   57 1   
    59   26   27 ar  
    60   26   58 1   
    61   27   28 1   
    62   28   29 1   
    63   28   59 1   
    64   28   60 1   
    65   29   61 1   
    66   29   62 1   
@<TRIPOS>SUBSTRUCTURE
     1 E04         1 TEMP              0 ****  ****    0 ROOT
