@<TRIPOS>MOLECULE
E04
   62    63     1     0     0
SMALL
bcc


@<TRIPOS>ATOM
      1 O26        -3.8920    1.5040    3.1190 o         1 E04     -0.315000
      2 C20        -2.6710    1.5040    3.1190 c1        1 E04      0.307000
      3 C21        -1.8690    1.5040    4.5090 c2        1 E04     -0.072000
      4 C25        -2.6300    2.3000    5.5970 c3        1 E04     -0.205500
      5 C24        -1.8310    0.0940    5.1400 c3        1 E04     -0.205500
      6 C22        -0.5440    2.0070    4.2960 c3        1 E04     -0.159000
      7 C23         0.1700    1.3120    3.1590 c3        1 E04     -0.182000
      8 C17        -0.5940    1.3320    1.9220 c3        1 E04      0.091000
      9 O19        -1.9510    0.8670    2.0470 os        1 E04     -0.254000
     10 C13         0.0430    0.6360    0.9820 c3        1 E04     -0.035000
     11 C18         1.5550    0.9860    1.0230 c3        1 E04     -0.209000
     12 C14        -0.6190    1.2460   -0.3920 c3        1 E04     -0.105000
     13 C15        -0.2800    2.5200   -0.3120 c3        1 E04     -0.148000
     14 C16        -0.5730    2.8490    1.2740 c3        1 E04     -0.175000
     15 C8         -0.1070    0.5160   -1.7210 c3        1 E04     -0.079000
     16 C9         -0.2690   -1.0040   -1.6230 c3        1 E04     -0.065000
     17 C11         0.3940   -1.6060   -0.2190 c3        1 E04     -0.146000
     18 C12        -0.1220   -0.8300    1.1060 c3        1 E04     -0.146000
     19 C10         0.3600   -1.8180   -2.7690 c2        1 E04     -0.038000
     20 C1         -0.0890   -3.0760   -3.1120 c2        1 E04     -0.138000
     21 C2          0.4410   -3.7340   -4.2630 c1        1 E04     -0.107000
     22 C3          1.4590   -3.0760   -5.0800 c1        1 E04     -0.122000
     23 C27         2.0310   -3.7900   -6.3120 c2        1 E04      0.345000
     24 O29         2.8800   -3.2420   -6.9940 o         1 E04     -0.374000
     25 N28         1.5970   -5.1150   -6.6370 n         1 E04     -0.435000
     26 C4          1.9280   -1.7720   -4.7280 c1        1 E04     -0.079000
     27 C5          1.4200   -1.1340   -3.6190 c1        1 E04     -0.071000
     28 C6          1.8600    0.4350   -3.2050 c3        1 E04     -0.123000
     29 C7          1.2180    1.0000   -2.0250 c3        1 E04     -0.151000
     30 H251       -2.1150    2.2900    6.4260 hc        1 E04      0.088167
     31 H252       -3.5020    1.8890    5.7510 hc        1 E04      0.088167
     32 H253       -2.7520    3.2210    5.3000 hc        1 E04      0.088167
     33 H241       -2.7150   -0.1300    5.4890 hc        1 E04      0.088167
     34 H242       -1.1820    0.0810    5.8680 hc        1 E04      0.088167
     35 H243       -1.5730   -0.5590    4.4620 hc        1 E04      0.088167
     36 H221       -0.5980    2.9610    4.0970 hc        1 E04      0.094000
     37 H222       -0.0260    1.8840    5.1140 hc        1 E04      0.094000
     38 H231        1.0260    1.7540    3.0080 hc        1 E04      0.101500
     39 H232        0.3350    0.3830    3.4120 hc        1 E04      0.101500
     40 H181        1.9890    0.6480    0.2170 hc        1 E04      0.078667
     41 H182        1.9630    0.5760    1.8090 hc        1 E04      0.078667
     42 H183        1.6630    1.9550    1.0690 hc        1 E04      0.078667
     43 H14        -1.5900    1.1700   -0.3400 hc        1 E04      0.109000
     44 H151       -0.8440    3.0670   -0.8910 hc        1 E04      0.085500
     45 H152        0.6650    2.6430   -0.5250 hc        1 E04      0.085500
     46 H161        0.1470    3.3840    1.6590 hc        1 E04      0.092500
     47 H162       -1.4370    3.2890    1.3850 hc        1 E04      0.092500
     48 H8         -0.6880    0.8120   -2.4480 hc        1 E04      0.089000
     49 H9         -1.2250   -1.1990   -1.6090 hc        1 E04      0.100000
     50 H111        0.1600   -2.5500   -0.1410 hc        1 E04      0.084000
     51 H112        1.3660   -1.5270   -0.2710 hc        1 E04      0.084000
     52 H121        0.4050   -1.1360    1.8680 hc        1 E04      0.093000
     53 H122       -1.0710   -1.0240    1.2260 hc        1 E04      0.093000
     54 H1         -0.7690   -3.5170   -2.5680 ha        1 E04      0.136000
     55 H2          0.1170   -4.6210   -4.5100 ha        1 E04      0.132000
     56 H281        0.8590   -5.2380   -7.1580 hn        1 E04      0.225500
     57 H282        2.0330   -5.8350   -6.2860 hn        1 E04      0.225500
     58 H4          2.6080   -1.3340   -5.2740 ha        1 E04      0.155000
     59 H61         1.6590    1.0150   -3.9640 hc        1 E04      0.093000
     60 H62         2.8250    0.4490   -3.0590 hc        1 E04      0.093000
     61 H71         1.7890    0.8190   -1.2550 hc        1 E04      0.086500
     62 H72         1.1650    1.9670   -2.1450 hc        1 E04      0.086500
@<TRIPOS>BOND
     1    1    2 1   
     2    2    9 1   
     3    3    4 1   
     4    3    5 1   
     5    3    6 1   
     6    4   30 1   
     7    4   31 1   
     8    4   32 1   
     9    5   33 1   
    10    5   34 1   
    11    5   35 1   
    12    6    7 1   
    13    6   36 1   
    14    6   37 1   
    15    7    8 1   
    16    7   38 1   
    17    7   39 1   
    18    8    9 1   
    19    8   10 1   
    20    8   14 1   
    21   10   11 1   
    22   10   12 1   
    23   10   18 1   
    24   11   40 1   
    25   11   41 1   
    26   11   42 1   
    27   12   13 1   
    28   12   15 1   
    29   12   43 1   
    30   13   14 1   
    31   13   44 1   
    32   13   45 1   
    33   14   46 1   
    34   14   47 1   
    35   15   16 1   
    36   15   29 1   
    37   15   48 1   
    38   16   17 1   
    39   16   19 1   
    40   16   49 1   
    41   17   18 1   
    42   17   50 1   
    43   17   51 1   
    44   18   52 1   
    45   18   53 1   
    46   19   20 1   
    47   19   27 1   
    48   20   21 1   
    49   20   54 1   
    50   21   55 1   
    51   22   23 1   
    52   22   26 1   
    53   23   24 1   
    54   23   25 1   
    55   25   56 1   
    56   25   57 1   
    57   26   58 1   
    58   27   28 1   
    59   28   29 1   
    60   28   59 1   
    61   28   60 1   
    62   29   61 1   
    63   29   62 1   
@<TRIPOS>SUBSTRUCTURE
     1 E04         1 TEMP              0 ****  ****    0 ROOT
