@<TRIPOS>MOLECULE
E04
   63    67     1     0     0
SMALL
bcc


@<TRIPOS>ATOM
      1 O26         0.4200    1.0970   -0.0620 o         1 E04     -0.575500
      2 C20         1.4090    0.3700    0.0630 c         1 E04      0.720600
      3 C21         2.0430   -0.0200    1.3810 c3        1 E04     -0.120000
      4 C25         0.9420   -0.5280    2.3070 c3        1 E04     -0.089100
      5 C24         2.6600    1.2380    1.9840 c3        1 E04     -0.089100
      6 C22         3.1040   -1.1010    1.2090 c3        1 E04     -0.081400
      7 C23         3.8800   -0.9110   -0.0740 c3        1 E04     -0.105400
      8 C17         2.9630   -0.9500   -1.2870 c3        1 E04      0.172800
      9 O19         1.8930   -0.0030   -1.1670 os        1 E04     -0.417900
     10 C13         3.7030   -0.6290   -2.6310 c3        1 E04     -0.045000
     11 C18         2.6790   -0.0660   -3.6090 c3        1 E04     -0.082100
     12 C14         4.2180   -2.0300   -3.0340 c3        1 E04     -0.067700
     13 C15         3.0440   -2.9570   -2.7580 c3        1 E04     -0.070400
     14 C16         2.3580   -2.3600   -1.5300 c3        1 E04     -0.100400
     15 C8          4.8150   -2.0100   -4.4250 c3        1 E04     -0.047700
     16 C9          6.0140   -1.0450   -4.4220 c3        1 E04     -0.039400
     17 C11         5.6400    0.3370   -3.8950 c3        1 E04     -0.070400
     18 C12         4.9080    0.2930   -2.5620 c3        1 E04     -0.067400
     19 C10         6.6490   -1.0130   -5.7770 ca        1 E04      0.034700
     20 C1          7.3860    0.1090   -6.1990 ca        1 E04     -0.128000
     21 C2          8.0160    0.1410   -7.4330 ca        1 E04     -0.094000
     22 C3          7.9260   -0.9690   -8.2900 ca        1 E04     -0.220600
     23 C27         8.5480   -1.0410   -9.5990 c         1 E04      0.580700
     24 O29         8.5970   -1.9640  -10.4000 o         1 E04     -0.426100
     25 N28         9.2550    0.2160  -10.0970 n4        1 E04     -0.764400
     26 C4          7.1960   -2.0990   -7.8780 ca        1 E04     -0.036000
     27 C5          6.5580   -2.1270   -6.6350 ca        1 E04     -0.070300
     28 C6          5.7760   -3.3490   -6.2920 c3        1 E04     -0.046100
     29 C7          5.2930   -3.3840   -4.8590 c3        1 E04     -0.081400
     30 H251        0.1630    0.2620    2.4390 hc        1 E04      0.051533
     31 H252        1.3770   -0.7840    3.3020 hc        1 E04      0.051533
     32 H253        0.4580   -1.4380    1.8790 hc        1 E04      0.051533
     33 H241        1.8910    2.0470    2.0460 hc        1 E04      0.051533
     34 H242        3.0370    1.0180    3.0110 hc        1 E04      0.051533
     35 H243        3.5110    1.5980    1.3570 hc        1 E04      0.051533
     36 H221        3.8080   -1.0670    2.0820 hc        1 E04      0.058700
     37 H222        2.6160   -2.1110    1.2190 hc        1 E04      0.058700
     38 H231        4.6560   -1.7130   -0.1730 hc        1 E04      0.059200
     39 H232        4.4050    0.0800   -0.0380 hc        1 E04      0.059200
     40 H181        3.1060    0.0580   -4.6310 hc        1 E04      0.046700
     41 H182        1.7920   -0.7420   -3.6680 hc        1 E04      0.046700
     42 H183        2.3300    0.9340   -3.2500 hc        1 E04      0.046700
     43 H14         5.0450   -2.3140   -2.3180 hc        1 E04      0.048700
     44 H151        3.3880   -4.0020   -2.5630 hc        1 E04      0.050700
     45 H152        2.3430   -2.9850   -3.6300 hc        1 E04      0.050700
     46 H161        1.2570   -2.2650   -1.6990 hc        1 E04      0.064200
     47 H162        2.5180   -3.0140   -0.6380 hc        1 E04      0.064200
     48 H8          4.0460   -1.6510   -5.1630 hc        1 E04      0.069700
     49 H9          6.7930   -1.4740   -3.7200 hc        1 E04      0.080700
     50 H111        5.0140    0.8720   -4.6550 hc        1 E04      0.045700
     51 H112        6.5770    0.9390   -3.7430 hc        1 E04      0.045700
     52 H121        5.6210   -0.0630   -1.7720 hc        1 E04      0.054700
     53 H122        4.5800    1.3300   -2.2880 hc        1 E04      0.054700
     54 H1          7.4700    0.9890   -5.5390 ha        1 E04      0.167000
     55 H2          8.5800    1.0450   -7.7050 ha        1 E04      0.120000
     56 H281       10.0310    0.4480   -9.4720 hn        1 E04      0.465800
     57 H282        8.5970    0.9990  -10.1150 hn        1 E04      0.465800
     58 H4          7.1250   -2.9750   -8.5470 ha        1 E04      0.169000
     59 H61         4.8890   -3.3960   -6.9840 hc        1 E04      0.069200
     60 H62         6.4020   -4.2600   -6.4960 hc        1 E04      0.069200
     61 H71         4.4510   -4.1210   -4.7680 hc        1 E04      0.061700
     62 H72         6.1160   -3.7340   -4.1820 hc        1 E04      0.061700
     63 H283        9.6200    0.0560  -11.0440 hn        1 E04      0.465800
@<TRIPOS>BOND
     1    1    2 2   
     2    2    3 1   
     3    2    9 1   
     4    3    4 1   
     5    3    5 1   
     6    3    6 1   
     7    4   30 1   
     8    4   31 1   
     9    4   32 1   
    10    5   33 1   
    11    5   34 1   
    12    5   35 1   
    13    6    7 1   
    14    6   36 1   
    15    6   37 1   
    16    7    8 1   
    17    7   38 1   
    18    7   39 1   
    19    8    9 1   
    20    8   10 1   
    21    8   14 1   
    22   10   11 1   
    23   10   12 1   
    24   10   18 1   
    25   11   40 1   
    26   11   41 1   
    27   11   42 1   
    28   12   13 1   
    29   12   15 1   
    30   12   43 1   
    31   13   14 1   
    32   13   44 1   
    33   13   45 1   
    34   14   46 1   
    35   14   47 1   
    36   15   16 1   
    37   15   29 1   
    38   15   48 1   
    39   16   17 1   
    40   16   19 1   
    41   16   49 1   
    42   17   18 1   
    43   17   50 1   
    44   17   51 1   
    45   18   52 1   
    46   18   53 1   
    47   19   20 ar  
    48   19   27 ar  
    49   20   21 ar  
    50   20   54 1   
    51   21   22 ar  
    52   21   55 1   
    53   22   23 1   
    54   22   26 ar  
    55   23   24 2   
    56   23   25 1   
    57   25   56 1   
    58   25   57 1   
    59   25   63 1   
    60   26   27 ar  
    61   26   58 1   
    62   27   28 1   
    63   28   29 1   
    64   28   59 1   
    65   28   60 1   
    66   29   61 1   
    67   29   62 1   
@<TRIPOS>SUBSTRUCTURE
     1 E04         1 TEMP              0 ****  ****    0 ROOT
