@<TRIPOS>MOLECULE
E04
   63    67     1     0     0
SMALL
bcc


@<TRIPOS>ATOM
      1 O26         0.4260    1.1040   -0.0580 o         1 E04     -0.575500
      2 C20         1.4140    0.3770    0.0660 c         1 E04      0.720600
      3 C21         2.0490   -0.0130    1.3830 c3        1 E04     -0.120000
      4 C25         0.9500   -0.5190    2.3110 c3        1 E04     -0.089100
      5 C24         2.6690    1.2460    1.9840 c3        1 E04     -0.089100
      6 C22         3.1100   -1.0950    1.2100 c3        1 E04     -0.081400
      7 C23         3.8840   -0.9070   -0.0740 c3        1 E04     -0.105400
      8 C17         2.9650   -0.9450   -1.2860 c3        1 E04      0.172800
      9 O19         1.8970    0.0020   -1.1650 os        1 E04     -0.417900
     10 C13         3.7040   -0.6270   -2.6310 c3        1 E04     -0.045000
     11 C18         2.6790   -0.0630   -3.6070 c3        1 E04     -0.082100
     12 C14         4.2160   -2.0290   -3.0340 c3        1 E04     -0.067700
     13 C15         3.0410   -2.9540   -2.7550 c3        1 E04     -0.070400
     14 C16         2.3590   -2.3550   -1.5260 c3        1 E04     -0.100400
     15 C8          4.8120   -2.0110   -4.4250 c3        1 E04     -0.047700
     16 C9          6.0120   -1.0470   -4.4240 c3        1 E04     -0.039400
     17 C11         5.6410    0.3360   -3.8980 c3        1 E04     -0.070400
     18 C12         4.9100    0.2940   -2.5640 c3        1 E04     -0.067400
     19 C10         6.6450   -1.0170   -5.7790 ca        1 E04      0.034700
     20 C1          7.3840    0.1030   -6.2030 ca        1 E04     -0.128000
     21 C2          8.0130    0.1330   -7.4380 ca        1 E04     -0.094000
     22 C3          7.9210   -0.9780   -8.2940 ca        1 E04     -0.220600
     23 C27         8.5410   -1.0520   -9.6040 c         1 E04      0.580700
     24 O29         8.5870   -1.9760  -10.4040 o         1 E04     -0.426100
     25 N28         9.2520    0.2030  -10.1020 n4        1 E04     -0.764400
     26 C4          7.1900   -2.1060   -7.8800 ca        1 E04     -0.036000
     27 C5          6.5520   -2.1320   -6.6360 ca        1 E04     -0.070300
     28 C6          5.7690   -3.3530   -6.2920 c3        1 E04     -0.046100
     29 C7          5.2880   -3.3860   -4.8580 c3        1 E04     -0.081400
     30 H251        0.1720    0.2720    2.4440 hc        1 E04      0.051533
     31 H252        1.3860   -0.7750    3.3060 hc        1 E04      0.051533
     32 H253        0.4640   -1.4290    1.8850 hc        1 E04      0.051533
     33 H241        1.9010    2.0550    2.0470 hc        1 E04      0.051533
     34 H242        3.5190    1.6040    1.3560 hc        1 E04      0.051533
     35 H243        3.0470    1.0260    3.0110 hc        1 E04      0.051533
     36 H221        3.8150   -1.0610    2.0820 hc        1 E04      0.058700
     37 H222        2.6210   -2.1050    1.2220 hc        1 E04      0.058700
     38 H231        4.4100    0.0840   -0.0400 hc        1 E04      0.059200
     39 H232        4.6590   -1.7100   -0.1730 hc        1 E04      0.059200
     40 H181        1.7910   -0.7380   -3.6650 hc        1 E04      0.046700
     41 H182        2.3320    0.9380   -3.2490 hc        1 E04      0.046700
     42 H183        3.1050    0.0590   -4.6300 hc        1 E04      0.046700
     43 H14         5.0440   -2.3130   -2.3180 hc        1 E04      0.048700
     44 H151        2.3400   -2.9820   -3.6260 hc        1 E04      0.050700
     45 H152        3.3850   -4.0000   -2.5590 hc        1 E04      0.050700
     46 H161        2.5200   -3.0090   -0.6340 hc        1 E04      0.064200
     47 H162        1.2570   -2.2590   -1.6940 hc        1 E04      0.064200
     48 H8          4.0420   -1.6510   -5.1620 hc        1 E04      0.069700
     49 H9          6.7910   -1.4760   -3.7220 hc        1 E04      0.080700
     50 H111        6.5780    0.9370   -3.7480 hc        1 E04      0.045700
     51 H112        5.0140    0.8710   -4.6580 hc        1 E04      0.045700
     52 H121        4.5830    1.3310   -2.2910 hc        1 E04      0.054700
     53 H122        5.6240   -0.0620   -1.7750 hc        1 E04      0.054700
     54 H1          7.4700    0.9840   -5.5450 ha        1 E04      0.167000
     55 H2          8.5780    1.0360   -7.7110 ha        1 E04      0.120000
     56 H281        8.5960    0.9880  -10.1210 hn        1 E04      0.465800
     57 H282        9.6170    0.0410  -11.0490 hn        1 E04      0.465800
     58 H4          7.1170   -2.9830   -8.5490 ha        1 E04      0.169000
     59 H61         4.8810   -3.3990   -6.9830 hc        1 E04      0.069200
     60 H62         6.3930   -4.2650   -6.4960 hc        1 E04      0.069200
     61 H71         6.1110   -3.7360   -4.1810 hc        1 E04      0.061700
     62 H72         4.4450   -4.1210   -4.7650 hc        1 E04      0.061700
     63 H283       10.0280    0.4330   -9.4770 hn        1 E04      0.465800
@<TRIPOS>BOND
     1    1    2 2   
     2    2    3 1   
     3    2    9 1   
     4    3    4 1   
     5    3    5 1   
     6    3    6 1   
     7    4   30 1   
     8    4   31 1   
     9    4   32 1   
    10    5   33 1   
    11    5   34 1   
    12    5   35 1   
    13    6    7 1   
    14    6   36 1   
    15    6   37 1   
    16    7    8 1   
    17    7   38 1   
    18    7   39 1   
    19    8    9 1   
    20    8   10 1   
    21    8   14 1   
    22   10   11 1   
    23   10   12 1   
    24   10   18 1   
    25   11   40 1   
    26   11   41 1   
    27   11   42 1   
    28   12   13 1   
    29   12   15 1   
    30   12   43 1   
    31   13   14 1   
    32   13   44 1   
    33   13   45 1   
    34   14   46 1   
    35   14   47 1   
    36   15   16 1   
    37   15   29 1   
    38   15   48 1   
    39   16   17 1   
    40   16   19 1   
    41   16   49 1   
    42   17   18 1   
    43   17   50 1   
    44   17   51 1   
    45   18   52 1   
    46   18   53 1   
    47   19   20 ar  
    48   19   27 ar  
    49   20   21 ar  
    50   20   54 1   
    51   21   22 ar  
    52   21   55 1   
    53   22   23 1   
    54   22   26 ar  
    55   23   24 2   
    56   23   25 1   
    57   25   56 1   
    58   25   57 1   
    59   25   63 1   
    60   26   27 ar  
    61   26   58 1   
    62   27   28 1   
    63   28   29 1   
    64   28   59 1   
    65   28   60 1   
    66   29   61 1   
    67   29   62 1   
@<TRIPOS>SUBSTRUCTURE
     1 E04         1 TEMP              0 ****  ****    0 ROOT
