@<TRIPOS>MOLECULE
E04
   63    67     1     0     0
SMALL
bcc


@<TRIPOS>ATOM
      1 O26         0.4300    1.1020   -0.0570 o         1 E04     -0.575500
      2 C20         1.4150    0.3710    0.0660 c         1 E04      0.720600
      3 C21         2.0460   -0.0260    1.3830 c3        1 E04     -0.120000
      4 C25         0.9430   -0.5320    2.3070 c3        1 E04     -0.089100
      5 C24         2.6690    1.2280    1.9900 c3        1 E04     -0.089100
      6 C22         3.1030   -1.1100    1.2080 c3        1 E04     -0.081400
      7 C23         3.8810   -0.9200   -0.0730 c3        1 E04     -0.105400
      8 C17         2.9640   -0.9510   -1.2870 c3        1 E04      0.172800
      9 O19         1.8990   -0.0010   -1.1650 os        1 E04     -0.417900
     10 C13         3.7070   -0.6290   -2.6300 c3        1 E04     -0.045000
     11 C18         2.6860   -0.0590   -3.6060 c3        1 E04     -0.082100
     12 C14         4.2160   -2.0310   -3.0370 c3        1 E04     -0.067700
     13 C15         3.0380   -2.9540   -2.7640 c3        1 E04     -0.070400
     14 C16         2.3540   -2.3580   -1.5340 c3        1 E04     -0.100400
     15 C8          4.8140   -2.0100   -4.4270 c3        1 E04     -0.047700
     16 C9          6.0170   -1.0490   -4.4200 c3        1 E04     -0.039400
     17 C11         5.6490    0.3330   -3.8890 c3        1 E04     -0.070400
     18 C12         4.9150    0.2880   -2.5570 c3        1 E04     -0.067400
     19 C10         6.6530   -1.0150   -5.7740 ca        1 E04      0.034700
     20 C1          7.3950    0.1050   -6.1920 ca        1 E04     -0.128000
     21 C2          8.0260    0.1380   -7.4260 ca        1 E04     -0.094000
     22 C3          7.9330   -0.9700   -8.2870 ca        1 E04     -0.220600
     23 C27         8.5550   -1.0400   -9.5950 c         1 E04      0.580700
     24 O29         8.6010   -1.9610  -10.3990 o         1 E04     -0.426100
     25 N28         9.2690    0.2160  -10.0890 nz        1 E04     -0.764400
     26 C4          7.1980   -2.0970   -7.8780 ca        1 E04     -0.036000
     27 C5          6.5580   -2.1260   -6.6360 ca        1 E04     -0.070300
     28 C6          5.7710   -3.3470   -6.2970 c3        1 E04     -0.046100
     29 C7          5.2870   -3.3840   -4.8640 c3        1 E04     -0.081400
     30 H251        1.3770   -0.7930    3.3010 hc        1 E04      0.051533
     31 H252        0.1670    0.2610    2.4410 hc        1 E04      0.051533
     32 H253        0.4550   -1.4390    1.8760 hc        1 E04      0.051533
     33 H241        1.9030    2.0400    2.0550 hc        1 E04      0.051533
     34 H242        3.0440    1.0040    3.0170 hc        1 E04      0.051533
     35 H243        3.5210    1.5860    1.3650 hc        1 E04      0.051533
     36 H221        3.8070   -1.0820    2.0820 hc        1 E04      0.058700
     37 H222        2.6110   -2.1190    1.2150 hc        1 E04      0.058700
     38 H231        4.4100    0.0690   -0.0340 hc        1 E04      0.059200
     39 H232        4.6540   -1.7250   -0.1740 hc        1 E04      0.059200
     40 H181        3.1140    0.0660   -4.6280 hc        1 E04      0.046700
     41 H182        1.7960   -0.7310   -3.6680 hc        1 E04      0.046700
     42 H183        2.3400    0.9410   -3.2440 hc        1 E04      0.046700
     43 H14         5.0410   -2.3200   -2.3210 hc        1 E04      0.048700
     44 H151        2.3380   -2.9770   -3.6370 hc        1 E04      0.050700
     45 H152        3.3780   -4.0010   -2.5720 hc        1 E04      0.050700
     46 H161        2.5110   -3.0150   -0.6450 hc        1 E04      0.064200
     47 H162        1.2530   -2.2580   -1.7040 hc        1 E04      0.064200
     48 H8          4.0470   -1.6450   -5.1640 hc        1 E04      0.069700
     49 H9          6.7940   -1.4830   -3.7180 hc        1 E04      0.080700
     50 H111        5.0250    0.8730   -4.6480 hc        1 E04      0.045700
     51 H112        6.5870    0.9300   -3.7350 hc        1 E04      0.045700
     52 H121        4.5910    1.3250   -2.2800 hc        1 E04      0.054700
     53 H122        5.6270   -0.0730   -1.7680 hc        1 E04      0.054700
     54 H1          7.4830    0.9830   -5.5300 ha        1 E04      0.167000
     55 H2          8.5940    1.0400   -7.6950 ha        1 E04      0.120000
     56 H281        8.6140    1.0020  -10.1050 hn        1 E04      0.465800
     57 H282        9.6330    0.0570  -11.0360 hn        1 E04      0.465800
     58 H4          7.1240   -2.9710   -8.5500 ha        1 E04      0.169000
     59 H61         4.8840   -3.3880   -6.9900 hc        1 E04      0.069200
     60 H62         6.3940   -4.2600   -6.5040 hc        1 E04      0.069200
     61 H71         4.4420   -4.1170   -4.7760 hc        1 E04      0.061700
     62 H72         6.1080   -3.7390   -4.1880 hc        1 E04      0.061700
     63 H283       10.0450    0.4420   -9.4620 hn        1 E04      0.465800
@<TRIPOS>BOND
     1    1    2 2   
     2    2    3 1   
     3    2    9 1   
     4    3    4 1   
     5    3    5 1   
     6    3    6 1   
     7    4   30 1   
     8    4   31 1   
     9    4   32 1   
    10    5   33 1   
    11    5   34 1   
    12    5   35 1   
    13    6    7 1   
    14    6   36 1   
    15    6   37 1   
    16    7    8 1   
    17    7   38 1   
    18    7   39 1   
    19    8    9 1   
    20    8   10 1   
    21    8   14 1   
    22   10   11 1   
    23   10   12 1   
    24   10   18 1   
    25   11   40 1   
    26   11   41 1   
    27   11   42 1   
    28   12   13 1   
    29   12   15 1   
    30   12   43 1   
    31   13   14 1   
    32   13   44 1   
    33   13   45 1   
    34   14   46 1   
    35   14   47 1   
    36   15   16 1   
    37   15   29 1   
    38   15   48 1   
    39   16   17 1   
    40   16   19 1   
    41   16   49 1   
    42   17   18 1   
    43   17   50 1   
    44   17   51 1   
    45   18   52 1   
    46   18   53 1   
    47   19   20 ar  
    48   19   27 ar  
    49   20   21 ar  
    50   20   54 1   
    51   21   22 ar  
    52   21   55 1   
    53   22   23 1   
    54   22   26 ar  
    55   23   24 2   
    56   23   25 1   
    57   25   56 1   
    58   25   57 1   
    59   25   63 1   
    60   26   27 ar  
    61   26   58 1   
    62   27   28 1   
    63   28   29 1   
    64   28   59 1   
    65   28   60 1   
    66   29   61 1   
    67   29   62 1   
@<TRIPOS>SUBSTRUCTURE
     1 E04         1 TEMP              0 ****  ****    0 ROOT
