@<TRIPOS>MOLECULE
E09
   39    35     1     0     0
SMALL
bcc


@<TRIPOS>ATOM
      1 C1         -2.7310    0.0920   -1.8540 c1        1 E09     -0.003000
      2 C2         -1.2350    0.1060   -1.9030 c1        1 E09      0.328000
      3 C3         -0.4150    0.2370   -0.5890 c2        1 E09     -0.184000
      4 C4         -1.0770    0.3420    0.6480 c1        1 E09     -0.111000
      5 C5         -3.4240    0.2020   -0.5580 c1        1 E09     -0.237000
      6 C6         -2.6310    0.3270    0.7040 c1        1 E09      0.332000
      7 O8         -0.6600   -0.0010   -2.9720 o         1 E09     -0.292000
      8 O9         -3.2020    0.4090    1.7780 o         1 E09     -0.299000
      9 N1         -3.4830   -0.1360   -3.0510 n3        1 E09     -0.162000
     10 C11        -4.4300    0.3350   -4.0590 cx        1 E09     -0.149000
     11 C12        -4.0790   -1.0600   -4.0150 cx        1 E09     -0.149000
     12 C17         0.9370    0.2760   -0.3490 c1        1 E09     -0.111000
     13 C18         1.1270    0.4040    1.0320 c1        1 E09     -0.058000
     14 N19        -0.1200    0.4440    1.6360 n2        1 E09     -0.058000
     15 C20         1.9550    0.5540   -1.4590 c2        1 E09      0.044000
     16 O21         1.6480    1.7880   -2.0820 oh        1 E09     -0.325000
     17 C25         2.4480    0.4530    1.8170 c2        1 E09     -0.106000
     18 C26         2.9240   -0.9780    2.1090 c3        1 E09     -0.164000
     19 C7          4.2430   -0.9300    2.8890 c3        1 E09     -0.019000
     20 C31        -0.6080    0.6100    2.9790 c2        1 E09     -0.103000
     21 O1          4.6490   -2.2460    3.2130 oh        1 E09     -0.327000
     22 H51        -4.4040    0.1920   -0.5230 ha        1 E09      0.162000
     23 H111       -4.0420    0.8480   -4.8010 h1        1 E09      0.129750
     24 H112       -5.3280    0.5580   -3.7290 h1        1 E09      0.129750
     25 H121       -4.7690   -1.6610   -3.6580 h1        1 E09      0.129750
     26 H122       -3.4820   -1.3710   -4.7300 h1        1 E09      0.129750
     27 H201        2.8560    0.5970   -1.0740 h4        1 E09      0.093000
     28 H202        1.9170   -0.1680   -2.1260 h4        1 E09      0.093000
     29 H21         2.3220    2.0260   -2.6180 ho        1 E09      0.218000
     30 H251        3.1290    0.9230    1.2840 ha        1 E09      0.102000
     31 H252        2.3080    0.9310    2.6650 ha        1 E09      0.102000
     32 H261        2.2450   -1.4470    2.6430 hc        1 E09      0.101000
     33 H262        3.0620   -1.4570    1.2620 hc        1 E09      0.101000
     34 H71         4.9340   -0.5000    2.3380 h1        1 E09      0.061500
     35 H72         4.1160   -0.4140    3.7160 h1        1 E09      0.061500
     36 H311       -1.1810   -0.1530    3.2160 ha        1 E09      0.112000
     37 H312        0.1510    0.6540    3.6000 ha        1 E09      0.112000
     38 H313       -1.1290    1.4420    3.0380 ha        1 E09      0.112000
     39 HO1         5.4590   -2.2250    3.5830 ho        1 E09      0.202000
@<TRIPOS>BOND
     1    1    5 1   
     2    1    9 1   
     3    2    3 1   
     4    2    7 1   
     5    3    4 1   
     6    3   12 1   
     7    4   14 1   
     8    5   22 1   
     9    6    8 1   
    10    9   10 1   
    11    9   11 1   
    12   10   11 1   
    13   10   23 1   
    14   10   24 1   
    15   11   25 1   
    16   11   26 1   
    17   12   13 1   
    18   13   14 1   
    19   15   16 1   
    20   15   27 1   
    21   15   28 1   
    22   16   29 1   
    23   17   18 1   
    24   17   30 1   
    25   17   31 1   
    26   18   19 1   
    27   18   32 1   
    28   18   33 1   
    29   19   21 1   
    30   19   34 1   
    31   19   35 1   
    32   20   36 1   
    33   20   37 1   
    34   20   38 1   
    35   21   39 1   
@<TRIPOS>SUBSTRUCTURE
     1 E09         1 TEMP              0 ****  ****    0 ROOT
