@<TRIPOS>MOLECULE
E09
   39    41     1     0     0
SMALL
bcc


@<TRIPOS>ATOM
      1 C1         -0.0010   -0.1980   -0.0750 cc        1 E09      0.059800
      2 C2          1.5000   -0.0310   -0.1580 c         1 E09      0.604900
      3 C3          2.1820   -0.0550    1.1230 cc        1 E09     -0.194600
      4 C4          1.4800   -0.0710    2.3560 cd        1 E09     -0.162900
      5 C5         -0.6470   -0.1630    1.1210 cd        1 E09     -0.260200
      6 C6          0.0170   -0.0700    2.4260 c         1 E09      0.611900
      7 O8          2.0750    0.1440   -1.2390 o         1 E09     -0.519100
      8 O9         -0.6210   -0.0040    3.4870 o         1 E09     -0.540100
      9 N1         -0.6790   -0.5120   -1.2660 nh        1 E09     -0.561400
     10 C11        -1.8430    0.2380   -1.7190 cx        1 E09      0.087300
     11 C12        -0.5530    0.2850   -2.4770 cx        1 E09      0.087300
     12 C17         3.5780   -0.0550    1.4270 cc        1 E09     -0.135300
     13 C18         3.6900   -0.0770    2.8380 cd        1 E09     -0.082600
     14 N19         2.4050   -0.0870    3.3920 na        1 E09      0.009900
     15 C20         4.6850    0.0050    0.4480 c3        1 E09      0.188700
     16 O21         5.7740   -0.8370    0.7820 oh        1 E09     -0.602800
     17 C25         4.9410   -0.0870    3.6320 c3        1 E09     -0.021100
     18 C26         5.3120   -1.4860    4.0840 c3        1 E09     -0.079400
     19 C7          6.6160   -1.4560    4.8650 c3        1 E09      0.131400
     20 C31         2.1180   -0.0690    4.7930 c3        1 E09     -0.004400
     21 O1          6.8260   -2.7670    5.3660 oh        1 E09     -0.600800
     22 H51        -1.7480   -0.2360    1.1780 ha        1 E09      0.162000
     23 H111       -2.1860    1.1300   -1.1530 h1        1 E09      0.090450
     24 H112       -2.6920   -0.3840   -2.0720 h1        1 E09      0.090450
     25 H121        0.0670    1.2060   -2.4760 h1        1 E09      0.090450
     26 H122       -0.4140   -0.3070   -3.4070 h1        1 E09      0.090450
     27 H201        4.3000   -0.2470   -0.5800 h1        1 E09      0.069200
     28 H202        5.1330    1.0390    0.4310 h1        1 E09      0.069200
     29 H21         5.4410   -1.7420    0.8020 ho        1 E09      0.403000
     30 H251        4.8420    0.5890    4.5250 hc        1 E09      0.067200
     31 H252        5.7610    0.3180    2.9760 hc        1 E09      0.067200
     32 H261        4.5060   -1.9250    4.7260 hc        1 E09      0.058700
     33 H262        5.4320   -2.1530    3.1900 hc        1 E09      0.058700
     34 H71         7.4670   -1.1520    4.1980 h1        1 E09      0.023700
     35 H72         6.5500   -0.7310    5.7220 h1        1 E09      0.023700
     36 H311        1.0130   -0.1940    4.9620 h1        1 E09      0.072700
     37 H312        2.6720   -0.9030    5.3020 h1        1 E09      0.072700
     38 H313        2.4510    0.9100    5.2340 h1        1 E09      0.072700
     39 HO1         7.7000   -2.7690    5.7720 ho        1 E09      0.402000
@<TRIPOS>BOND
     1    1    2 1   
     2    1    5 2   
     3    1    9 1   
     4    2    3 1   
     5    2    7 2   
     6    3    4 2   
     7    3   12 1   
     8    4    6 1   
     9    4   14 1   
    10    5    6 1   
    11    5   22 1   
    12    6    8 2   
    13    9   10 1   
    14    9   11 1   
    15   10   11 1   
    16   10   23 1   
    17   10   24 1   
    18   11   25 1   
    19   11   26 1   
    20   12   13 2   
    21   12   15 1   
    22   13   14 1   
    23   13   17 1   
    24   14   20 1   
    25   15   16 1   
    26   15   27 1   
    27   15   28 1   
    28   16   29 1   
    29   17   18 1   
    30   17   30 1   
    31   17   31 1   
    32   18   19 1   
    33   18   32 1   
    34   18   33 1   
    35   19   21 1   
    36   19   34 1   
    37   19   35 1   
    38   20   36 1   
    39   20   37 1   
    40   20   38 1   
    41   21   39 1   
@<TRIPOS>SUBSTRUCTURE
     1 E09         1 TEMP              0 ****  ****    0 ROOT
