@<TRIPOS>MOLECULE
E09
   39    41     1     0     0
SMALL
bcc


@<TRIPOS>ATOM
      1 C1          0.0030   -0.2530   -0.0830 cc        1 E09      0.059800
      2 C2          1.4990   -0.0370   -0.1560 c         1 E09      0.604900
      3 C3          2.1760   -0.0590    1.1260 cc        1 E09     -0.194600
      4 C4          1.4700   -0.1170    2.3560 cd        1 E09     -0.162900
      5 C5         -0.6490   -0.2580    1.1100 cd        1 E09     -0.260200
      6 C6          0.0070   -0.1640    2.4200 c         1 E09      0.611900
      7 O8          2.0710    0.1740   -1.2320 o         1 E09     -0.519100
      8 O9         -0.6360   -0.1350    3.4780 o         1 E09     -0.540100
      9 N1         -0.6600   -0.5700   -1.2810 nh        1 E09     -0.561400
     10 C11        -1.8460    0.1500   -1.7280 cx        1 E09      0.087300
     11 C12        -0.5550    0.2490   -2.4800 cx        1 E09      0.087300
     12 C17         3.5700   -0.0200    1.4360 cc        1 E09     -0.135300
     13 C18         3.6770   -0.0600    2.8480 cd        1 E09     -0.082600
     14 N19         2.3910   -0.1190    3.3950 na        1 E09      0.009900
     15 C20         4.6780    0.0910    0.4640 c3        1 E09      0.188700
     16 O21         5.7920   -0.7220    0.7890 oh        1 E09     -0.602800
     17 C25         4.9240   -0.0420    3.6470 c3        1 E09     -0.021100
     18 C26         5.3390   -1.4350    4.0790 c3        1 E09     -0.079400
     19 C7          6.6380   -1.3760    4.8650 c3        1 E09      0.131400
     20 C31         2.0970   -0.1320    4.7960 c3        1 E09     -0.004400
     21 O1          6.8870   -2.6870    5.3470 oh        1 E09     -0.600800
     22 H51        -1.7470   -0.3670    1.1620 ha        1 E09      0.162000
     23 H111       -2.6730   -0.4940   -2.0950 h1        1 E09      0.090450
     24 H112       -2.2190    1.0210   -1.1500 h1        1 E09      0.090450
     25 H121        0.0350    1.1900   -2.4620 h1        1 E09      0.090450
     26 H122       -0.3940   -0.3230   -3.4180 h1        1 E09      0.090450
     27 H201        4.3050   -0.1560   -0.5700 h1        1 E09      0.069200
     28 H202        5.0940    1.1390    0.4660 h1        1 E09      0.069200
     29 H21         5.4870   -1.6380    0.7930 ho        1 E09      0.403000
     30 H251        4.8000    0.6160    4.5500 hc        1 E09      0.067200
     31 H252        5.7340    0.4000    3.0000 hc        1 E09      0.067200
     32 H261        5.4840   -2.0840    3.1750 hc        1 E09      0.058700
     33 H262        4.5450   -1.9110    4.7100 hc        1 E09      0.058700
     34 H71         7.4810   -1.0350    4.2080 h1        1 E09      0.023700
     35 H72         6.5450   -0.6680    5.7330 h1        1 E09      0.023700
     36 H311        0.9970   -0.2960    4.9570 h1        1 E09      0.072700
     37 H312        2.6770   -0.9560    5.2940 h1        1 E09      0.072700
     38 H313        2.3970    0.8510    5.2530 h1        1 E09      0.072700
     39 HO1         7.7590   -2.6680    5.7570 ho        1 E09      0.402000
@<TRIPOS>BOND
     1    1    2 1   
     2    1    5 2   
     3    1    9 1   
     4    2    3 1   
     5    2    7 2   
     6    3    4 2   
     7    3   12 1   
     8    4    6 1   
     9    4   14 1   
    10    5    6 1   
    11    5   22 1   
    12    6    8 2   
    13    9   10 1   
    14    9   11 1   
    15   10   11 1   
    16   10   23 1   
    17   10   24 1   
    18   11   25 1   
    19   11   26 1   
    20   12   13 2   
    21   12   15 1   
    22   13   14 1   
    23   13   17 1   
    24   14   20 1   
    25   15   16 1   
    26   15   27 1   
    27   15   28 1   
    28   16   29 1   
    29   17   18 1   
    30   17   30 1   
    31   17   31 1   
    32   18   19 1   
    33   18   32 1   
    34   18   33 1   
    35   19   21 1   
    36   19   34 1   
    37   19   35 1   
    38   20   36 1   
    39   20   37 1   
    40   20   38 1   
    41   21   39 1   
@<TRIPOS>SUBSTRUCTURE
     1 E09         1 TEMP              0 ****  ****    0 ROOT
