@<TRIPOS>MOLECULE
E09
   39    41     1     0     0
SMALL
bcc


@<TRIPOS>ATOM
      1 C1          0.1070   -0.1260   -3.0600 cc        1 E09      0.058800
      2 C2         -0.8980   -0.3390   -1.9480 c         1 E09      0.605900
      3 C3         -0.3240   -0.3990   -0.6170 cc        1 E09     -0.193600
      4 C4          1.0420   -0.1090   -0.3720 cd        1 E09     -0.165900
      5 C5          1.4020    0.1840   -2.7880 cd        1 E09     -0.259200
      6 C6          1.9800    0.2420   -1.4400 c         1 E09      0.609900
      7 O8         -2.1110   -0.4130   -2.1790 o         1 E09     -0.520100
      8 O9          3.1630    0.5530   -1.2390 o         1 E09     -0.539100
      9 N1         -0.3240   -0.3840   -4.3720 nh        1 E09     -0.561400
     10 C11        -0.1430    0.5770   -5.4530 cx        1 E09      0.087300
     11 C12        -1.5100    0.2340   -4.9480 cx        1 E09      0.087300
     12 C17        -0.9260   -0.7050    0.6420 cc        1 E09     -0.136300
     13 C18         0.0910   -0.5910    1.6230 cd        1 E09     -0.079600
     14 N19         1.2840   -0.2270    0.9910 na        1 E09      0.009900
     15 C20        -2.3300   -1.1150    0.8620 c3        1 E09      0.186700
     16 O21        -2.9230   -0.5010    1.9930 oh        1 E09     -0.603800
     17 C25        -0.0500   -0.8330    3.0770 c3        1 E09     -0.026100
     18 C26         0.1090    0.4350    3.8920 c3        1 E09     -0.082400
     19 C7         -0.1470    0.1480    5.3620 c3        1 E09      0.131400
     20 C31         2.5400    0.0070    1.6370 c3        1 E09      0.000600
     21 O1          0.1470    1.3420    6.0710 oh        1 E09     -0.601800
     22 H51         2.1240    0.3860   -3.5990 ha        1 E09      0.161000
     23 H111        0.2900    1.5770   -5.2420 h1        1 E09      0.090450
     24 H112        0.2400    0.1470   -6.4020 h1        1 E09      0.090450
     25 H121       -2.1690   -0.4640   -5.5080 h1        1 E09      0.090450
     26 H122       -2.0940    0.9730   -4.3600 h1        1 E09      0.090450
     27 H201       -2.9400   -0.8970   -0.0590 h1        1 E09      0.069700
     28 H202       -2.3820   -2.2170    1.0900 h1        1 E09      0.069700
     29 H21        -2.9090    0.4520    1.8420 ho        1 E09      0.403000
     30 H251       -1.0770   -1.2620    3.2500 hc        1 E09      0.070700
     31 H252        0.7030   -1.5980    3.4140 hc        1 E09      0.070700
     32 H261        1.1420    0.8550    3.7720 hc        1 E09      0.057700
     33 H262       -0.6130    1.2150    3.5370 hc        1 E09      0.057700
     34 H71        -1.2180   -0.1470    5.5250 h1        1 E09      0.024700
     35 H72         0.5170   -0.6810    5.7270 h1        1 E09      0.024700
     36 H311        2.6370   -0.6730    2.5250 h1        1 E09      0.072367
     37 H312        3.3800   -0.1850    0.9140 h1        1 E09      0.072367
     38 H313        2.5980    1.0750    1.9840 h1        1 E09      0.072367
     39 HO1        -0.0960    1.1830    6.9900 ho        1 E09      0.402000
@<TRIPOS>BOND
     1    1    2 1   
     2    1    5 2   
     3    1    9 1   
     4    2    3 1   
     5    2    7 2   
     6    3    4 2   
     7    3   12 1   
     8    4    6 1   
     9    4   14 1   
    10    5    6 1   
    11    5   22 1   
    12    6    8 2   
    13    9   10 1   
    14    9   11 1   
    15   10   11 1   
    16   10   23 1   
    17   10   24 1   
    18   11   25 1   
    19   11   26 1   
    20   12   13 2   
    21   12   15 1   
    22   13   14 1   
    23   13   17 1   
    24   14   20 1   
    25   15   16 1   
    26   15   27 1   
    27   15   28 1   
    28   16   29 1   
    29   17   18 1   
    30   17   30 1   
    31   17   31 1   
    32   18   19 1   
    33   18   32 1   
    34   18   33 1   
    35   19   21 1   
    36   19   34 1   
    37   19   35 1   
    38   20   36 1   
    39   20   37 1   
    40   20   38 1   
    41   21   39 1   
@<TRIPOS>SUBSTRUCTURE
     1 E09         1 TEMP              0 ****  ****    0 ROOT
