@<TRIPOS>MOLECULE
E09
   39    41     1     0     0
SMALL
bcc


@<TRIPOS>ATOM
      1 C1         -0.0010    0.3160   -0.0390 cc        1 E09      0.058800
      2 C2          1.5030    0.1920   -0.1580 c         1 E09      0.605900
      3 C3          2.2030    0.0850    1.1090 cc        1 E09     -0.193600
      4 C4          1.5140   -0.0640    2.3400 cd        1 E09     -0.165900
      5 C5         -0.6310    0.1330    1.1510 cd        1 E09     -0.259200
      6 C6          0.0530   -0.0920    2.4300 c         1 E09      0.609900
      7 O8          2.0630    0.1490   -1.2590 o         1 E09     -0.520100
      8 O9         -0.5650   -0.2770    3.4890 o         1 E09     -0.539100
      9 N1         -0.7000    0.7480   -1.1790 nh        1 E09     -0.561400
     10 C11        -1.8560    0.0300   -1.7000 cx        1 E09      0.087300
     11 C12        -0.5760    0.0960   -2.4740 cx        1 E09      0.087300
     12 C17         3.6020    0.0780    1.4010 cc        1 E09     -0.136300
     13 C18         3.7280   -0.0770    2.8040 cd        1 E09     -0.079600
     14 N19         2.4490   -0.1640    3.3630 na        1 E09      0.009900
     15 C20         4.6980    0.2560    0.4250 c3        1 E09      0.186700
     16 O21         5.7870   -0.6250    0.6390 oh        1 E09     -0.603800
     17 C25         4.9880   -0.1220    3.5810 c3        1 E09     -0.026100
     18 C26         5.2410   -1.4850    4.1940 c3        1 E09     -0.082400
     19 C7          6.5930   -1.5040    4.8890 c3        1 E09      0.131400
     20 C31         2.1480   -0.3450    4.7510 c3        1 E09      0.000600
     21 O1          6.6990   -2.7570    5.5460 oh        1 E09     -0.601800
     22 H51        -1.7320    0.1760    1.2280 ha        1 E09      0.161000
     23 H111       -2.7210    0.6710   -1.9720 h1        1 E09      0.090450
     24 H112       -2.1740   -0.9260   -1.2350 h1        1 E09      0.090450
     25 H121        0.0610   -0.8070   -2.5840 h1        1 E09      0.090450
     26 H122       -0.4610    0.7910   -3.3320 h1        1 E09      0.090450
     27 H201        5.1500    1.2820    0.5300 h1        1 E09      0.069700
     28 H202        4.3010    0.1300   -0.6210 h1        1 E09      0.069700
     29 H21         5.4510   -1.5240    0.5520 ho        1 E09      0.403000
     30 H251        5.8290    0.1310    2.8740 hc        1 E09      0.070700
     31 H252        4.9710    0.6600    4.3880 hc        1 E09      0.070700
     32 H261        5.2230   -2.2760    3.4000 hc        1 E09      0.057700
     33 H262        4.4400   -1.7380    4.9370 hc        1 E09      0.057700
     34 H71         7.4220   -1.3860    4.1410 h1        1 E09      0.024700
     35 H72         6.6630   -0.6750    5.6430 h1        1 E09      0.024700
     36 H311        1.1330    0.0820    4.9770 h1        1 E09      0.072367
     37 H312        2.9270    0.1710    5.3740 h1        1 E09      0.072367
     38 H313        2.1440   -1.4410    5.0000 h1        1 E09      0.072367
     39 HO1         7.5890   -2.8000    5.9150 ho        1 E09      0.402000
@<TRIPOS>BOND
     1    1    2 1   
     2    1    5 2   
     3    1    9 1   
     4    2    3 1   
     5    2    7 2   
     6    3    4 2   
     7    3   12 1   
     8    4    6 1   
     9    4   14 1   
    10    5    6 1   
    11    5   22 1   
    12    6    8 2   
    13    9   10 1   
    14    9   11 1   
    15   10   11 1   
    16   10   23 1   
    17   10   24 1   
    18   11   25 1   
    19   11   26 1   
    20   12   13 2   
    21   12   15 1   
    22   13   14 1   
    23   13   17 1   
    24   14   20 1   
    25   15   16 1   
    26   15   27 1   
    27   15   28 1   
    28   16   29 1   
    29   17   18 1   
    30   17   30 1   
    31   17   31 1   
    32   18   19 1   
    33   18   32 1   
    34   18   33 1   
    35   19   21 1   
    36   19   34 1   
    37   19   35 1   
    38   20   36 1   
    39   20   37 1   
    40   20   38 1   
    41   21   39 1   
@<TRIPOS>SUBSTRUCTURE
     1 E09         1 TEMP              0 ****  ****    0 ROOT
