@<TRIPOS>MOLECULE
E10
   78    81     1     0     0
SMALL
bcc


@<TRIPOS>ATOM
      1 C1         -0.0520   -0.2910   -0.1180 c         1 E10      0.684700
      2 N2          1.3660   -0.3940   -0.0630 ns        1 E10     -0.427100
      3 C3          2.0710   -0.1940    1.0900 cc        1 E10      0.168400
      4 C4          1.4140    0.0820    2.2880 cd        1 E10     -0.336200
      5 C5         -0.0090    0.2870    2.2640 cd        1 E10     -0.069000
      6 C6         -0.7180    0.1050    1.1260 cc        1 E10     -0.213200
      7 O7         -0.6070   -0.5320   -1.1970 o         1 E10     -0.552500
      8 C9          3.5730   -0.2490    1.0370 c3        1 E10     -0.079200
      9 C10         2.1300    0.2610    3.5790 c3        1 E10      0.234700
     10 C13         3.6560    0.1380    3.4920 c3        1 E10     -0.100400
     11 C14         4.1650    0.5960    2.1440 c3        1 E10     -0.074400
     12 N17         1.5780   -0.7520    4.5840 ny        1 E10     -0.777000
     13 C24         1.9120   -0.4060    5.9930 c3        1 E10      0.098800
     14 C29        -0.0740   -2.1220   22.9300 c         1 E10      0.684700
     15 N30         0.6610   -3.3310   22.7730 ns        1 E10     -0.427100
     16 C31         0.7260   -4.0000   21.5840 cc        1 E10      0.168400
     17 C32         0.0980   -3.4930   20.4470 cd        1 E10     -0.336200
     18 C33        -0.7310   -2.3260   20.5780 cd        1 E10     -0.069000
     19 C34        -0.8150   -1.6610   21.7530 cc        1 E10     -0.213200
     20 O35        -0.0390   -1.5640   24.0340 o         1 E10     -0.552500
     21 C36         1.4630   -5.3090   21.5310 c3        1 E10     -0.079200
     22 C37         0.1770   -4.1560   19.1180 c3        1 E10      0.234700
     23 C38         0.9890   -5.4570   19.0950 c3        1 E10     -0.100400
     24 C39         0.9070   -6.1760   20.4220 c3        1 E10     -0.074400
     25 N40         0.7550   -3.1580   18.1120 ny        1 E10     -0.777000
     26 C41         0.5030   -3.5540   16.6990 c3        1 E10      0.098800
     27 C63         1.3720   -1.4210    6.9950 c3        1 E10     -0.108400
     28 C64         1.7300   -0.9830    8.4020 c3        1 E10     -0.078400
     29 C65         1.1940   -1.9660    9.4230 c3        1 E10     -0.079400
     30 C66         1.5370   -1.5270   10.8320 c3        1 E10     -0.079400
     31 C67         0.9920   -2.5020   11.8550 c3        1 E10     -0.079400
     32 C68         1.3230   -2.0560   13.2640 c3        1 E10     -0.079400
     33 C69         0.7660   -3.0270   14.2860 c3        1 E10     -0.078400
     34 C70         1.0880   -2.5670   15.6950 c3        1 E10     -0.108400
     35 H2          1.8550   -0.5790   -0.9170 hn        1 E10      0.353500
     36 H5         -0.5140    0.6300    3.1810 ha        1 E10      0.129000
     37 H6         -1.8060    0.2590    1.0540 ha        1 E10      0.188000
     38 H9C1        3.9010   -1.3190    1.1380 hc        1 E10      0.090200
     39 H9C2        3.9560    0.1230    0.0460 hc        1 E10      0.090200
     40 H10         1.8640    1.2770    4.0080 hx        1 E10      0.102700
     41 H131        4.1200    0.7640    4.2990 hc        1 E10      0.065700
     42 H132        3.9890   -0.9230    3.6540 hc        1 E10      0.065700
     43 H141        3.9100    1.6770    1.9810 hc        1 E10      0.082200
     44 H142        5.2850    0.5070    2.1230 hc        1 E10      0.082200
     45 H17         0.5570   -0.7970    4.4740 hn        1 E10      0.446300
     46 H241        1.4820    0.6130    6.2120 hx        1 E10      0.103200
     47 H242        3.0350   -0.3430    6.0750 hx        1 E10      0.103200
     48 H34        -1.4430   -0.7690   21.9060 ha        1 E10      0.188000
     49 H361        1.3750   -5.8620   22.5080 hc        1 E10      0.090200
     50 H362        2.5550   -5.1050   21.3630 hc        1 E10      0.090200
     51 H37        -0.8750   -4.3690   18.7520 hx        1 E10      0.102700
     52 H381        0.5890   -6.1220   18.2840 hc        1 E10      0.065700
     53 H382        2.0710   -5.2580   18.8660 hc        1 E10      0.065700
     54 H391        1.4980   -7.1290   20.3620 hc        1 E10      0.082200
     55 H392       -0.1570   -6.4530   20.6470 hc        1 E10      0.082200
     56 H40         0.3370   -2.2370   18.2900 hn        1 E10      0.446300
     57 H411        0.9540   -4.5770   16.5420 hx        1 E10      0.103200
     58 H412       -0.6130   -3.6320   16.5530 hx        1 E10      0.103200
     59 H631        0.2560   -1.5040    6.9040 hc        1 E10      0.066700
     60 H632        1.8070   -2.4360    6.7960 hc        1 E10      0.066700
     61 H641        2.8450   -0.9070    8.5020 hc        1 E10      0.055700
     62 H642        1.3050    0.0350    8.6020 hc        1 E10      0.055700
     63 H651        1.6260   -2.9840    9.2310 hc        1 E10      0.050700
     64 H652        0.0810   -2.0510    9.3160 hc        1 E10      0.050700
     65 H661        1.1120   -0.5060   11.0220 hc        1 E10      0.048700
     66 H662        2.6510   -1.4500   10.9420 hc        1 E10      0.048700
     67 H671        1.4230   -3.5220   11.6710 hc        1 E10      0.048700
     68 H672       -0.1210   -2.5860   11.7380 hc        1 E10      0.048700
     69 H681        0.8980   -1.0340   13.4440 hc        1 E10      0.050700
     70 H682        2.4360   -1.9800   13.3830 hc        1 E10      0.050700
     71 H691       -0.3460   -3.1080   14.1590 hc        1 E10      0.055700
     72 H692        1.2000   -4.0470   14.1120 hc        1 E10      0.055700
     73 H701        2.2010   -2.4960   15.8200 hc        1 E10      0.066700
     74 H702        0.6600   -1.5420   15.8600 hc        1 E10      0.066700
     75 H30         1.1060   -3.7160   23.5830 hn        1 E10      0.353500
     76 H172        1.9530   -1.6790    4.3600 hn        1 E10      0.446300
     77 H402        1.7640   -3.0750   18.2700 hn        1 E10      0.446300
     78 H33        -1.3290   -1.9960   19.7120 ha        1 E10      0.129000
@<TRIPOS>BOND
     1    1    2 1   
     2    1    6 1   
     3    1    7 2   
     4    2    3 1   
     5    2   35 1   
     6    3    4 2   
     7    3    8 1   
     8    4    5 1   
     9    4    9 1   
    10    5    6 2   
    11    5   36 1   
    12    6   37 1   
    13    8   11 1   
    14    8   38 1   
    15    8   39 1   
    16    9   10 1   
    17    9   12 1   
    18    9   40 1   
    19   10   11 1   
    20   10   41 1   
    21   10   42 1   
    22   11   43 1   
    23   11   44 1   
    24   12   13 1   
    25   12   45 1   
    26   12   76 1   
    27   13   27 1   
    28   13   46 1   
    29   13   47 1   
    30   14   15 1   
    31   14   19 1   
    32   14   20 2   
    33   15   16 1   
    34   15   75 1   
    35   16   17 2   
    36   16   21 1   
    37   17   18 1   
    38   17   22 1   
    39   18   19 2   
    40   18   78 1   
    41   19   48 1   
    42   21   24 1   
    43   21   49 1   
    44   21   50 1   
    45   22   23 1   
    46   22   25 1   
    47   22   51 1   
    48   23   24 1   
    49   23   52 1   
    50   23   53 1   
    51   24   54 1   
    52   24   55 1   
    53   25   26 1   
    54   25   56 1   
    55   25   77 1   
    56   26   34 1   
    57   26   57 1   
    58   26   58 1   
    59   27   28 1   
    60   27   59 1   
    61   27   60 1   
    62   28   29 1   
    63   28   61 1   
    64   28   62 1   
    65   29   30 1   
    66   29   63 1   
    67   29   64 1   
    68   30   31 1   
    69   30   65 1   
    70   30   66 1   
    71   31   32 1   
    72   31   67 1   
    73   31   68 1   
    74   32   33 1   
    75   32   69 1   
    76   32   70 1   
    77   33   34 1   
    78   33   71 1   
    79   33   72 1   
    80   34   73 1   
    81   34   74 1   
@<TRIPOS>SUBSTRUCTURE
     1 E10         1 TEMP              0 ****  ****    0 ROOT
