@<TRIPOS>MOLECULE
E10
   76    73     1     0     0
SMALL
bcc


@<TRIPOS>ATOM
      1 C1         -3.0790    1.5750  -11.0000 c1        1 E10      0.323500
      2 N2         -1.7830    2.0460  -11.1880 n2        1 E10     -0.284500
      3 C3         -1.0190    2.3880  -10.1110 c1        1 E10      0.078000
      4 C4         -1.5680    2.2570   -8.7450 c1        1 E10     -0.206500
      5 C5         -2.8490    1.7910   -8.5670 c1        1 E10     -0.029500
      6 C6         -3.6190    1.4460   -9.6640 c1        1 E10     -0.243000
      7 O7         -3.7690    1.2680  -11.9710 o         1 E10     -0.371000
      8 C9          0.3960    3.0690  -10.2740 c3        1 E10     -0.137500
      9 C10        -0.6140    2.6220   -7.5210 c3        1 E10      0.043500
     10 C13         0.7440    2.9150   -7.8410 c3        1 E10     -0.174000
     11 C14         0.9830    3.6260   -9.0750 c3        1 E10     -0.152500
     12 N17        -0.6310    1.4720   -6.5630 n3        1 E10     -0.307500
     13 C24        -0.6830    1.9830   -5.1890 c3        1 E10     -0.072000
     14 C29         1.2400   -1.3270   11.5790 c1        1 E10      0.323500
     15 N30         2.2200   -2.1870   11.0810 n2        1 E10     -0.284500
     16 C31         2.1240   -2.6650    9.8320 c1        1 E10      0.078000
     17 C32         0.9830   -2.2830    8.9800 c1        1 E10     -0.206500
     18 C33         0.0270   -1.4410    9.4710 c1        1 E10     -0.029500
     19 C34         0.1310   -0.9520   10.7580 c1        1 E10     -0.243000
     20 O35         1.3270   -0.9090   12.6760 o         1 E10     -0.371000
     21 C36         3.2230   -3.6620    9.2040 c3        1 E10     -0.137500
     22 C37         1.0240   -2.7170    7.4440 c3        1 E10      0.043500
     23 C38         2.2320   -3.3490    6.9840 c3        1 E10     -0.174000
     24 C39         2.9190   -4.2150    7.9240 c3        1 E10     -0.152500
     25 N40         0.7960   -1.4870    6.6110 n3        1 E10     -0.307500
     26 C41         0.0600   -1.8490    5.3920 c3        1 E10     -0.072000
     27 C63        -0.6540    0.7960   -4.1850 c3        1 E10     -0.166000
     28 C64        -0.6780    1.3360   -2.7530 c3        1 E10     -0.157500
     29 C65        -0.7800    0.1720   -1.7680 c3        1 E10     -0.158000
     30 C66        -0.8520    0.7230   -0.3180 c3        1 E10     -0.158000
     31 C67        -0.8550   -0.4400    0.6600 c3        1 E10     -0.158000
     32 C68        -0.6670    0.1080    2.1610 c3        1 E10     -0.158000
     33 C69        -0.6830   -1.0770    3.1420 c3        1 E10     -0.157500
     34 C70        -0.0510   -0.6440    4.4810 c3        1 E10     -0.166000
     35 H2         -1.4420    2.1270  -12.0390 hn        1 E10      0.242500
     36 H5         -3.2250    1.7000   -7.6440 ha        1 E10      0.148500
     37 H6         -4.5370    1.1120   -9.5340 ha        1 E10      0.162500
     38 H9C1        0.2960    3.7990  -10.9200 hc        1 E10      0.100750
     39 H9C2        1.0200    2.3800  -10.6200 hc        1 E10      0.100750
     40 H10        -0.9830    3.3830   -7.0770 h1        1 E10      0.099000
     41 H131        1.1180    3.4510   -7.1060 hc        1 E10      0.090500
     42 H132        1.2230    2.0910   -7.8790 hc        1 E10      0.090500
     43 H141        1.9840    3.6820   -9.2150 hc        1 E10      0.090000
     44 H142        0.6290    4.5620   -8.9640 hc        1 E10      0.090000
     45 H17        -1.3770    0.9490   -6.7260 hn        1 E10      0.160500
     46 H241        0.0780    2.5550   -5.0310 h1        1 E10      0.070500
     47 H242       -1.5090    2.4960   -5.0610 h1        1 E10      0.070500
     48 H30         2.9230   -2.4250   11.6020 hn        1 E10      0.242500
     49 H33        -0.7300   -1.1850    8.9110 ha        1 E10      0.148500
     50 H34        -0.5870   -0.3200   11.1250 ha        1 E10      0.162500
     51 H361        4.1060   -3.1330    9.1140 hc        1 E10      0.100750
     52 H362        3.3340   -4.4220    9.8410 hc        1 E10      0.100750
     53 H37         0.2900   -3.3300    7.2870 h1        1 E10      0.099000
     54 H381        2.0030   -3.8940    6.1700 hc        1 E10      0.090500
     55 H382        2.8600   -2.6400    6.7120 hc        1 E10      0.090500
     56 H391        2.3220   -5.0660    8.0740 hc        1 E10      0.090000
     57 H392        3.7840   -4.5130    7.4970 hc        1 E10      0.090000
     58 H40         1.5770   -1.1280    6.3910 hn        1 E10      0.160500
     59 H411       -0.8220   -2.1510    5.6290 h1        1 E10      0.070500
     60 H412        0.5330   -2.5620    4.9280 h1        1 E10      0.070500
     61 H631       -1.4500    0.2140   -4.3340 hc        1 E10      0.086250
     62 H632        0.1470    0.2820   -4.3200 hc        1 E10      0.086250
     63 H641        0.1770    1.8560   -2.5750 hc        1 E10      0.080750
     64 H642       -1.4620    1.9360   -2.6390 hc        1 E10      0.080750
     65 H651        0.0210   -0.4140   -1.8620 hc        1 E10      0.080750
     66 H652       -1.6040   -0.3570   -1.9630 hc        1 E10      0.080750
     67 H661       -1.7090    1.2720   -0.2020 hc        1 E10      0.079750
     68 H662       -0.0410    1.3150   -0.1400 hc        1 E10      0.079750
     69 H671       -1.6860   -0.9070    0.5940 hc        1 E10      0.079750
     70 H672       -0.1450   -1.0290    0.4480 hc        1 E10      0.079750
     71 H681       -1.4380    0.7590    2.3920 hc        1 E10      0.080750
     72 H682        0.2010    0.5840    2.2330 hc        1 E10      0.080750
     73 H691       -1.5900   -1.3540    3.2920 hc        1 E10      0.080750
     74 H692       -0.1490   -1.8570    2.7480 hc        1 E10      0.080750
     75 H701        0.8880   -0.2510    4.3080 hc        1 E10      0.086250
     76 H702       -0.6200    0.0390    4.9070 hc        1 E10      0.086250
@<TRIPOS>BOND
     1    1    6 1   
     2    1    7 1   
     3    2    3 1   
     4    2   35 1   
     5    3    8 1   
     6    4    5 1   
     7    4    9 1   
     8    5   36 1   
     9    6   37 1   
    10    8   11 1   
    11    8   38 1   
    12    8   39 1   
    13    9   10 1   
    14    9   12 1   
    15    9   40 1   
    16   10   11 1   
    17   10   41 1   
    18   10   42 1   
    19   11   43 1   
    20   11   44 1   
    21   12   13 1   
    22   12   45 1   
    23   13   27 1   
    24   13   46 1   
    25   13   47 1   
    26   14   19 1   
    27   14   20 1   
    28   15   16 1   
    29   15   48 1   
    30   16   21 1   
    31   17   18 1   
    32   17   22 1   
    33   18   49 1   
    34   19   50 1   
    35   21   24 1   
    36   21   51 1   
    37   21   52 1   
    38   22   23 1   
    39   22   25 1   
    40   22   53 1   
    41   23   24 1   
    42   23   54 1   
    43   23   55 1   
    44   24   56 1   
    45   24   57 1   
    46   25   26 1   
    47   25   58 1   
    48   26   34 1   
    49   26   59 1   
    50   26   60 1   
    51   27   28 1   
    52   27   61 1   
    53   27   62 1   
    54   28   29 1   
    55   28   63 1   
    56   28   64 1   
    57   29   30 1   
    58   29   65 1   
    59   29   66 1   
    60   30   31 1   
    61   30   67 1   
    62   30   68 1   
    63   31   32 1   
    64   31   69 1   
    65   31   70 1   
    66   32   33 1   
    67   32   71 1   
    68   32   72 1   
    69   33   34 1   
    70   33   73 1   
    71   33   74 1   
    72   34   75 1   
    73   34   76 1   
@<TRIPOS>SUBSTRUCTURE
     1 E10         1 TEMP              0 ****  ****    0 ROOT
