@<TRIPOS>MOLECULE
E10
   76    79     1     0     0
SMALL
bcc


@<TRIPOS>ATOM
      1 C1         -2.4680    1.2820    9.4320 c         1 E10      0.685200
      2 N2         -1.5830    0.6770   10.3430 n         1 E10     -0.440600
      3 C3         -0.4750   -0.0450    9.9350 cc        1 E10      0.076400
      4 C4         -0.1860   -0.2010    8.5900 cd        1 E10     -0.210700
      5 C5         -1.0710    0.3900    7.6290 cd        1 E10     -0.029500
      6 C6         -2.1600    1.1000    8.0170 cc        1 E10     -0.262200
      7 O7         -3.4380    1.9180    9.8900 o         1 E10     -0.646500
      8 C9          0.3900   -0.6200   11.0230 c3        1 E10     -0.054700
      9 C10         0.9930   -1.0140    8.1100 c3        1 E10      0.245200
     10 C13         2.0250   -1.1890    9.2400 c3        1 E10     -0.095400
     11 C14         1.3380   -1.6730   10.4950 c3        1 E10     -0.073900
     12 N17         1.6630   -0.5000    6.9210 n3        1 E10     -0.828700
     13 C24         1.2270   -1.0820    5.6680 c3        1 E10      0.164800
     14 C29        -1.9160   -0.9440  -11.2930 c         1 E10      0.685200
     15 N30        -0.7250   -0.2030  -11.4020 n         1 E10     -0.440600
     16 C31        -0.1230    0.3990  -10.3120 cc        1 E10      0.076400
     17 C32        -0.6720    0.2810   -9.0470 cd        1 E10     -0.210700
     18 C33        -1.9010   -0.4450   -8.8940 cd        1 E10     -0.029500
     19 C34        -2.5000   -1.0360   -9.9580 cc        1 E10     -0.262200
     20 O35        -2.3820   -1.4580  -12.3290 o         1 E10     -0.646500
     21 C36         1.1410    1.1700  -10.5690 c3        1 E10     -0.054700
     22 C37        -0.0700    0.9380   -7.8300 c3        1 E10      0.245200
     23 C38         1.3520    1.4560   -8.1140 c3        1 E10     -0.095400
     24 C39         1.4200    2.1500   -9.4520 c3        1 E10     -0.073900
     25 N40        -0.1610    0.0630   -6.6650 n3        1 E10     -0.828700
     26 C41         0.2270    0.6890   -5.4170 c3        1 E10      0.164800
     27 C63         1.3440   -0.1380    4.4720 c3        1 E10     -0.087400
     28 C64         0.9600   -0.8590    3.1970 c3        1 E10     -0.078900
     29 C65         1.0610    0.0610    1.9990 c3        1 E10     -0.079400
     30 C66         0.6820   -0.6590    0.7230 c3        1 E10     -0.079400
     31 C67         0.7790    0.2620   -0.4750 c3        1 E10     -0.079400
     32 C68         0.4050   -0.4600   -1.7520 c3        1 E10     -0.079400
     33 C69         0.4990    0.4620   -2.9500 c3        1 E10     -0.078900
     34 C70         0.1270   -0.2630   -4.2260 c3        1 E10     -0.087400
     35 H2         -1.7660    0.7750   11.3180 hn        1 E10      0.329000
     36 H5         -0.8600    0.2570    6.5550 ha        1 E10      0.148500
     37 H6         -2.8610    1.5660    7.3110 ha        1 E10      0.162500
     38 H9C1        0.9790    0.2220   11.4820 hc        1 E10      0.061450
     39 H9C2       -0.2450   -1.0670   11.8350 hc        1 E10      0.061450
     40 H10         0.5900   -2.0490    7.8710 h1        1 E10      0.059700
     41 H131        2.8000   -1.9320    8.9190 hc        1 E10      0.051200
     42 H132        2.5480   -0.2180    9.4410 hc        1 E10      0.051200
     43 H141        0.7760   -2.6200   10.2820 hc        1 E10      0.050700
     44 H142        2.1030   -1.9050   11.2810 hc        1 E10      0.050700
     45 H17         1.6240    0.5010    6.8970 hn        1 E10      0.365300
     46 H241        1.8830   -1.9820    5.4870 h1        1 E10      0.031200
     47 H242        0.1630   -1.4600    5.7140 h1        1 E10      0.031200
     48 H33        -2.3540   -0.5090   -7.8900 ha        1 E10      0.148500
     49 H34        -3.4390   -1.6010   -9.8840 ha        1 E10      0.162500
     50 H361        1.0770    1.7270  -11.5430 hc        1 E10      0.061450
     51 H362        1.9900    0.4380  -10.6560 hc        1 E10      0.061450
     52 H37        -0.7160    1.8430   -7.6000 h1        1 E10      0.059700
     53 H381        1.6490    2.1750   -7.3070 hc        1 E10      0.051200
     54 H382        2.0830    0.6050   -8.0960 hc        1 E10      0.051200
     55 H391        0.6750    2.9880   -9.4850 hc        1 E10      0.050700
     56 H392        2.4380    2.5970   -9.5990 hc        1 E10      0.050700
     57 H40         0.3570   -0.7820   -6.8170 hn        1 E10      0.365300
     58 H411       -0.4650    1.5620   -5.2450 h1        1 E10      0.031200
     59 H412        1.2800    1.0990   -5.4500 h1        1 E10      0.031200
     60 H631        0.6740    0.7500    4.6190 hc        1 E10      0.046950
     61 H632        2.3950    0.2450    4.3860 hc        1 E10      0.046950
     62 H641        1.6320   -1.7450    3.0490 hc        1 E10      0.041450
     63 H642       -0.0880   -1.2490    3.2840 hc        1 E10      0.041450
     64 H651        0.3870    0.9460    2.1460 hc        1 E10      0.041450
     65 H652        2.1090    0.4540    1.9130 hc        1 E10      0.041450
     66 H661        1.3580   -1.5420    0.5740 hc        1 E10      0.040450
     67 H662       -0.3640   -1.0540    0.8090 hc        1 E10      0.040450
     68 H671        0.1010    1.1430   -0.3290 hc        1 E10      0.040450
     69 H672        1.8250    0.6590   -0.5600 hc        1 E10      0.040450
     70 H681        1.0850   -1.3400   -1.9010 hc        1 E10      0.041450
     71 H682       -0.6390   -0.8600   -1.6670 hc        1 E10      0.041450
     72 H691       -0.1840    1.3400   -2.8030 hc        1 E10      0.041450
     73 H692        1.5430    0.8650   -3.0330 hc        1 E10      0.041450
     74 H701        0.8120   -1.1390   -4.3740 hc        1 E10      0.046950
     75 H702       -0.9160   -0.6650   -4.1420 hc        1 E10      0.046950
     76 H30        -0.3090   -0.1030  -12.3020 hn        1 E10      0.329000
@<TRIPOS>BOND
     1    1    2 1   
     2    1    6 1   
     3    1    7 2   
     4    2    3 1   
     5    2   35 1   
     6    3    4 2   
     7    3    8 1   
     8    4    5 1   
     9    4    9 1   
    10    5    6 2   
    11    5   36 1   
    12    6   37 1   
    13    8   11 1   
    14    8   38 1   
    15    8   39 1   
    16    9   10 1   
    17    9   12 1   
    18    9   40 1   
    19   10   11 1   
    20   10   41 1   
    21   10   42 1   
    22   11   43 1   
    23   11   44 1   
    24   12   13 1   
    25   12   45 1   
    26   13   27 1   
    27   13   46 1   
    28   13   47 1   
    29   14   15 1   
    30   14   19 1   
    31   14   20 2   
    32   15   16 1   
    33   15   76 1   
    34   16   17 2   
    35   16   21 1   
    36   17   18 1   
    37   17   22 1   
    38   18   19 2   
    39   18   48 1   
    40   19   49 1   
    41   21   24 1   
    42   21   50 1   
    43   21   51 1   
    44   22   23 1   
    45   22   25 1   
    46   22   52 1   
    47   23   24 1   
    48   23   53 1   
    49   23   54 1   
    50   24   55 1   
    51   24   56 1   
    52   25   26 1   
    53   25   57 1   
    54   26   34 1   
    55   26   58 1   
    56   26   59 1   
    57   27   28 1   
    58   27   60 1   
    59   27   61 1   
    60   28   29 1   
    61   28   62 1   
    62   28   63 1   
    63   29   30 1   
    64   29   64 1   
    65   29   65 1   
    66   30   31 1   
    67   30   66 1   
    68   30   67 1   
    69   31   32 1   
    70   31   68 1   
    71   31   69 1   
    72   32   33 1   
    73   32   70 1   
    74   32   71 1   
    75   33   34 1   
    76   33   72 1   
    77   33   73 1   
    78   34   74 1   
    79   34   75 1   
@<TRIPOS>SUBSTRUCTURE
     1 E10         1 TEMP              0 ****  ****    0 ROOT
