@<TRIPOS>MOLECULE
E10
   78    81     1     0     0
SMALL
bcc


@<TRIPOS>ATOM
      1 C1         -0.0450   -0.3060   -0.1220 c         1 E10      0.684700
      2 N2          1.3750   -0.4010   -0.0640 n         1 E10     -0.427100
      3 C3          2.0760   -0.1960    1.0900 cc        1 E10      0.168400
      4 C4          1.4150    0.0770    2.2870 cd        1 E10     -0.336200
      5 C5         -0.0090    0.2750    2.2590 cd        1 E10     -0.069000
      6 C6         -0.7150    0.0880    1.1210 cc        1 E10     -0.213200
      7 O7         -0.5960   -0.5510   -1.2010 o         1 E10     -0.552500
      8 C9          3.5790   -0.2430    1.0400 c3        1 E10     -0.079200
      9 C10         2.1280    0.2610    3.5790 c3        1 E10      0.234700
     10 C13         3.6550    0.1460    3.4940 c3        1 E10     -0.100400
     11 C14         4.1640    0.6060    2.1470 c3        1 E10     -0.074400
     12 N17         1.5790   -0.7540    4.5840 n4        1 E10     -0.777000
     13 C24         1.9100   -0.4060    5.9930 c3        1 E10      0.098800
     14 C29        -0.0630   -2.1210   22.9330 c         1 E10      0.684700
     15 N30         0.6670   -3.3330   22.7730 n         1 E10     -0.427100
     16 C31         0.7270   -4.0010   21.5830 cc        1 E10      0.168400
     17 C32         0.1000   -3.4910   20.4480 cd        1 E10     -0.336200
     18 C33        -0.7240   -2.3200   20.5810 cd        1 E10     -0.069000
     19 C34        -0.8040   -1.6560   21.7560 cc        1 E10     -0.213200
     20 O35        -0.0240   -1.5640   24.0360 o         1 E10     -0.552500
     21 C36         1.4590   -5.3140   21.5290 c3        1 E10     -0.079200
     22 C37         0.1740   -4.1540   19.1190 c3        1 E10      0.234700
     23 C38         0.9810   -5.4580   19.0930 c3        1 E10     -0.100400
     24 C39         0.8980   -6.1770   20.4200 c3        1 E10     -0.074400
     25 N40         0.7540   -3.1570   18.1120 n4        1 E10     -0.777000
     26 C41         0.5000   -3.5520   16.7000 c3        1 E10      0.098800
     27 C63         1.3720   -1.4220    6.9950 c3        1 E10     -0.108400
     28 C64         1.7280   -0.9830    8.4020 c3        1 E10     -0.078400
     29 C65         1.1940   -1.9660    9.4230 c3        1 E10     -0.079400
     30 C66         1.5350   -1.5260   10.8320 c3        1 E10     -0.079400
     31 C67         0.9900   -2.5010   11.8550 c3        1 E10     -0.079400
     32 C68         1.3210   -2.0550   13.2640 c3        1 E10     -0.079400
     33 C69         0.7630   -3.0250   14.2870 c3        1 E10     -0.078400
     34 C70         1.0860   -2.5660   15.6950 c3        1 E10     -0.108400
     35 H2          1.8660   -0.5840   -0.9170 hn        1 E10      0.353500
     36 H5         -0.5170    0.6160    3.1760 ha        1 E10      0.129000
     37 H6         -1.8030    0.2360    1.0470 ha        1 E10      0.188000
     38 H9C1        3.9130   -1.3120    1.1430 hc        1 E10      0.090200
     39 H9C2        3.9610    0.1310    0.0500 hc        1 E10      0.090200
     40 H10         1.8560    1.2760    4.0060 hx        1 E10      0.102700
     41 H131        3.9930   -0.9130    3.6580 hc        1 E10      0.065700
     42 H132        4.1140    0.7760    4.3020 hc        1 E10      0.065700
     43 H141        3.9040    1.6850    1.9830 hc        1 E10      0.082200
     44 H142        5.2840    0.5230    2.1280 hc        1 E10      0.082200
     45 H17         1.9590   -1.6790    4.3610 hn        1 E10      0.446300
     46 H241        3.0330   -0.3380    6.0770 hx        1 E10      0.103200
     47 H242        1.4750    0.6120    6.2100 hx        1 E10      0.103200
     48 H34        -1.4280   -0.7620   21.9110 ha        1 E10      0.188000
     49 H361        1.3710   -5.8660   22.5050 hc        1 E10      0.090200
     50 H362        2.5520   -5.1130   21.3590 hc        1 E10      0.090200
     51 H37        -0.8790   -4.3620   18.7540 hx        1 E10      0.102700
     52 H381        0.5770   -6.1210   18.2820 hc        1 E10      0.065700
     53 H382        2.0630   -5.2630   18.8630 hc        1 E10      0.065700
     54 H391        1.4850   -7.1330   20.3590 hc        1 E10      0.082200
     55 H392       -0.1660   -6.4500   20.6460 hc        1 E10      0.082200
     56 H40         0.3390   -2.2350   18.2910 hn        1 E10      0.446300
     57 H411       -0.6160   -3.6270   16.5550 hx        1 E10      0.103200
     58 H412        0.9480   -4.5760   16.5420 hx        1 E10      0.103200
     59 H631        0.2570   -1.5100    6.9020 hc        1 E10      0.066700
     60 H632        1.8120   -2.4360    6.7970 hc        1 E10      0.066700
     61 H641        1.2990    0.0350    8.6010 hc        1 E10      0.055700
     62 H642        2.8430   -0.9030    8.5040 hc        1 E10      0.055700
     63 H651        0.0800   -2.0540    9.3160 hc        1 E10      0.050700
     64 H652        1.6280   -2.9830    9.2310 hc        1 E10      0.050700
     65 H661        1.1080   -0.5050   11.0210 hc        1 E10      0.048700
     66 H662        2.6480   -1.4470   10.9430 hc        1 E10      0.048700
     67 H671       -0.1230   -2.5860   11.7380 hc        1 E10      0.048700
     68 H672        1.4210   -3.5210   11.6710 hc        1 E10      0.048700
     69 H681        0.8960   -1.0320   13.4440 hc        1 E10      0.050700
     70 H682        2.4340   -1.9800   13.3830 hc        1 E10      0.050700
     71 H691       -0.3490   -3.1050   14.1600 hc        1 E10      0.055700
     72 H692        1.1960   -4.0450   14.1120 hc        1 E10      0.055700
     73 H701        2.2000   -2.4970   15.8200 hc        1 E10      0.066700
     74 H702        0.6600   -1.5400   15.8600 hc        1 E10      0.066700
     75 H30         1.1120   -3.7200   23.5820 hn        1 E10      0.353500
     76 H172        0.5590   -0.8030    4.4730 hn        1 E10      0.446300
     77 H402        1.7640   -3.0780   18.2700 hn        1 E10      0.446300
     78 H33        -1.3220   -1.9880   19.7170 ha        1 E10      0.129000
@<TRIPOS>BOND
     1    1    2 1   
     2    1    6 1   
     3    1    7 2   
     4    2    3 1   
     5    2   35 1   
     6    3    4 2   
     7    3    8 1   
     8    4    5 1   
     9    4    9 1   
    10    5    6 2   
    11    5   36 1   
    12    6   37 1   
    13    8   11 1   
    14    8   38 1   
    15    8   39 1   
    16    9   10 1   
    17    9   12 1   
    18    9   40 1   
    19   10   11 1   
    20   10   41 1   
    21   10   42 1   
    22   11   43 1   
    23   11   44 1   
    24   12   13 1   
    25   12   45 1   
    26   12   76 1   
    27   13   27 1   
    28   13   46 1   
    29   13   47 1   
    30   14   15 1   
    31   14   19 1   
    32   14   20 2   
    33   15   16 1   
    34   15   75 1   
    35   16   17 2   
    36   16   21 1   
    37   17   18 1   
    38   17   22 1   
    39   18   19 2   
    40   18   78 1   
    41   19   48 1   
    42   21   24 1   
    43   21   49 1   
    44   21   50 1   
    45   22   23 1   
    46   22   25 1   
    47   22   51 1   
    48   23   24 1   
    49   23   52 1   
    50   23   53 1   
    51   24   54 1   
    52   24   55 1   
    53   25   26 1   
    54   25   56 1   
    55   25   77 1   
    56   26   34 1   
    57   26   57 1   
    58   26   58 1   
    59   27   28 1   
    60   27   59 1   
    61   27   60 1   
    62   28   29 1   
    63   28   61 1   
    64   28   62 1   
    65   29   30 1   
    66   29   63 1   
    67   29   64 1   
    68   30   31 1   
    69   30   65 1   
    70   30   66 1   
    71   31   32 1   
    72   31   67 1   
    73   31   68 1   
    74   32   33 1   
    75   32   69 1   
    76   32   70 1   
    77   33   34 1   
    78   33   71 1   
    79   33   72 1   
    80   34   73 1   
    81   34   74 1   
@<TRIPOS>SUBSTRUCTURE
     1 E10         1 TEMP              0 ****  ****    0 ROOT
