@<TRIPOS>MOLECULE
E11
   73    76     1     0     0
SMALL
bcc


@<TRIPOS>ATOM
      1 N1         -0.9570   -0.3340    0.0280 nb        1 E11     -0.818000
      2 C2         -2.3420   -0.5280    0.1610 ca        1 E11      0.899900
      3 N3         -3.2770    0.4620    0.2250 nb        1 E11     -0.781000
      4 C4         -2.8110    1.7530    0.1800 ca        1 E11      0.489600
      5 C5         -1.4270    2.0720    0.0480 ca        1 E11     -0.322600
      6 C6         -0.5100    0.9350   -0.0310 ca        1 E11      0.721200
      7 CAC        -3.7610    2.8230    0.2660 ca        1 E11     -0.270300
      8 CAD        -3.3410    4.1310    0.2120 ca        1 E11      0.152100
      9 CAE        -1.9440    4.4410    0.0640 ca        1 E11      0.083100
     10 CAF        -1.0180    3.4250   -0.0160 ca        1 E11     -0.144000
     11 OAK        -1.6610    5.7920    0.0200 os        1 E11     -0.302900
     12 OAL        -4.1650    5.2320    0.2870 os        1 E11     -0.301900
     13 NAM         0.8500    1.1820   -0.2510 nh        1 E11     -0.835900
     14 NAN        -2.7480   -1.8690    0.3140 nh        1 E11     -0.827900
     15 CAO        -4.1290   -2.2180    0.0740 c3        1 E11      0.200800
     16 CAP        -4.3540   -3.7310    0.0490 c3        1 E11     -0.096400
     17 CAQ        -5.8380   -3.9950   -0.2030 c3        1 E11      0.172800
     18 NAR        -6.2140   -5.3960   -0.0650 n3        1 E11     -0.738600
     19 CAS        -7.6470   -5.5690    0.0340 c3        1 E11      0.156600
     20 CAU        -5.6140   -6.2540   -1.0600 c3        1 E11      0.156600
     21 CAV         1.8450    0.1270   -0.1640 c3        1 E11      0.206500
     22 CAW         2.1420   -0.3450    1.2680 c3        1 E11     -0.094900
     23 CAX         3.1880   -1.4550    1.2560 c3        1 E11      0.169300
     24 NAY         4.4200   -1.0750    0.5760 n3        1 E11     -0.731600
     25 CAZ         4.1800   -0.5620   -0.7660 c3        1 E11      0.169300
     26 CBA         3.1690    0.5800   -0.8020 c3        1 E11     -0.094900
     27 CBB         5.3980   -2.1570    0.5960 c3        1 E11      0.215100
     28 CBC         6.7660   -1.7570    0.1230 ca        1 E11     -0.088300
     29 CBD         7.4090   -0.6390    0.6650 ca        1 E11     -0.118500
     30 CBE         8.7000   -0.3080    0.2550 ca        1 E11     -0.133500
     31 CBF         9.3570   -1.0910   -0.6940 ca        1 E11     -0.129000
     32 CBG         8.7190   -2.2070   -1.2350 ca        1 E11     -0.133500
     33 CBH         7.4260   -2.5390   -0.8300 ca        1 E11     -0.118500
     34 CBI        -5.5560    4.9620    0.4400 c3        1 E11      0.107700
     35 CBJ        -0.3000    6.1380   -0.2020 c3        1 E11      0.109700
     36 HAC        -4.8270    2.5700    0.3750 ha        1 E11      0.160000
     37 HAF         0.0430    3.6820   -0.1450 ha        1 E11      0.135000
     38 HNAM        1.1660    2.0570    0.1120 hn        1 E11      0.410800
     39 HNAN       -2.0800   -2.5460    0.0110 hn        1 E11      0.422800
     40 HAO        -4.7460   -1.7630    0.9020 h1        1 E11      0.053200
     41 HAOA       -4.4970   -1.7800   -0.9000 h1        1 E11      0.053200
     42 HAP        -3.7370   -4.1980   -0.7620 hc        1 E11      0.054200
     43 HAPA       -4.0410   -4.1860    1.0230 hc        1 E11      0.054200
     44 HAQ        -6.4340   -3.4060    0.5530 h1        1 E11      0.033200
     45 HAQA       -6.1040   -3.5950   -1.2260 h1        1 E11      0.033200
     46 HAS        -8.1990   -5.2390   -0.8890 h1        1 E11      0.031033
     47 HASA       -7.8690   -6.6530    0.2130 h1        1 E11      0.031033
     48 HASB       -8.0280   -4.9770    0.9070 h1        1 E11      0.031033
     49 HAU        -4.4980   -6.2010   -0.9600 h1        1 E11      0.031033
     50 HAUA       -5.9380   -7.3120   -0.8760 h1        1 E11      0.031033
     51 HAUB       -5.8920   -5.9750   -2.1140 h1        1 E11      0.031033
     52 HAV         1.4610   -0.7580   -0.7560 h1        1 E11      0.084700
     53 HAW         2.5060    0.5150    1.8870 hc        1 E11      0.055450
     54 HAWA        1.2120   -0.7480    1.7450 hc        1 E11      0.055450
     55 HAX         3.4520   -1.7070    2.3220 h1        1 E11      0.036700
     56 HAXA        2.7270   -2.3770    0.7920 h1        1 E11      0.036700
     57 HAZ         5.1660   -0.1850   -1.1620 h1        1 E11      0.036700
     58 HAZA        3.8210   -1.3780   -1.4630 h1        1 E11      0.036700
     59 HBA         3.0060    0.8730   -1.8710 hc        1 E11      0.055450
     60 HBAA        3.5780    1.4690   -0.2570 hc        1 E11      0.055450
     61 HBB         5.4950   -2.5010    1.6680 h1        1 E11      0.039700
     62 HBBA        5.0430   -3.0430   -0.0110 h1        1 E11      0.039700
     63 HBD         6.8910   -0.0210    1.4140 ha        1 E11      0.137500
     64 HBE         9.2010    0.5720    0.6830 ha        1 E11      0.131000
     65 HBF        10.3760   -0.8300   -1.0150 ha        1 E11      0.130000
     66 HBG         9.2340   -2.8270   -1.9840 ha        1 E11      0.131000
     67 HBH         6.9280   -3.4200   -1.2620 ha        1 E11      0.137500
     68 HBI        -6.0110    5.9840    0.4820 h1        1 E11      0.048033
     69 HBIA       -5.9450    4.3900   -0.4360 h1        1 E11      0.048033
     70 HBIB       -5.7470    4.4040    1.3890 h1        1 E11      0.048033
     71 HBJ         0.3410    5.7820    0.6410 h1        1 E11      0.043700
     72 HBJA        0.0630    5.7220   -1.1730 h1        1 E11      0.043700
     73 HBJB       -0.3200    7.2570   -0.2350 h1        1 E11      0.043700
@<TRIPOS>BOND
     1    1    2 ar  
     2    1    6 ar  
     3    2    3 ar  
     4    2   14 1   
     5    3    4 ar  
     6    4    5 ar  
     7    4    7 ar  
     8    5    6 ar  
     9    5   10 ar  
    10    6   13 1   
    11    7    8 ar  
    12    7   36 1   
    13    8    9 ar  
    14    8   12 1   
    15    9   10 ar  
    16    9   11 1   
    17   10   37 1   
    18   11   35 1   
    19   12   34 1   
    20   13   21 1   
    21   13   38 1   
    22   14   15 1   
    23   14   39 1   
    24   15   16 1   
    25   15   40 1   
    26   15   41 1   
    27   16   17 1   
    28   16   42 1   
    29   16   43 1   
    30   17   18 1   
    31   17   44 1   
    32   17   45 1   
    33   18   19 1   
    34   18   20 1   
    35   19   46 1   
    36   19   47 1   
    37   19   48 1   
    38   20   49 1   
    39   20   50 1   
    40   20   51 1   
    41   21   22 1   
    42   21   26 1   
    43   21   52 1   
    44   22   23 1   
    45   22   53 1   
    46   22   54 1   
    47   23   24 1   
    48   23   55 1   
    49   23   56 1   
    50   24   25 1   
    51   24   27 1   
    52   25   26 1   
    53   25   57 1   
    54   25   58 1   
    55   26   59 1   
    56   26   60 1   
    57   27   28 1   
    58   27   61 1   
    59   27   62 1   
    60   28   29 ar  
    61   28   33 ar  
    62   29   30 ar  
    63   29   63 1   
    64   30   31 ar  
    65   30   64 1   
    66   31   32 ar  
    67   31   65 1   
    68   32   33 ar  
    69   32   66 1   
    70   33   67 1   
    71   34   68 1   
    72   34   69 1   
    73   34   70 1   
    74   35   71 1   
    75   35   72 1   
    76   35   73 1   
@<TRIPOS>SUBSTRUCTURE
     1 E11         1 TEMP              0 ****  ****    0 ROOT
