@<TRIPOS>MOLECULE
E11
   73    70     1     0     0
SMALL
bcc


@<TRIPOS>ATOM
      1 N1          0.8040    0.3420    0.0750 n1        1 E11     -0.302000
      2 C2          2.1590    0.1360    0.0530 c1        1 E11      0.192000
      3 N3          2.8630    0.0620    1.2340 n1        1 E11     -0.265000
      4 C4          2.2120    0.1950    2.4350 c1        1 E11      0.113000
      5 C5          0.8700    0.3990    2.4650 c1        1 E11     -0.217000
      6 C6          0.1520    0.4740    1.2660 c2        1 E11      0.215000
      7 CAC         2.9480    0.1180    3.6500 c2        1 E11     -0.217000
      8 CAD         2.2920    0.2520    4.8770 c1        1 E11      0.100000
      9 CAE         0.9330    0.4580    4.9110 c2        1 E11      0.001000
     10 CAF         0.2040    0.5350    3.7140 c1        1 E11     -0.068000
     11 OAK         0.4780    0.2170    6.2460 os        1 E11     -0.212000
     12 OAL         2.7710    0.5360    6.2220 o         1 E11     -0.204000
     13 NAM        -1.2870    0.6070    1.1720 n3        1 E11     -0.287000
     14 NAN         2.8810    0.1450   -1.2210 n3        1 E11     -0.274000
     15 CAO         4.3010    0.0390   -1.2300 c3        1 E11     -0.034000
     16 CAP         4.8260    0.1760   -2.6820 c3        1 E11     -0.175000
     17 CAQ         6.3560   -0.0920   -2.7090 c3        1 E11     -0.064000
     18 NAR         6.9110    0.4890   -3.8770 n3        1 E11     -0.264000
     19 CAS         8.0260    1.4520   -3.4890 c3        1 E11     -0.120000
     20 CAU         7.4380   -0.5470   -4.7280 c3        1 E11     -0.120000
     21 CAV        -2.0170   -0.0720    0.0860 c3        1 E11      0.015000
     22 CAW        -2.4250    0.9370   -0.9270 c3        1 E11     -0.173500
     23 CAX        -3.3450    0.3440   -2.0020 c3        1 E11     -0.067500
     24 NAY        -4.5000   -0.3790   -1.4240 n3        1 E11     -0.257000
     25 CAZ        -4.1050   -1.3800   -0.4210 c3        1 E11     -0.067500
     26 CBA        -3.1860   -0.7960    0.6630 c3        1 E11     -0.173500
     27 CBB        -5.2360   -1.0240   -2.4720 c3        1 E11     -0.029000
     28 CBC        -6.7330   -0.7650   -2.2740 c2        1 E11     -0.081000
     29 CBD        -7.6100   -1.8390   -2.0410 c2        1 E11     -0.128000
     30 CBE        -8.9790   -1.6190   -2.0120 c1        1 E11     -0.132000
     31 CBF        -9.4860   -0.3230   -2.2150 c1        1 E11     -0.132000
     32 CBG        -8.6170    0.7330   -2.4450 c1        1 E11     -0.132000
     33 CBH        -7.2400    0.5130   -2.4740 c1        1 E11     -0.109000
     34 CBI         3.6890   -0.4620    6.7430 c3        1 E11     -0.080000
     35 CBJ        -0.4620    1.1910    6.7300 c3        1 E11     -0.075000
     36 HAC         3.9320   -0.0320    3.6260 ha        1 E11      0.158000
     37 HAF        -0.7690    0.6820    3.7400 ha        1 E11      0.143000
     38 HNAM       -1.7460    1.1610    1.7710 hn        1 E11      0.215000
     39 HNAN        2.4250    0.1720   -1.9960 hn        1 E11      0.221000
     40 HAO         4.6880    0.7630   -0.6680 h1        1 E11      0.092500
     41 HAOA        4.5700   -0.8480   -0.8620 h1        1 E11      0.092500
     42 HAP         4.6490    1.0910   -3.0110 hc        1 E11      0.093500
     43 HAPA        4.3790   -0.4600   -3.2460 hc        1 E11      0.093500
     44 HAQ         6.5210   -1.0590   -2.7140 h1        1 E11      0.072500
     45 HAQA        6.7500    0.2860   -1.9570 h1        1 E11      0.072500
     46 HAS         8.7170    0.9700   -2.9960 h1        1 E11      0.070833
     47 HASA        8.4170    1.8450   -4.3030 h1        1 E11      0.070833
     48 HASB        7.6700    2.1480   -2.9400 h1        1 E11      0.070833
     49 HAU         8.0940   -0.1590   -5.3480 h1        1 E11      0.070833
     50 HAUA        7.8890   -1.2580   -4.1590 h1        1 E11      0.070833
     51 HAUB        6.6960   -0.9580   -5.2450 h1        1 E11      0.070833
     52 HAV        -1.4130   -0.7290   -0.3430 h1        1 E11      0.125000
     53 HAW        -1.6200    1.2960   -1.3600 hc        1 E11      0.094250
     54 HAWA       -2.8860    1.6530   -0.4850 hc        1 E11      0.094250
     55 HAX        -2.8040   -0.3060   -2.5780 h1        1 E11      0.076250
     56 HAXA       -3.6910    1.0960   -2.5890 h1        1 E11      0.076250
     57 HAZ        -4.9200   -1.7380    0.0090 h1        1 E11      0.076250
     58 HAZA       -3.6410   -2.1090   -0.8690 h1        1 E11      0.076250
     59 HBA        -2.8580   -1.5240    1.2280 hc        1 E11      0.094250
     60 HBAA       -3.7210   -0.1550    1.2330 hc        1 E11      0.094250
     61 HBB        -5.0670   -1.9680   -2.4480 h1        1 E11      0.078500
     62 HBBA       -4.9530   -0.6620   -3.3460 h1        1 E11      0.078500
     63 HBD        -7.2480   -2.7600   -1.8980 ha        1 E11      0.130000
     64 HBE        -9.5970   -2.3700   -1.8490 ha        1 E11      0.131000
     65 HBF       -10.4470   -0.1660   -2.1970 ha        1 E11      0.131000
     66 HBG        -8.9610    1.6090   -2.5820 ha        1 E11      0.131000
     67 HBH        -6.6230    1.2680   -2.6390 ha        1 E11      0.145000
     68 HBI         3.3260   -1.3760    6.5610 h1        1 E11      0.088000
     69 HBIA        3.7970   -0.3350    7.7370 h1        1 E11      0.088000
     70 HBIB        4.5680   -0.3620    6.3020 h1        1 E11      0.088000
     71 HBJ        -1.2550    1.1690    6.1860 h1        1 E11      0.081667
     72 HBJA       -0.6930    0.9850    7.6490 h1        1 E11      0.081667
     73 HBJB       -0.0600    2.0850    6.6870 h1        1 E11      0.081667
@<TRIPOS>BOND
     1    1    6 1   
     2    2    3 1   
     3    2   14 1   
     4    4    5 1   
     5    4    7 1   
     6    5    6 1   
     7    6   13 1   
     8    7    8 1   
     9    7   36 1   
    10    8    9 1   
    11    9   10 1   
    12    9   11 1   
    13   10   37 1   
    14   11   35 1   
    15   12   34 1   
    16   13   21 1   
    17   13   38 1   
    18   14   15 1   
    19   14   39 1   
    20   15   16 1   
    21   15   40 1   
    22   15   41 1   
    23   16   17 1   
    24   16   42 1   
    25   16   43 1   
    26   17   18 1   
    27   17   44 1   
    28   17   45 1   
    29   18   19 1   
    30   18   20 1   
    31   19   46 1   
    32   19   47 1   
    33   19   48 1   
    34   20   49 1   
    35   20   50 1   
    36   20   51 1   
    37   21   22 1   
    38   21   26 1   
    39   21   52 1   
    40   22   23 1   
    41   22   53 1   
    42   22   54 1   
    43   23   24 1   
    44   23   55 1   
    45   23   56 1   
    46   24   25 1   
    47   24   27 1   
    48   25   26 1   
    49   25   57 1   
    50   25   58 1   
    51   26   59 1   
    52   26   60 1   
    53   27   28 1   
    54   27   61 1   
    55   27   62 1   
    56   28   29 1   
    57   28   33 1   
    58   29   30 1   
    59   29   63 1   
    60   30   64 1   
    61   31   32 1   
    62   31   65 1   
    63   32   66 1   
    64   33   67 1   
    65   34   68 1   
    66   34   69 1   
    67   34   70 1   
    68   35   71 1   
    69   35   72 1   
    70   35   73 1   
@<TRIPOS>SUBSTRUCTURE
     1 E11         1 TEMP              0 ****  ****    0 ROOT
