@<TRIPOS>MOLECULE
E11
   76    79     1     0     0
SMALL
bcc


@<TRIPOS>ATOM
      1 N1          0.3850   -0.3710   -0.7660 nb        1 E11     -0.687000
      2 C2          1.6090    0.2360   -0.6140 ca        1 E11      0.680900
      3 N3          2.1300    0.7780    0.5180 nb        1 E11     -0.627000
      4 C4          1.3410    0.7400    1.6290 ca        1 E11      0.472600
      5 C5          0.0070    0.1510    1.6010 ca        1 E11     -0.150600
      6 C6         -0.3950   -0.4020    0.3410 ca        1 E11      0.527200
      7 CAC         1.8300    1.2960    2.8520 ca        1 E11     -0.282300
      8 CAD         1.0520    1.2830    3.9890 ca        1 E11      0.210100
      9 CAE        -0.2890    0.6980    3.9530 ca        1 E11      0.249100
     10 CAF        -0.7770    0.1580    2.7710 ca        1 E11     -0.279000
     11 OAK        -0.9370    0.7580    5.1300 os        1 E11     -0.238900
     12 OAL         1.3960    1.7750    5.1990 os        1 E11     -0.251900
     13 NAM        -1.7080   -1.0630    0.1950 n4        1 E11     -0.761700
     14 NAN         2.4470    0.3350   -1.8540 n4        1 E11     -0.729700
     15 CAO         3.7380   -0.4130   -1.7200 c3        1 E11      0.112800
     16 CAP         4.5960   -0.3210   -2.9850 c3        1 E11     -0.136400
     17 CAQ         5.9060   -1.0710   -2.7340 c3        1 E11      0.106800
     18 NAR         6.8850   -0.9860   -3.8650 n4        1 E11     -0.678400
     19 CAS         8.2560   -1.3420   -3.3890 c3        1 E11      0.078100
     20 CAU         6.4960   -1.8630   -5.0050 c3        1 E11      0.078100
     21 CAV        -2.7920   -0.1550   -0.3850 c3        1 E11      0.137500
     22 CAW        -3.3320    0.8140    0.6660 c3        1 E11     -0.109900
     23 CAX        -4.4530    1.6600    0.0430 c3        1 E11      0.174800
     24 NAY        -5.5130    0.8260   -0.4920 n3        1 E11     -0.744600
     25 CAZ        -5.0230   -0.0900   -1.5040 c3        1 E11      0.174800
     26 CBA        -3.9260   -1.0140   -0.9570 c3        1 E11     -0.109900
     27 CBB        -6.6900    1.5940   -0.8970 c3        1 E11      0.227100
     28 CBC        -7.8370    0.7480   -1.3570 ca        1 E11     -0.129300
     29 CBD        -8.4600   -0.1380   -0.4710 ca        1 E11     -0.117500
     30 CBE        -9.5690   -0.8750   -0.8830 ca        1 E11     -0.124000
     31 CBF       -10.0630   -0.7280   -2.1800 ca        1 E11     -0.103000
     32 CBG        -9.4460    0.1570   -3.0650 ca        1 E11     -0.124000
     33 CBH        -8.3340    0.8930   -2.6570 ca        1 E11     -0.117500
     34 CBI         2.6860    2.3910    5.3340 c3        1 E11      0.096700
     35 CBJ        -2.2630    0.2120    5.2160 c3        1 E11      0.094700
     36 HAC         2.8390    1.7450    2.8720 ha        1 E11      0.195000
     37 HAF        -1.8020   -0.2430    2.7730 ha        1 E11      0.161000
     38 HNAM       -2.0090   -1.3960    1.1200 hn        1 E11      0.470300
     39 HNAN        2.6390    1.3350   -2.0210 hn        1 E11      0.480300
     40 HAO         3.4880   -1.4900   -1.4940 hx        1 E11      0.129700
     41 HAOA        4.3030    0.0180   -0.8400 hx        1 E11      0.129700
     42 HAP         4.0520   -0.7730   -3.8570 hc        1 E11      0.090700
     43 HAPA        4.8090    0.7560   -3.2300 hc        1 E11      0.090700
     44 HAQ         6.4100   -0.6440   -1.8160 hx        1 E11      0.118200
     45 HAQA        5.6950   -2.1640   -2.5460 hx        1 E11      0.118200
     46 HAS         8.2530   -2.3850   -2.9720 hx        1 E11      0.118867
     47 HASA        8.9690   -1.2900   -4.2580 hx        1 E11      0.118867
     48 HASB        8.5820   -0.6140   -2.5970 hx        1 E11      0.118867
     49 HAU         6.5120   -2.9390   -4.6800 hx        1 E11      0.118867
     50 HAUA        7.2320   -1.7230   -5.8460 hx        1 E11      0.118867
     51 HAUB        5.4690   -1.5860   -5.3610 hx        1 E11      0.118867
     52 HAV        -2.3040    0.4260   -1.2230 hx        1 E11      0.106700
     53 HAW        -3.7440    0.2510    1.5450 hc        1 E11      0.070950
     54 HAWA       -2.5230    1.5000    1.0260 hc        1 E11      0.070950
     55 HAX        -3.9960    2.3370   -0.7370 h1        1 E11      0.066700
     56 HAXA       -4.8880    2.3120    0.8540 h1        1 E11      0.066700
     57 HAZ        -4.6150    0.4470   -2.4110 h1        1 E11      0.066700
     58 HAZA       -5.8890   -0.7330   -1.8400 h1        1 E11      0.066700
     59 HBA        -3.5560   -1.6550   -1.7980 hc        1 E11      0.070950
     60 HBAA       -4.3630   -1.6750   -0.1630 hc        1 E11      0.070950
     61 HBB        -7.0220    2.1780    0.0110 h1        1 E11      0.055200
     62 HBBA       -6.4220    2.3370   -1.7060 h1        1 E11      0.055200
     63 HBD        -8.0810   -0.2400    0.5570 ha        1 E11      0.132000
     64 HBE       -10.0630   -1.5630   -0.1810 ha        1 E11      0.148500
     65 HBF       -10.9470   -1.3020   -2.5020 ha        1 E11      0.153000
     66 HBG        -9.8430    0.2830   -4.0840 ha        1 E11      0.148500
     67 HBH        -7.8620    1.6000   -3.3560 ha        1 E11      0.132000
     68 HBI         2.6880    2.7030    6.4140 h1        1 E11      0.082367
     69 HBIA        3.4920    1.6470    5.1290 h1        1 E11      0.082367
     70 HBIB        2.7620    3.2780    4.6610 h1        1 E11      0.082367
     71 HBJ        -2.9510    0.7580    4.5280 h1        1 E11      0.083033
     72 HBJA       -2.2430   -0.8830    5.0020 h1        1 E11      0.083033
     73 HBJB       -2.5290    0.4070    6.2910 h1        1 E11      0.083033
     74 HAM2       -1.6200   -1.8820   -0.4270 hn        1 E11      0.470300
     75 HAN2        1.9110   -0.0350   -2.6530 hn        1 E11      0.480300
     76 HAR1        6.9100   -0.0130   -4.2040 hn        1 E11      0.457800
@<TRIPOS>BOND
     1    1    2 ar  
     2    1    6 ar  
     3    2    3 ar  
     4    2   14 1   
     5    3    4 ar  
     6    4    5 ar  
     7    4    7 ar  
     8    5    6 ar  
     9    5   10 ar  
    10    6   13 1   
    11    7    8 ar  
    12    7   36 1   
    13    8    9 ar  
    14    8   12 1   
    15    9   10 ar  
    16    9   11 1   
    17   10   37 1   
    18   11   35 1   
    19   12   34 1   
    20   13   21 1   
    21   13   38 1   
    22   13   74 1   
    23   14   15 1   
    24   14   39 1   
    25   14   75 1   
    26   15   16 1   
    27   15   40 1   
    28   15   41 1   
    29   16   17 1   
    30   16   42 1   
    31   16   43 1   
    32   17   18 1   
    33   17   44 1   
    34   17   45 1   
    35   18   19 1   
    36   18   20 1   
    37   18   76 1   
    38   19   46 1   
    39   19   47 1   
    40   19   48 1   
    41   20   49 1   
    42   20   50 1   
    43   20   51 1   
    44   21   22 1   
    45   21   26 1   
    46   21   52 1   
    47   22   23 1   
    48   22   53 1   
    49   22   54 1   
    50   23   24 1   
    51   23   55 1   
    52   23   56 1   
    53   24   25 1   
    54   24   27 1   
    55   25   26 1   
    56   25   57 1   
    57   25   58 1   
    58   26   59 1   
    59   26   60 1   
    60   27   28 1   
    61   27   61 1   
    62   27   62 1   
    63   28   29 ar  
    64   28   33 ar  
    65   29   30 ar  
    66   29   63 1   
    67   30   31 ar  
    68   30   64 1   
    69   31   32 ar  
    70   31   65 1   
    71   32   33 ar  
    72   32   66 1   
    73   33   67 1   
    74   34   68 1   
    75   34   69 1   
    76   34   70 1   
    77   35   71 1   
    78   35   72 1   
    79   35   73 1   
@<TRIPOS>SUBSTRUCTURE
     1 E11         1 TEMP              0 ****  ****    0 ROOT
