@<TRIPOS>MOLECULE
E11
   74    77     1     0     0
SMALL
bcc


@<TRIPOS>ATOM
      1 N1         -0.0290   -0.0030   -0.0990 nb        1 E11     -0.819000
      2 C2          1.3670    0.0300   -0.0640 ca        1 E11      0.874900
      3 N3          2.1420    0.0650    1.0490 nb        1 E11     -0.785000
      4 C4          1.4790    0.1090    2.2570 ca        1 E11      0.479600
      5 C5          0.0570    0.0910    2.3530 ca        1 E11     -0.304600
      6 C6         -0.6790    0.0210    1.0890 ca        1 E11      0.737200
      7 CAC         2.2560    0.1720    3.4570 ca        1 E11     -0.273300
      8 CAD         1.6340    0.2110    4.6850 ca        1 E11      0.160100
      9 CAE         0.1980    0.1850    4.7730 ca        1 E11      0.103100
     10 CAF        -0.5620    0.1250    3.6260 ca        1 E11     -0.154000
     11 OAK        -0.2910    0.2250    6.0600 os        1 E11     -0.295900
     12 OAL         2.2770    0.2740    5.8980 os        1 E11     -0.292900
     13 NAM        -2.0610   -0.0990    1.1150 nu        1 E11     -0.839900
     14 NAN         1.9920    0.1030   -1.3490 nu        1 E11     -0.816900
     15 CAO         3.3620   -0.3410   -1.4440 c3        1 E11      0.200800
     16 CAP         3.9420   -0.0660   -2.8410 c3        1 E11     -0.123400
     17 CAQ         5.4250   -0.4040   -2.8030 c3        1 E11      0.106800
     18 NAR         6.1490   -0.0300   -4.0670 nx        1 E11     -0.680400
     19 CAS         7.6150    0.0330   -3.8310 c3        1 E11      0.081600
     20 CAU         5.8360   -0.9730   -5.1720 c3        1 E11      0.081600
     21 CAV        -2.8870   -0.0110   -0.0770 c3        1 E11      0.213500
     22 CAW        -3.0330    1.4160   -0.6290 c3        1 E11     -0.095400
     23 CAX        -3.9130    1.4140   -1.8760 c3        1 E11      0.170800
     24 NAY        -5.2210    0.8150   -1.6500 n3        1 E11     -0.731600
     25 CAZ        -5.1300   -0.5210   -1.0780 c3        1 E11      0.170800
     26 CBA        -4.2940   -0.5690    0.1990 c3        1 E11     -0.095400
     27 CBB        -6.0500    0.8610   -2.8500 c3        1 E11      0.218100
     28 CBC        -7.4760    0.4530   -2.6250 ca        1 E11     -0.095300
     29 CBD        -8.2430    1.0650   -1.6280 ca        1 E11     -0.118500
     30 CBE        -9.5830    0.7150   -1.4620 ca        1 E11     -0.132000
     31 CBF       -10.1640   -0.2450   -2.2910 ca        1 E11     -0.124000
     32 CBG        -9.4030   -0.8560   -3.2870 ca        1 E11     -0.132000
     33 CBH        -8.0620   -0.5110   -3.4540 ca        1 E11     -0.118500
     34 CBI         3.7010    0.3080    5.8570 c3        1 E11      0.106700
     35 CBJ        -1.7080    0.1760    6.1990 c3        1 E11      0.106700
     36 HAC         3.3530    0.1900    3.3770 ha        1 E11      0.156000
     37 HAF        -1.6570    0.0950    3.7180 ha        1 E11      0.140000
     38 HNAM       -2.5030    0.2190    1.9490 hn        1 E11      0.425800
     39 HNAN        1.4100   -0.2530   -2.0820 hn        1 E11      0.410800
     40 HAO         3.9750    0.2250   -0.6840 h1        1 E11      0.060700
     41 HAOA        3.4720   -1.4430   -1.2230 h1        1 E11      0.060700
     42 HAP         3.7860    1.0140   -3.1060 hc        1 E11      0.071700
     43 HAPA        3.4120   -0.6910   -3.6060 hc        1 E11      0.071700
     44 HAQ         5.5720   -1.5090   -2.6350 hx        1 E11      0.107700
     45 HAQA        5.9170    0.1560   -1.9540 hx        1 E11      0.107700
     46 HAS         8.1350    0.2910   -4.7930 hx        1 E11      0.106367
     47 HASA        7.9780   -0.9640   -3.4640 hx        1 E11      0.106367
     48 HASB        7.8370    0.8200   -3.0610 hx        1 E11      0.106367
     49 HAU         4.7250   -1.0000   -5.3340 hx        1 E11      0.106367
     50 HAUA        6.2010   -2.0010   -4.9050 hx        1 E11      0.106367
     51 HAUB        6.3450   -0.6280   -6.1120 hx        1 E11      0.106367
     52 HAV        -2.4100   -0.6540   -0.8770 h1        1 E11      0.079700
     53 HAW        -2.0300    1.8290   -0.9080 hc        1 E11      0.056700
     54 HAWA       -3.4810    2.0840    0.1500 hc        1 E11      0.056700
     55 HAX        -4.0770    2.4820   -2.1970 h1        1 E11      0.037450
     56 HAXA       -3.3540    0.8900   -2.7080 h1        1 E11      0.037450
     57 HAZ        -4.6970   -1.2600   -1.8160 h1        1 E11      0.037450
     58 HAZA       -6.1790   -0.8540   -0.8340 h1        1 E11      0.037450
     59 HBA        -4.7960    0.0260    1.0050 hc        1 E11      0.056700
     60 HBAA       -4.2320   -1.6340    0.5390 hc        1 E11      0.056700
     61 HBB        -6.0530    1.9310   -3.2120 h1        1 E11      0.039200
     62 HBBA       -5.6090    0.2260   -3.6760 h1        1 E11      0.039200
     63 HBD        -7.7850    1.8230   -0.9750 ha        1 E11      0.136000
     64 HBE       -10.1820    1.1980   -0.6770 ha        1 E11      0.134500
     65 HBF       -11.2220   -0.5180   -2.1610 ha        1 E11      0.135000
     66 HBG        -9.8590   -1.6110   -3.9430 ha        1 E11      0.134500
     67 HBH        -7.4670   -0.9960   -4.2420 ha        1 E11      0.136000
     68 HBI         3.9850    0.3620    6.9390 h1        1 E11      0.050367
     69 HBIA        4.0580    1.2140    5.3080 h1        1 E11      0.050367
     70 HBIB        4.1040   -0.6220    5.3870 h1        1 E11      0.050367
     71 HBJ        -2.1830    1.0610    5.7110 h1        1 E11      0.049700
     72 HBJA       -1.8560    0.2090    7.3080 h1        1 E11      0.049700
     73 HBJB       -2.1150   -0.7740    5.7750 h1        1 E11      0.049700
     74 HAR1        5.8250    0.9080   -4.3470 hn        1 E11      0.452800
@<TRIPOS>BOND
     1    1    2 ar  
     2    1    6 ar  
     3    2    3 ar  
     4    2   14 1   
     5    3    4 ar  
     6    4    5 ar  
     7    4    7 ar  
     8    5    6 ar  
     9    5   10 ar  
    10    6   13 1   
    11    7    8 ar  
    12    7   36 1   
    13    8    9 ar  
    14    8   12 1   
    15    9   10 ar  
    16    9   11 1   
    17   10   37 1   
    18   11   35 1   
    19   12   34 1   
    20   13   21 1   
    21   13   38 1   
    22   14   15 1   
    23   14   39 1   
    24   15   16 1   
    25   15   40 1   
    26   15   41 1   
    27   16   17 1   
    28   16   42 1   
    29   16   43 1   
    30   17   18 1   
    31   17   44 1   
    32   17   45 1   
    33   18   19 1   
    34   18   20 1   
    35   18   74 1   
    36   19   46 1   
    37   19   47 1   
    38   19   48 1   
    39   20   49 1   
    40   20   50 1   
    41   20   51 1   
    42   21   22 1   
    43   21   26 1   
    44   21   52 1   
    45   22   23 1   
    46   22   53 1   
    47   22   54 1   
    48   23   24 1   
    49   23   55 1   
    50   23   56 1   
    51   24   25 1   
    52   24   27 1   
    53   25   26 1   
    54   25   57 1   
    55   25   58 1   
    56   26   59 1   
    57   26   60 1   
    58   27   28 1   
    59   27   61 1   
    60   27   62 1   
    61   28   29 ar  
    62   28   33 ar  
    63   29   30 ar  
    64   29   63 1   
    65   30   31 ar  
    66   30   64 1   
    67   31   32 ar  
    68   31   65 1   
    69   32   33 ar  
    70   32   66 1   
    71   33   67 1   
    72   34   68 1   
    73   34   69 1   
    74   34   70 1   
    75   35   71 1   
    76   35   72 1   
    77   35   73 1   
@<TRIPOS>SUBSTRUCTURE
     1 E11         1 TEMP              0 ****  ****    0 ROOT
