@<TRIPOS>MOLECULE
E11
   74    77     1     0     0
SMALL
bcc


@<TRIPOS>ATOM
      1 N1         -0.0290   -0.0040   -0.1000 nb        1 E11     -0.819000
      2 C2          1.3670    0.0290   -0.0640 ca        1 E11      0.874900
      3 N3          2.1420    0.0600    1.0480 nb        1 E11     -0.785000
      4 C4          1.4790    0.1020    2.2570 ca        1 E11      0.479600
      5 C5          0.0580    0.0840    2.3530 ca        1 E11     -0.304600
      6 C6         -0.6790    0.0170    1.0880 ca        1 E11      0.737200
      7 CAC         2.2560    0.1620    3.4570 ca        1 E11     -0.273300
      8 CAD         1.6350    0.1980    4.6850 ca        1 E11      0.160100
      9 CAE         0.1990    0.1720    4.7730 ca        1 E11      0.103100
     10 CAF        -0.5610    0.1150    3.6250 ca        1 E11     -0.154000
     11 OAK        -0.2900    0.2080    6.0600 os        1 E11     -0.295900
     12 OAL         2.2780    0.2580    5.8970 os        1 E11     -0.292900
     13 NAM        -2.0600   -0.1020    1.1150 nh        1 E11     -0.839900
     14 NAN         1.9920    0.1050   -1.3490 nh        1 E11     -0.816900
     15 CAO         3.3620   -0.3380   -1.4450 c3        1 E11      0.200800
     16 CAP         3.9410   -0.0630   -2.8430 c3        1 E11     -0.123400
     17 CAQ         5.4250   -0.4000   -2.8050 c3        1 E11      0.106800
     18 NAR         6.1460   -0.0270   -4.0710 n4        1 E11     -0.680400
     19 CAS         7.6130    0.0390   -3.8360 c3        1 E11      0.081600
     20 CAU         5.8350   -0.9750   -5.1730 c3        1 E11      0.081600
     21 CAV        -2.8870   -0.0110   -0.0770 c3        1 E11      0.213500
     22 CAW        -3.0310    1.4170   -0.6260 c3        1 E11     -0.095400
     23 CAX        -3.9120    1.4190   -1.8730 c3        1 E11      0.170800
     24 NAY        -5.2210    0.8210   -1.6480 n3        1 E11     -0.731600
     25 CAZ        -5.1300   -0.5160   -1.0780 c3        1 E11      0.170800
     26 CBA        -4.2940   -0.5680    0.1980 c3        1 E11     -0.095400
     27 CBB        -6.0500    0.8700   -2.8470 c3        1 E11      0.218100
     28 CBC        -7.4770    0.4630   -2.6230 ca        1 E11     -0.095300
     29 CBD        -8.2430    1.0760   -1.6250 ca        1 E11     -0.118500
     30 CBE        -9.5820    0.7270   -1.4590 ca        1 E11     -0.132000
     31 CBF       -10.1650   -0.2310   -2.2880 ca        1 E11     -0.124000
     32 CBG        -9.4050   -0.8420   -3.2850 ca        1 E11     -0.132000
     33 CBH        -8.0640   -0.4990   -3.4510 ca        1 E11     -0.118500
     34 CBI         3.7030    0.2920    5.8560 c3        1 E11      0.106700
     35 CBJ        -1.7060    0.1590    6.1990 c3        1 E11      0.106700
     36 HAC         3.3530    0.1800    3.3770 ha        1 E11      0.156000
     37 HAF        -1.6560    0.0840    3.7180 ha        1 E11      0.140000
     38 HNAM       -2.5030    0.2150    1.9490 hn        1 E11      0.425800
     39 HNAN        1.4100   -0.2500   -2.0830 hn        1 E11      0.410800
     40 HAO         3.9750    0.2280   -0.6860 h1        1 E11      0.060700
     41 HAOA        3.4730   -1.4400   -1.2240 h1        1 E11      0.060700
     42 HAP         3.4110   -0.6900   -3.6070 hc        1 E11      0.071700
     43 HAPA        3.7830    1.0160   -3.1090 hc        1 E11      0.071700
     44 HAQ         5.5730   -1.5040   -2.6340 hx        1 E11      0.108200
     45 HAQA        5.9160    0.1640   -1.9580 hx        1 E11      0.108200
     46 HAS         8.1320    0.2950   -4.7980 hx        1 E11      0.106367
     47 HASA        7.9780   -0.9550   -3.4650 hx        1 E11      0.106367
     48 HASB        7.8330    0.8300   -3.0690 hx        1 E11      0.106367
     49 HAU         6.3430   -0.6310   -6.1140 hx        1 E11      0.106367
     50 HAUA        6.2030   -2.0010   -4.9030 hx        1 E11      0.106367
     51 HAUB        4.7240   -1.0050   -5.3340 hx        1 E11      0.106367
     52 HAV        -2.4110   -0.6520   -0.8780 h1        1 E11      0.079700
     53 HAW        -2.0280    1.8300   -0.9050 hc        1 E11      0.056700
     54 HAWA       -3.4790    2.0850    0.1550 hc        1 E11      0.056700
     55 HAX        -4.0750    2.4870   -2.1920 h1        1 E11      0.037450
     56 HAXA       -3.3540    0.8960   -2.7060 h1        1 E11      0.037450
     57 HAZ        -4.6990   -1.2540   -1.8180 h1        1 E11      0.037450
     58 HAZA       -6.1790   -0.8490   -0.8350 h1        1 E11      0.037450
     59 HBA        -4.2330   -1.6340    0.5360 hc        1 E11      0.056700
     60 HBAA       -4.7960    0.0250    1.0050 hc        1 E11      0.056700
     61 HBB        -5.6100    0.2360   -3.6750 h1        1 E11      0.039200
     62 HBBA       -6.0510    1.9410   -3.2070 h1        1 E11      0.039200
     63 HBD        -7.7830    1.8330   -0.9720 ha        1 E11      0.136000
     64 HBE       -10.1810    1.2120   -0.6730 ha        1 E11      0.134500
     65 HBF       -11.2230   -0.5020   -2.1580 ha        1 E11      0.135000
     66 HBG        -9.8630   -1.5970   -3.9420 ha        1 E11      0.134500
     67 HBH        -7.4700   -0.9850   -4.2400 ha        1 E11      0.136000
     68 HBI         4.0590    1.1980    5.3100 h1        1 E11      0.050367
     69 HBIA        4.1050   -0.6370    5.3840 h1        1 E11      0.050367
     70 HBIB        3.9870    0.3430    6.9390 h1        1 E11      0.050367
     71 HBJ        -2.1820    1.0450    5.7130 h1        1 E11      0.049700
     72 HBJA       -1.8550    0.1900    7.3090 h1        1 E11      0.049700
     73 HBJB       -2.1130   -0.7910    5.7730 h1        1 E11      0.049700
     74 HAR1        5.8210    0.9090   -4.3540 hn        1 E11      0.452800
@<TRIPOS>BOND
     1    1    2 ar  
     2    1    6 ar  
     3    2    3 ar  
     4    2   14 1   
     5    3    4 ar  
     6    4    5 ar  
     7    4    7 ar  
     8    5    6 ar  
     9    5   10 ar  
    10    6   13 1   
    11    7    8 ar  
    12    7   36 1   
    13    8    9 ar  
    14    8   12 1   
    15    9   10 ar  
    16    9   11 1   
    17   10   37 1   
    18   11   35 1   
    19   12   34 1   
    20   13   21 1   
    21   13   38 1   
    22   14   15 1   
    23   14   39 1   
    24   15   16 1   
    25   15   40 1   
    26   15   41 1   
    27   16   17 1   
    28   16   42 1   
    29   16   43 1   
    30   17   18 1   
    31   17   44 1   
    32   17   45 1   
    33   18   19 1   
    34   18   20 1   
    35   18   74 1   
    36   19   46 1   
    37   19   47 1   
    38   19   48 1   
    39   20   49 1   
    40   20   50 1   
    41   20   51 1   
    42   21   22 1   
    43   21   26 1   
    44   21   52 1   
    45   22   23 1   
    46   22   53 1   
    47   22   54 1   
    48   23   24 1   
    49   23   55 1   
    50   23   56 1   
    51   24   25 1   
    52   24   27 1   
    53   25   26 1   
    54   25   57 1   
    55   25   58 1   
    56   26   59 1   
    57   26   60 1   
    58   27   28 1   
    59   27   61 1   
    60   27   62 1   
    61   28   29 ar  
    62   28   33 ar  
    63   29   30 ar  
    64   29   63 1   
    65   30   31 ar  
    66   30   64 1   
    67   31   32 ar  
    68   31   65 1   
    69   32   33 ar  
    70   32   66 1   
    71   33   67 1   
    72   34   68 1   
    73   34   69 1   
    74   34   70 1   
    75   35   71 1   
    76   35   72 1   
    77   35   73 1   
@<TRIPOS>SUBSTRUCTURE
     1 E11         1 TEMP              0 ****  ****    0 ROOT
