@<TRIPOS>MOLECULE
E12
   82    85     1     0     0
SMALL
bcc


@<TRIPOS>ATOM
      1 C1         -2.6230    1.2310   10.5870 c         1 E12      0.685200
      2 N2         -1.7370    0.6680   11.5230 n         1 E12     -0.440600
      3 O7         -3.6240    1.8390   11.0170 o         1 E12     -0.646500
      4 C4         -0.2760   -0.1830    9.8100 cc        1 E12     -0.210200
      5 C5         -1.1600    0.3650    8.8240 cc        1 E12     -0.029500
      6 C14         1.2580   -1.5780   11.7650 c3        1 E12     -0.073900
      7 N17         1.6170   -0.4400    8.1830 n3        1 E12     -0.828700
      8 C24         1.2260   -1.0520    6.9290 c3        1 E12      0.164800
      9 C6         -2.2800    1.0420    9.1810 cd        1 E12     -0.262200
     10 C9          0.2640   -0.5520   12.2600 c3        1 E12     -0.054700
     11 C10         0.9400   -0.9620    9.3650 c3        1 E12      0.245200
     12 C13         1.9540   -1.0870   10.5180 c3        1 E12     -0.095400
     13 C63         1.3330   -0.1180    5.7240 c3        1 E12     -0.087400
     14 C29        -1.8460   -1.0460  -12.5690 c         1 E12      0.685200
     15 C3         -0.5970   -0.0210   11.1480 cd        1 E12      0.076400
     16 N30        -0.6740   -0.2730  -12.6660 n         1 E12     -0.440600
     17 C31        -0.1100    0.3580  -11.5720 cc        1 E12      0.076400
     18 C32        -0.6780    0.2400  -10.3170 cd        1 E12     -0.210200
     19 C33        -1.8890   -0.5180  -10.1770 cd        1 E12     -0.029500
     20 C34        -2.4520   -1.1390  -11.2440 cc        1 E12     -0.262200
     21 O35        -2.2780   -1.5850  -13.6080 o         1 E12     -0.646500
     22 C36         1.1370    1.1610  -11.8170 c3        1 E12     -0.054700
     23 C37        -0.1180    0.9280   -9.0970 c3        1 E12      0.245200
     24 C38         1.2950    1.4810   -9.3610 c3        1 E12     -0.095400
     25 C39         1.3690    2.1620  -10.7060 c3        1 E12     -0.073900
     26 N40        -0.2060    0.0650   -7.9220 n3        1 E12     -0.828700
     27 C41         0.1370    0.7180   -6.6760 c3        1 E12      0.164800
     28 C64         0.9980   -0.8660    4.4520 c3        1 E12     -0.078900
     29 C65         1.0910    0.0430    3.2440 c3        1 E12     -0.079400
     30 C66         0.7600   -0.7040    1.9700 c3        1 E12     -0.079400
     31 C67         0.8490    0.2050    0.7630 c3        1 E12     -0.079400
     32 C68         0.5220   -0.5420   -0.5120 c3        1 E12     -0.079400
     33 C69         0.6090    0.3670   -1.7190 c3        1 E12     -0.079400
     34 C70         0.2850   -0.3820   -2.9940 c3        1 E12     -0.079400
     35 C71         0.3690    0.5290   -4.2010 c3        1 E12     -0.078900
     36 C72         0.0460   -0.2230   -5.4740 c3        1 E12     -0.087400
     37 H2         -1.9440    0.7720   12.4930 hn        1 E12      0.329000
     38 H5         -0.9220    0.2270    7.7560 ha        1 E12      0.148500
     39 H141        0.7330   -2.5470   11.5530 hc        1 E12      0.050700
     40 H142        2.0140   -1.7750   12.5700 hc        1 E12      0.050700
     41 H17         1.5450    0.5580    8.1460 hn        1 E12      0.365300
     42 H241        1.9160   -1.9300    6.7720 h1        1 E12      0.031200
     43 H242        0.1740   -1.4660    6.9590 h1        1 E12      0.031200
     44 H6         -2.9810    1.4760    8.4540 ha        1 E12      0.162500
     45 H9C1        0.8150    0.3150   12.7190 hc        1 E12      0.061200
     46 H9C2       -0.3720   -1.0110   13.0650 hc        1 E12      0.061200
     47 H10         0.5780   -2.0130    9.1320 h1        1 E12      0.059700
     48 H131        2.7600   -1.8070   10.2230 hc        1 E12      0.051200
     49 H132        2.4390   -0.0970   10.7170 hc        1 E12      0.051200
     50 H631        0.6310    0.7480    5.8480 hc        1 E12      0.046950
     51 H632        2.3720    0.2990    5.6530 hc        1 E12      0.046950
     52 H33        -2.3580   -0.5830   -9.1810 ha        1 E12      0.148500
     53 H34        -3.3760   -1.7290  -11.1800 ha        1 E12      0.162500
     54 H361        1.0750    1.7040  -12.7980 hc        1 E12      0.061200
     55 H362        2.0080    0.4520  -11.8790 hc        1 E12      0.061200
     56 H37        -0.7930    1.8170   -8.8900 h1        1 E12      0.059700
     57 H381        1.5570    2.2180   -8.5580 hc        1 E12      0.051200
     58 H382        2.0490    0.6520   -9.3190 hc        1 E12      0.051200
     59 H391        0.6020    2.9780  -10.7630 hc        1 E12      0.050700
     60 H392        2.3770    2.6350  -10.8400 hc        1 E12      0.050700
     61 H40         0.3400   -0.7650   -8.0540 hn        1 E12      0.365300
     62 H411       -0.5850    1.5700   -6.5270 h1        1 E12      0.031200
     63 H412        1.1770    1.1620   -6.6940 h1        1 E12      0.031200
     64 H641        1.7020   -1.7300    4.3270 hc        1 E12      0.041200
     65 H642       -0.0380   -1.2910    4.5240 hc        1 E12      0.041200
     66 H651        0.3850    0.9060    3.3680 hc        1 E12      0.041200
     67 H652        2.1260    0.4690    3.1730 hc        1 E12      0.041200
     68 H661        1.4660   -1.5660    1.8450 hc        1 E12      0.040450
     69 H662       -0.2750   -1.1320    2.0420 hc        1 E12      0.040450
     70 H671        0.1410    1.0660    0.8870 hc        1 E12      0.039950
     71 H672        1.8830    0.6350    0.6920 hc        1 E12      0.039950
     72 H681        1.2320   -1.4020   -0.6370 hc        1 E12      0.039950
     73 H682       -0.5110   -0.9750   -0.4410 hc        1 E12      0.039950
     74 H691       -0.1030    1.2250   -1.5950 hc        1 E12      0.040450
     75 H692        1.6410    0.8010   -1.7900 hc        1 E12      0.040450
     76 H701        0.9980   -1.2390   -3.1190 hc        1 E12      0.041200
     77 H702       -0.7470   -0.8170   -2.9240 hc        1 E12      0.041200
     78 H711       -0.3460    1.3840   -4.0770 hc        1 E12      0.041200
     79 H712        1.4000    0.9660   -4.2700 hc        1 E12      0.041200
     80 H721        0.7620   -1.0770   -5.5990 hc        1 E12      0.046950
     81 H722       -0.9850   -0.6590   -5.4060 hc        1 E12      0.046950
     82 H30        -0.2450   -0.1730  -13.5590 hn        1 E12      0.329000
@<TRIPOS>BOND
     1    1    2 1   
     2    1    3 2   
     3    1    9 1   
     4    2   15 1   
     5    2   37 1   
     6    4    5 1   
     7    4   11 1   
     8    4   15 2   
     9    5    9 2   
    10    5   38 1   
    11    6   10 1   
    12    6   12 1   
    13    6   39 1   
    14    6   40 1   
    15    7    8 1   
    16    7   11 1   
    17    7   41 1   
    18    8   13 1   
    19    8   42 1   
    20    8   43 1   
    21    9   44 1   
    22   10   15 1   
    23   10   45 1   
    24   10   46 1   
    25   11   12 1   
    26   11   47 1   
    27   12   48 1   
    28   12   49 1   
    29   13   28 1   
    30   13   50 1   
    31   13   51 1   
    32   14   16 1   
    33   14   20 1   
    34   14   21 2   
    35   16   17 1   
    36   16   82 1   
    37   17   18 2   
    38   17   22 1   
    39   18   19 1   
    40   18   23 1   
    41   19   20 2   
    42   19   52 1   
    43   20   53 1   
    44   22   25 1   
    45   22   54 1   
    46   22   55 1   
    47   23   24 1   
    48   23   26 1   
    49   23   56 1   
    50   24   25 1   
    51   24   57 1   
    52   24   58 1   
    53   25   59 1   
    54   25   60 1   
    55   26   27 1   
    56   26   61 1   
    57   27   36 1   
    58   27   62 1   
    59   27   63 1   
    60   28   29 1   
    61   28   64 1   
    62   28   65 1   
    63   29   30 1   
    64   29   66 1   
    65   29   67 1   
    66   30   31 1   
    67   30   68 1   
    68   30   69 1   
    69   31   32 1   
    70   31   70 1   
    71   31   71 1   
    72   32   33 1   
    73   32   72 1   
    74   32   73 1   
    75   33   34 1   
    76   33   74 1   
    77   33   75 1   
    78   34   35 1   
    79   34   76 1   
    80   34   77 1   
    81   35   36 1   
    82   35   78 1   
    83   35   79 1   
    84   36   80 1   
    85   36   81 1   
@<TRIPOS>SUBSTRUCTURE
     1 E12         1 TEMP              0 ****  ****    0 ROOT
