@<TRIPOS>MOLECULE
E12
   84    87     1     0     0
SMALL
bcc


@<TRIPOS>ATOM
      1 C1         -0.0770   -0.2730   -0.1130 c         1 E12      0.684700
      2 N2          1.3400   -0.3900   -0.0620 ns        1 E12     -0.428100
      3 O7         -0.6380   -0.5060   -1.1900 o         1 E12     -0.554500
      4 C4          1.3990    0.0830    2.2890 cc        1 E12     -0.335200
      5 C5         -0.0220    0.3000    2.2700 cc        1 E12     -0.068000
      6 C14         4.1550    0.5700    2.1370 c3        1 E12     -0.074400
      7 N17         1.5630   -0.7530    4.5850 ny        1 E12     -0.776000
      8 C24         1.9080   -0.4120    5.9930 c3        1 E12      0.098800
      9 C6         -0.7360    0.1270    1.1350 cd        1 E12     -0.214200
     10 C9          3.5510   -0.2680    1.0310 c3        1 E12     -0.079200
     11 C10         2.1210    0.2540    3.5790 c3        1 E12      0.233700
     12 C13         3.6460    0.1160    3.4860 c3        1 E12     -0.100400
     13 C63         1.3630   -1.4240    6.9950 c3        1 E12     -0.108400
     14 C29        -0.2280   -2.6660   25.3690 c         1 E12      0.684700
     15 C3          2.0510   -0.1980    1.0900 cd        1 E12      0.166400
     16 N30         0.4990   -3.8790   25.2060 ns        1 E12     -0.428100
     17 C31         0.5540   -4.5460   24.0150 cc        1 E12      0.166400
     18 C32        -0.0750   -4.0330   22.8820 cd        1 E12     -0.335200
     19 C33        -0.8950   -2.8600   23.0180 cd        1 E12     -0.068000
     20 C34        -0.9700   -2.1970   24.1950 cc        1 E12     -0.214200
     21 O35        -0.1850   -2.1110   26.4740 o         1 E12     -0.554500
     22 C36         1.2830   -5.8600   23.9570 c3        1 E12     -0.079200
     23 C37        -0.0060   -4.6950   21.5520 c3        1 E12      0.233700
     24 C38         0.7970   -6.0010   21.5220 c3        1 E12     -0.100400
     25 C39         0.7170   -6.7210   22.8490 c3        1 E12     -0.074400
     26 N40         0.5720   -3.7000   20.5440 ny        1 E12     -0.776000
     27 C41         0.3130   -4.0950   19.1320 c3        1 E12      0.098800
     28 C64         1.7360   -0.9930    8.4010 c3        1 E12     -0.078400
     29 C65         1.1980   -1.9740    9.4230 c3        1 E12     -0.079400
     30 C66         1.5540   -1.5420   10.8300 c3        1 E12     -0.079400
     31 C67         1.0090   -2.5160   11.8540 c3        1 E12     -0.079400
     32 C68         1.3540   -2.0790   13.2630 c3        1 E12     -0.079400
     33 C69         0.8010   -3.0480   14.2870 c3        1 E12     -0.079400
     34 C70         1.1370   -2.6040   15.6950 c3        1 E12     -0.079400
     35 C71         0.5740   -3.5690   16.7190 c3        1 E12     -0.078400
     36 C72         0.9020   -3.1110   18.1270 c3        1 E12     -0.108400
     37 H2          1.8250   -0.5780   -0.9170 hn        1 E12      0.353500
     38 H5         -0.5210    0.6450    3.1900 ha        1 E12      0.130000
     39 H141        3.9100    1.6530    1.9760 hc        1 E12      0.081700
     40 H142        5.2740    0.4710    2.1120 hc        1 E12      0.081700
     41 H17         1.9270   -1.6850    4.3590 hn        1 E12      0.446300
     42 H241        1.4890    0.6110    6.2160 hx        1 E12      0.102700
     43 H242        3.0320   -0.3600    6.0690 hx        1 E12      0.102700
     44 H6         -1.8230    0.2900    1.0660 ha        1 E12      0.187000
     45 H9C1        3.9350    0.1010    0.0400 hc        1 E12      0.089700
     46 H9C2        3.8690   -1.3410    1.1310 hc        1 E12      0.089700
     47 H10         1.8670    1.2720    4.0080 hx        1 E12      0.102700
     48 H131        4.1180    0.7370    4.2930 hc        1 E12      0.065700
     49 H132        3.9690   -0.9490    3.6460 hc        1 E12      0.065700
     50 H631        0.2460   -1.4960    6.9110 hc        1 E12      0.065700
     51 H632        1.7880   -2.4430    6.7920 hc        1 E12      0.065700
     52 H34        -1.5900   -1.3010   24.3520 ha        1 E12      0.187000
     53 H361        2.3760   -5.6620   23.7830 hc        1 E12      0.089700
     54 H362        1.1970   -6.4130   24.9330 hc        1 E12      0.089700
     55 H37        -1.0620   -4.9010   21.1910 hx        1 E12      0.102700
     56 H381        1.8790   -5.8080   21.2880 hc        1 E12      0.065700
     57 H382        0.3890   -6.6620   20.7120 hc        1 E12      0.065700
     58 H391        1.3010   -7.6780   22.7850 hc        1 E12      0.081700
     59 H392       -0.3480   -6.9920   23.0780 hc        1 E12      0.081700
     60 H40         0.1600   -2.7770   20.7230 hn        1 E12      0.446300
     61 H411        0.7560   -5.1200   18.9730 hx        1 E12      0.102700
     62 H412       -0.8040   -4.1640   18.9890 hx        1 E12      0.102700
     63 H641        2.8520   -0.9270    8.4940 hc        1 E12      0.055200
     64 H642        1.3200    0.0290    8.6070 hc        1 E12      0.055200
     65 H651        0.0830   -2.0490    9.3240 hc        1 E12      0.049200
     66 H652        1.6190   -2.9950    9.2240 hc        1 E12      0.049200
     67 H661        1.1390   -0.5190   11.0270 hc        1 E12      0.046700
     68 H662        2.6690   -1.4740   10.9330 hc        1 E12      0.046700
     69 H671        1.4300   -3.5380   11.6630 hc        1 E12      0.045700
     70 H672       -0.1060   -2.5910   11.7460 hc        1 E12      0.045700
     71 H681        2.4690   -2.0100   13.3730 hc        1 E12      0.045700
     72 H682        0.9380   -1.0540   13.4510 hc        1 E12      0.045700
     73 H691        1.2240   -4.0710   14.1040 hc        1 E12      0.046700
     74 H692       -0.3120   -3.1230   14.1710 hc        1 E12      0.046700
     75 H701        2.2510   -2.5350   15.8130 hc        1 E12      0.049200
     76 H702        0.7190   -1.5780   15.8750 hc        1 E12      0.049200
     77 H711       -0.5380   -3.6430   16.5930 hc        1 E12      0.055200
     78 H712        1.0000   -4.5930   16.5440 hc        1 E12      0.055200
     79 H721        0.4800   -2.0830   18.2910 hc        1 E12      0.065700
     80 H722        2.0160   -3.0460   18.2490 hc        1 E12      0.065700
     81 H30         0.9460   -4.2690   26.0130 hn        1 E12      0.353500
     82 H172        0.5420   -0.7870    4.4810 hn        1 E12      0.446300
     83 H402        1.5830   -3.6220   20.6980 hn        1 E12      0.446300
     84 H33        -1.4930   -2.5240   22.1560 ha        1 E12      0.130000
@<TRIPOS>BOND
     1    1    2 1   
     2    1    3 2   
     3    1    9 1   
     4    2   15 1   
     5    2   37 1   
     6    4    5 1   
     7    4   11 1   
     8    4   15 2   
     9    5    9 2   
    10    5   38 1   
    11    6   10 1   
    12    6   12 1   
    13    6   39 1   
    14    6   40 1   
    15    7    8 1   
    16    7   11 1   
    17    7   41 1   
    18    7   82 1   
    19    8   13 1   
    20    8   42 1   
    21    8   43 1   
    22    9   44 1   
    23   10   15 1   
    24   10   45 1   
    25   10   46 1   
    26   11   12 1   
    27   11   47 1   
    28   12   48 1   
    29   12   49 1   
    30   13   28 1   
    31   13   50 1   
    32   13   51 1   
    33   14   16 1   
    34   14   20 1   
    35   14   21 2   
    36   16   17 1   
    37   16   81 1   
    38   17   18 2   
    39   17   22 1   
    40   18   19 1   
    41   18   23 1   
    42   19   20 2   
    43   19   84 1   
    44   20   52 1   
    45   22   25 1   
    46   22   53 1   
    47   22   54 1   
    48   23   24 1   
    49   23   26 1   
    50   23   55 1   
    51   24   25 1   
    52   24   56 1   
    53   24   57 1   
    54   25   58 1   
    55   25   59 1   
    56   26   27 1   
    57   26   60 1   
    58   26   83 1   
    59   27   36 1   
    60   27   61 1   
    61   27   62 1   
    62   28   29 1   
    63   28   63 1   
    64   28   64 1   
    65   29   30 1   
    66   29   65 1   
    67   29   66 1   
    68   30   31 1   
    69   30   67 1   
    70   30   68 1   
    71   31   32 1   
    72   31   69 1   
    73   31   70 1   
    74   32   33 1   
    75   32   71 1   
    76   32   72 1   
    77   33   34 1   
    78   33   73 1   
    79   33   74 1   
    80   34   35 1   
    81   34   75 1   
    82   34   76 1   
    83   35   36 1   
    84   35   77 1   
    85   35   78 1   
    86   36   79 1   
    87   36   80 1   
@<TRIPOS>SUBSTRUCTURE
     1 E12         1 TEMP              0 ****  ****    0 ROOT
