@<TRIPOS>MOLECULE
E12
   84    87     1     0     0
SMALL
bcc


@<TRIPOS>ATOM
      1 C1         -0.0610   -0.3070   -0.1200 c         1 E12      0.684700
      2 N2          1.3580   -0.4020   -0.0630 n         1 E12     -0.428100
      3 O7         -0.6130   -0.5490   -1.2000 o         1 E12     -0.554500
      4 C4          1.4000    0.0740    2.2880 cc        1 E12     -0.335200
      5 C5         -0.0240    0.2700    2.2620 cc        1 E12     -0.068000
      6 C14         4.1490    0.6030    2.1470 c3        1 E12     -0.074400
      7 N17         1.5670   -0.7570    4.5850 n4        1 E12     -0.776000
      8 C24         1.9010   -0.4100    5.9940 c3        1 E12      0.098800
      9 C6         -0.7310    0.0840    1.1240 cd        1 E12     -0.214200
     10 C9          3.5630   -0.2450    1.0390 c3        1 E12     -0.079200
     11 C10         2.1140    0.2570    3.5800 c3        1 E12      0.233700
     12 C13         3.6410    0.1420    3.4940 c3        1 E12     -0.100400
     13 C63         1.3660   -1.4270    6.9950 c3        1 E12     -0.108400
     14 C29        -0.2410   -2.6740   25.3690 c         1 E12      0.684700
     15 C3          2.0610   -0.1990    1.0910 cd        1 E12      0.166400
     16 N30         0.4880   -3.8860   25.2050 n         1 E12     -0.428100
     17 C31         0.5460   -4.5520   24.0140 cc        1 E12      0.166400
     18 C32        -0.0840   -4.0390   22.8810 cd        1 E12     -0.335200
     19 C33        -0.9070   -2.8680   23.0180 cd        1 E12     -0.068000
     20 C34        -0.9830   -2.2060   24.1950 cc        1 E12     -0.214200
     21 O35        -0.2000   -2.1200   26.4740 o         1 E12     -0.554500
     22 C36         1.2770   -5.8640   23.9550 c3        1 E12     -0.079200
     23 C37        -0.0130   -4.7000   21.5500 c3        1 E12      0.233700
     24 C38         0.7930   -6.0040   21.5210 c3        1 E12     -0.100400
     25 C39         0.7140   -6.7260   22.8460 c3        1 E12     -0.074400
     26 N40         0.5630   -3.7040   20.5430 n4        1 E12     -0.776000
     27 C41         0.3070   -4.0980   19.1310 c3        1 E12      0.098800
     28 C64         1.7280   -0.9900    8.4020 c3        1 E12     -0.078400
     29 C65         1.1980   -1.9770    9.4230 c3        1 E12     -0.079400
     30 C66         1.5450   -1.5400   10.8310 c3        1 E12     -0.079400
     31 C67         1.0070   -2.5180   11.8540 c3        1 E12     -0.079400
     32 C68         1.3450   -2.0780   13.2630 c3        1 E12     -0.079400
     33 C69         0.7970   -3.0500   14.2870 c3        1 E12     -0.079400
     34 C70         1.1270   -2.6030   15.6960 c3        1 E12     -0.079400
     35 C71         0.5690   -3.5720   16.7180 c3        1 E12     -0.078400
     36 C72         0.8920   -3.1120   18.1270 c3        1 E12     -0.108400
     37 H2          1.8490   -0.5850   -0.9160 hn        1 E12      0.353500
     38 H5         -0.5320    0.6080    3.1790 ha        1 E12      0.130000
     39 H141        5.2690    0.5200    2.1270 hc        1 E12      0.081700
     40 H142        3.8890    1.6820    1.9840 hc        1 E12      0.081700
     41 H17         0.5460   -0.8050    4.4770 hn        1 E12      0.446300
     42 H241        1.4670    0.6080    6.2140 hx        1 E12      0.102700
     43 H242        3.0240   -0.3420    6.0750 hx        1 E12      0.102700
     44 H6         -1.8190    0.2310    1.0500 ha        1 E12      0.187000
     45 H9C1        3.8970   -1.3140    1.1420 hc        1 E12      0.089700
     46 H9C2        3.9450    0.1280    0.0490 hc        1 E12      0.089700
     47 H10         1.8430    1.2720    4.0070 hx        1 E12      0.102700
     48 H131        3.9790   -0.9180    3.6570 hc        1 E12      0.065700
     49 H132        4.1010    0.7710    4.3020 hc        1 E12      0.065700
     50 H631        1.8040   -2.4410    6.7950 hc        1 E12      0.065700
     51 H632        0.2510   -1.5140    6.9080 hc        1 E12      0.065700
     52 H34        -1.6050   -1.3120   24.3530 ha        1 E12      0.187000
     53 H361        1.1920   -6.4180   24.9310 hc        1 E12      0.089700
     54 H362        2.3700   -5.6630   23.7820 hc        1 E12      0.089700
     55 H37        -1.0680   -4.9080   21.1890 hx        1 E12      0.102700
     56 H381        1.8750   -5.8090   21.2870 hc        1 E12      0.065700
     57 H382        0.3870   -6.6660   20.7100 hc        1 E12      0.065700
     58 H391        1.3000   -7.6820   22.7820 hc        1 E12      0.081700
     59 H392       -0.3510   -6.9990   23.0750 hc        1 E12      0.081700
     60 H40         0.1470   -2.7820   20.7220 hn        1 E12      0.446300
     61 H411       -0.8100   -4.1730   18.9880 hx        1 E12      0.102700
     62 H412        0.7540   -5.1220   18.9720 hx        1 E12      0.102700
     63 H641        2.8430   -0.9110    8.4990 hc        1 E12      0.055200
     64 H642        1.3000    0.0270    8.6050 hc        1 E12      0.055200
     65 H651        1.6310   -2.9930    9.2270 hc        1 E12      0.049200
     66 H652        0.0840   -2.0640    9.3210 hc        1 E12      0.049200
     67 H661        1.1190   -0.5200   11.0250 hc        1 E12      0.046700
     68 H662        2.6590   -1.4600   10.9370 hc        1 E12      0.046700
     69 H671        1.4380   -3.5370   11.6650 hc        1 E12      0.045700
     70 H672       -0.1060   -2.6030   11.7440 hc        1 E12      0.045700
     71 H681        0.9190   -1.0560   13.4500 hc        1 E12      0.045700
     72 H682        2.4580   -1.9990   13.3760 hc        1 E12      0.045700
     73 H691       -0.3160   -3.1340   14.1690 hc        1 E12      0.046700
     74 H692        1.2280   -4.0700   14.1040 hc        1 E12      0.046700
     75 H701        0.7020   -1.5800   15.8740 hc        1 E12      0.049200
     76 H702        2.2400   -2.5270   15.8160 hc        1 E12      0.049200
     77 H711       -0.5430   -3.6520   16.5910 hc        1 E12      0.055200
     78 H712        1.0010   -4.5930   16.5440 hc        1 E12      0.055200
     79 H721        0.4650   -2.0870   18.2910 hc        1 E12      0.065700
     80 H722        2.0050   -3.0420   18.2500 hc        1 E12      0.065700
     81 H30         0.9360   -4.2750   26.0120 hn        1 E12      0.353500
     82 H172        1.9450   -1.6830    4.3610 hn        1 E12      0.446300
     83 H402        1.5730   -3.6220   20.6980 hn        1 E12      0.446300
     84 H33        -1.5050   -2.5330   22.1550 ha        1 E12      0.130000
@<TRIPOS>BOND
     1    1    2 1   
     2    1    3 2   
     3    1    9 1   
     4    2   15 1   
     5    2   37 1   
     6    4    5 1   
     7    4   11 1   
     8    4   15 2   
     9    5    9 2   
    10    5   38 1   
    11    6   10 1   
    12    6   12 1   
    13    6   39 1   
    14    6   40 1   
    15    7    8 1   
    16    7   11 1   
    17    7   41 1   
    18    7   82 1   
    19    8   13 1   
    20    8   42 1   
    21    8   43 1   
    22    9   44 1   
    23   10   15 1   
    24   10   45 1   
    25   10   46 1   
    26   11   12 1   
    27   11   47 1   
    28   12   48 1   
    29   12   49 1   
    30   13   28 1   
    31   13   50 1   
    32   13   51 1   
    33   14   16 1   
    34   14   20 1   
    35   14   21 2   
    36   16   17 1   
    37   16   81 1   
    38   17   18 2   
    39   17   22 1   
    40   18   19 1   
    41   18   23 1   
    42   19   20 2   
    43   19   84 1   
    44   20   52 1   
    45   22   25 1   
    46   22   53 1   
    47   22   54 1   
    48   23   24 1   
    49   23   26 1   
    50   23   55 1   
    51   24   25 1   
    52   24   56 1   
    53   24   57 1   
    54   25   58 1   
    55   25   59 1   
    56   26   27 1   
    57   26   60 1   
    58   26   83 1   
    59   27   36 1   
    60   27   61 1   
    61   27   62 1   
    62   28   29 1   
    63   28   63 1   
    64   28   64 1   
    65   29   30 1   
    66   29   65 1   
    67   29   66 1   
    68   30   31 1   
    69   30   67 1   
    70   30   68 1   
    71   31   32 1   
    72   31   69 1   
    73   31   70 1   
    74   32   33 1   
    75   32   71 1   
    76   32   72 1   
    77   33   34 1   
    78   33   73 1   
    79   33   74 1   
    80   34   35 1   
    81   34   75 1   
    82   34   76 1   
    83   35   36 1   
    84   35   77 1   
    85   35   78 1   
    86   36   79 1   
    87   36   80 1   
@<TRIPOS>SUBSTRUCTURE
     1 E12         1 TEMP              0 ****  ****    0 ROOT
