@<TRIPOS>MOLECULE
E18
   38    38     1     0     0
SMALL
bcc


@<TRIPOS>ATOM
      1 O20         1.4720    5.3320   -0.9070 o         1 E18     -0.717867
      2 S19         2.1390    4.7580    0.1880 s6        1 E18      1.728300
      3 O21         2.8060    5.6350    1.0010 o         1 E18     -0.717867
      4 O22         1.6300    3.5890    0.6790 o         1 E18     -0.717867
      5 O18         3.4330    4.1800   -0.9590 os        1 E18     -0.390200
      6 N17         4.5530    3.7230   -0.5640 n2        1 E18     -0.284200
      7 C13         5.5000    3.4950   -1.4380 c2        1 E18      0.296200
      8 S1          5.5540    3.7790   -3.1520 ss        1 E18     -0.281300
      9 C1          3.9750    3.3390   -3.8030 c3        1 E18     -0.056300
     10 C2          3.2320    4.5040   -4.4390 c3        1 E18      0.124800
     11 N18         2.6180    5.4370   -3.4460 nx        1 E18     -0.681400
     12 C20         3.5580    6.5140   -3.0500 c3        1 E18      0.091600
     13 C19         1.3400    6.0100   -3.9270 c3        1 E18      0.091600
     14 CB          6.8350    2.9690   -0.9840 c3        1 E18     -0.047400
     15 CG          6.8170    1.4930   -0.7790 ca        1 E18     -0.082300
     16 CD2         7.4970    0.6480   -1.6640 ca        1 E18     -0.118000
     17 CE2         7.5000   -0.7310   -1.4570 ca        1 E18     -0.133500
     18 CZ          6.8220   -1.2760   -0.3670 ca        1 E18     -0.131000
     19 CE1         6.1420   -0.4390    0.5170 ca        1 E18     -0.133500
     20 CD1         6.1390    0.9400    0.3140 ca        1 E18     -0.118000
     21 HB1C        7.6030    3.2430   -1.7610 hc        1 E18      0.067200
     22 HB2C        7.1400    3.4710   -0.0240 hc        1 E18      0.067200
     23 H11C        3.3480    2.8330   -3.0250 h1        1 E18      0.106700
     24 H12C        4.1680    2.5940   -4.6190 h1        1 E18      0.106700
     25 H21C        2.4040    4.0880   -5.0830 hx        1 E18      0.084200
     26 H22C        3.9310    5.0930   -5.0970 hx        1 E18      0.084200
     27 H201        3.7190    7.2170   -3.9060 hx        1 E18      0.095367
     28 H202        3.1190    7.0570   -2.1700 hx        1 E18      0.095367
     29 H203        4.5350    6.0340   -2.7470 hx        1 E18      0.095367
     30 H191        0.6550    5.1830   -4.2500 hx        1 E18      0.095367
     31 H192        1.5280    6.7080   -4.7820 hx        1 E18      0.095367
     32 H193        0.8640    6.5550   -3.0630 hx        1 E18      0.095367
     33 HD2         8.0320    1.0730   -2.5260 ha        1 E18      0.140000
     34 HD1         5.5980    1.6000    1.0110 ha        1 E18      0.140000
     35 HE2         8.0380   -1.3870   -2.1550 ha        1 E18      0.130500
     36 HZ          6.8250   -2.3630   -0.2050 ha        1 E18      0.128000
     37 HE1         5.6040   -0.8650    1.3760 ha        1 E18      0.130500
     38 H181        2.3940    4.8910   -2.5740 hn        1 E18      0.520800
@<TRIPOS>BOND
     1    1    2 1   
     2    2    3 1   
     3    2    4 1   
     4    2    5 1   
     5    5    6 1   
     6    6    7 2   
     7    7    8 1   
     8    7   14 1   
     9    8    9 1   
    10    9   10 1   
    11    9   23 1   
    12    9   24 1   
    13   10   11 1   
    14   10   25 1   
    15   10   26 1   
    16   11   12 1   
    17   11   13 1   
    18   11   38 1   
    19   12   27 1   
    20   12   28 1   
    21   12   29 1   
    22   13   30 1   
    23   13   31 1   
    24   13   32 1   
    25   14   15 1   
    26   14   21 1   
    27   14   22 1   
    28   15   16 ar  
    29   15   20 ar  
    30   16   17 ar  
    31   16   33 1   
    32   17   18 ar  
    33   17   35 1   
    34   18   19 ar  
    35   18   36 1   
    36   19   20 ar  
    37   19   37 1   
    38   20   34 1   
@<TRIPOS>SUBSTRUCTURE
     1 E18         1 TEMP              0 ****  ****    0 ROOT
