@<TRIPOS>MOLECULE
E18
   38    38     1     0     0
SMALL
bcc


@<TRIPOS>ATOM
      1 O20         1.6320    3.8750   -3.7020 o         1 E18     -0.725200
      2 S19         1.8740    2.5120   -3.4630 s6        1 E18      1.729300
      3 O21         1.0260    1.8810   -2.5950 o         1 E18     -0.725200
      4 O22         2.4360    1.8360   -4.5160 o         1 E18     -0.725200
      5 O18         3.2960    2.9050   -2.4030 os        1 E18     -0.369200
      6 N17         4.3560    2.2190   -2.2890 n2        1 E18     -0.262200
      7 C13         5.4620    2.7910   -1.8760 c2        1 E18      0.278200
      8 S1          5.8140    4.3930   -1.2960 ss        1 E18     -0.249300
      9 C1          5.2260    5.6350   -2.4060 c3        1 E18     -0.054300
     10 C2          3.7610    5.4530   -2.7130 c3        1 E18      0.099800
     11 N18         3.0310    6.6690   -3.2190 n4        1 E18     -0.659400
     12 C20         2.9120    6.6240   -4.6990 c3        1 E18      0.078600
     13 C19         1.6760    6.7440   -2.6100 c3        1 E18      0.078600
     14 CB          6.7040    1.9500   -1.7150 c3        1 E18     -0.051400
     15 CG          6.5750    0.9290   -0.6370 ca        1 E18     -0.079300
     16 CD2         5.8390   -0.2420   -0.8550 ca        1 E18     -0.116500
     17 CE2         5.7380   -1.2040    0.1490 ca        1 E18     -0.133000
     18 CZ          6.3720   -1.0070    1.3750 ca        1 E18     -0.131000
     19 CE1         7.1070    0.1570    1.5970 ca        1 E18     -0.133000
     20 CD1         7.2080    1.1220    0.5960 ca        1 E18     -0.116500
     21 HB1C        6.9310    1.4350   -2.6900 hc        1 E18      0.065200
     22 HB2C        7.5700    2.6330   -1.4900 hc        1 E18      0.065200
     23 H11C        5.8230    5.6430   -3.3510 h1        1 E18      0.072700
     24 H12C        5.4370    6.5870   -1.8540 h1        1 E18      0.072700
     25 H21C        3.2200    5.0750   -1.7920 hx        1 E18      0.144700
     26 H22C        3.6440    4.6610   -3.5160 hx        1 E18      0.144700
     27 H201        2.2970    5.7170   -4.9780 hx        1 E18      0.104867
     28 H202        2.4090    7.5560   -5.0620 hx        1 E18      0.104867
     29 H203        3.9360    6.5380   -5.1470 hx        1 E18      0.104867
     30 H191        1.7760    6.8620   -1.5000 hx        1 E18      0.104867
     31 H192        1.1260    5.7810   -2.8430 hx        1 E18      0.104867
     32 H193        1.1250    7.6170   -3.0420 hx        1 E18      0.104867
     33 HD2         5.3300   -0.3960   -1.8190 ha        1 E18      0.138000
     34 HD1         7.7870    2.0390    0.7770 ha        1 E18      0.138000
     35 HE2         5.1520   -2.1180   -0.0280 ha        1 E18      0.129000
     36 HZ          6.2910   -1.7660    2.1660 ha        1 E18      0.127000
     37 HE1         7.6070    0.3170    2.5630 ha        1 E18      0.129000
     38 H181        3.5590    7.5060   -2.9540 hn        1 E18      0.413800
@<TRIPOS>BOND
     1    1    2 1   
     2    2    3 1   
     3    2    4 1   
     4    2    5 1   
     5    5    6 1   
     6    6    7 2   
     7    7    8 1   
     8    7   14 1   
     9    8    9 1   
    10    9   10 1   
    11    9   23 1   
    12    9   24 1   
    13   10   11 1   
    14   10   25 1   
    15   10   26 1   
    16   11   12 1   
    17   11   13 1   
    18   11   38 1   
    19   12   27 1   
    20   12   28 1   
    21   12   29 1   
    22   13   30 1   
    23   13   31 1   
    24   13   32 1   
    25   14   15 1   
    26   14   21 1   
    27   14   22 1   
    28   15   16 ar  
    29   15   20 ar  
    30   16   17 ar  
    31   16   33 1   
    32   17   18 ar  
    33   17   35 1   
    34   18   19 ar  
    35   18   36 1   
    36   19   20 ar  
    37   19   37 1   
    38   20   34 1   
@<TRIPOS>SUBSTRUCTURE
     1 E18         1 TEMP              0 ****  ****    0 ROOT
