@<TRIPOS>MOLECULE
E18
   37    37     1     0     0
SMALL
bcc


@<TRIPOS>ATOM
      1 O20         2.0800   -1.8530    2.8890 o         1 E18     -0.730200
      2 S19         0.9450   -1.0850    3.0990 s6        1 E18      1.713300
      3 O21        -0.2380   -1.5760    2.5830 o         1 E18     -0.730200
      4 O22         0.8730   -0.3960    4.2940 o         1 E18     -0.730200
      5 O18         1.4020    0.2180    1.9290 os        1 E18     -0.342200
      6 N17         0.5970    1.1700    1.6790 n2        1 E18     -0.323200
      7 C13         0.9460    2.1240    0.8530 c2        1 E18      0.298200
      8 S1          2.3890    2.4480   -0.0390 ss        1 E18     -0.316300
      9 C1          3.5720    1.1740    0.2830 c3        1 E18     -0.003300
     10 C2          3.3050   -0.0660   -0.5550 c3        1 E18      0.165800
     11 N18         4.3820   -1.0560   -0.5160 n3        1 E18     -0.735600
     12 C20         4.7430   -1.4320    0.8390 c3        1 E18      0.142100
     13 C19         4.0560   -2.2050   -1.3340 c3        1 E18      0.142100
     14 CB         -0.0220    3.2450    0.5730 c3        1 E18     -0.048400
     15 CG         -1.0970    2.8620   -0.3860 ca        1 E18     -0.060300
     16 CD2        -2.0590    1.9050   -0.0360 ca        1 E18     -0.118000
     17 CE2        -3.0780    1.5760   -0.9290 ca        1 E18     -0.139000
     18 CZ         -3.1510    2.1990   -2.1750 ca        1 E18     -0.146000
     19 CE1        -2.1950    3.1500   -2.5300 ca        1 E18     -0.139000
     20 CD1        -1.1730    3.4790   -1.6410 ca        1 E18     -0.118000
     21 HB1C       -0.4990    3.5860    1.5330 hc        1 E18      0.056700
     22 HB2C        0.5590    4.1190    0.1650 hc        1 E18      0.056700
     23 H11C        4.5550    1.6360    0.0180 h1        1 E18      0.081200
     24 H12C        3.5750    0.9090    1.3690 h1        1 E18      0.081200
     25 H21C        2.3260   -0.5110   -0.2040 h1        1 E18      0.046700
     26 H22C        3.1830    0.2430   -1.6330 h1        1 E18      0.046700
     27 H201        3.8560   -1.6910    1.4840 h1        1 E18      0.033200
     28 H202        5.4410   -2.3090    0.8100 h1        1 E18      0.033200
     29 H203        5.2840   -0.5670    1.3050 h1        1 E18      0.033200
     30 H191        3.8370   -1.8610   -2.3780 h1        1 E18      0.033200
     31 H192        4.9420   -2.8920   -1.3610 h1        1 E18      0.033200
     32 H193        3.1690   -2.7860   -0.9580 h1        1 E18      0.033200
     33 HD2        -1.9980    1.4000    0.9410 ha        1 E18      0.145000
     34 HD1        -0.4140    4.2210   -1.9310 ha        1 E18      0.145000
     35 HE2        -3.8220    0.8160   -0.6490 ha        1 E18      0.120500
     36 HZ         -3.9540    1.9360   -2.8770 ha        1 E18      0.115000
     37 HE1        -2.2430    3.6380   -3.5130 ha        1 E18      0.120500
@<TRIPOS>BOND
     1    1    2 1   
     2    2    3 1   
     3    2    4 1   
     4    2    5 1   
     5    5    6 1   
     6    6    7 2   
     7    7    8 1   
     8    7   14 1   
     9    8    9 1   
    10    9   10 1   
    11    9   23 1   
    12    9   24 1   
    13   10   11 1   
    14   10   25 1   
    15   10   26 1   
    16   11   12 1   
    17   11   13 1   
    18   12   27 1   
    19   12   28 1   
    20   12   29 1   
    21   13   30 1   
    22   13   31 1   
    23   13   32 1   
    24   14   15 1   
    25   14   21 1   
    26   14   22 1   
    27   15   16 ar  
    28   15   20 ar  
    29   16   17 ar  
    30   16   33 1   
    31   17   18 ar  
    32   17   35 1   
    33   18   19 ar  
    34   18   36 1   
    35   19   20 ar  
    36   19   37 1   
    37   20   34 1   
@<TRIPOS>SUBSTRUCTURE
     1 E18         1 TEMP              0 ****  ****    0 ROOT
