@<TRIPOS>MOLECULE
E18
   38    38     1     0     0
SMALL
bcc


@<TRIPOS>ATOM
      1 O20         1.6390    5.5560   -0.8990 o         1 E18     -0.717867
      2 S19         2.3340    5.0190    0.1980 s6        1 E18      1.728300
      3 O21         3.0880    5.9090    0.9140 o         1 E18     -0.717867
      4 O22         1.7930    3.9140    0.7930 o         1 E18     -0.717867
      5 O18         3.5320    4.2970   -0.9720 os        1 E18     -0.390200
      6 N17         4.6470    3.8060   -0.6030 n2        1 E18     -0.284200
      7 C13         5.5320    3.4690   -1.5060 c2        1 E18      0.296200
      8 S1          5.5070    3.6350   -3.2360 ss        1 E18     -0.281300
      9 C1          3.8750    3.2420   -3.7750 c3        1 E18     -0.056300
     10 C2          3.1610    4.4020   -4.4500 c3        1 E18      0.124800
     11 N18         2.6500    5.4310   -3.4940 n4        1 E18     -0.681400
     12 C20         3.6650    6.4780   -3.2200 c3        1 E18      0.091600
     13 C19         1.3790    6.0410   -3.9480 c3        1 E18      0.091600
     14 CB          6.8610    2.9020   -1.0850 c3        1 E18     -0.047400
     15 CG          6.7780    1.4460   -0.7750 ca        1 E18     -0.082300
     16 CD2         7.3630    0.5070   -1.6320 ca        1 E18     -0.118000
     17 CE2         7.3050   -0.8530   -1.3280 ca        1 E18     -0.133500
     18 CZ          6.6630   -1.2840   -0.1680 ca        1 E18     -0.131000
     19 CE1         6.0780   -0.3510    0.6890 ca        1 E18     -0.133500
     20 CD1         6.1350    1.0080    0.3890 ca        1 E18     -0.118000
     21 HB1C        7.2440    3.4510   -0.1800 hc        1 E18      0.067200
     22 HB2C        7.5980    3.0790   -1.9180 hc        1 E18      0.067200
     23 H11C        3.2660    2.8240   -2.9330 h1        1 E18      0.106700
     24 H12C        3.9840    2.4350   -4.5460 h1        1 E18      0.106700
     25 H21C        2.2780    3.9920   -5.0220 hx        1 E18      0.084200
     26 H22C        3.8530    4.9080   -5.1820 hx        1 E18      0.084200
     27 H201        3.3030    7.1010   -2.3570 hx        1 E18      0.095367
     28 H202        3.8160    7.1140   -4.1280 hx        1 E18      0.095367
     29 H203        4.6300    5.9650   -2.9340 hx        1 E18      0.095367
     30 H191        0.6360    5.2340   -4.1790 hx        1 E18      0.095367
     31 H192        0.9790    6.6680   -3.1010 hx        1 E18      0.095367
     32 H193        1.5570    6.6700   -4.8570 hx        1 E18      0.095367
     33 HD2         7.8690    0.8410   -2.5490 ha        1 E18      0.140000
     34 HD1         5.6690    1.7430    1.0650 ha        1 E18      0.140000
     35 HE2         7.7690   -1.5850   -2.0050 ha        1 E18      0.130500
     36 HZ          6.6180   -2.3560    0.0710 ha        1 E18      0.128000
     37 HE1         5.5680   -0.6880    1.6030 ha        1 E18      0.130500
     38 H181        2.4450    4.9560   -2.5760 hn        1 E18      0.520800
@<TRIPOS>BOND
     1    1    2 1   
     2    2    3 1   
     3    2    4 1   
     4    2    5 1   
     5    5    6 1   
     6    6    7 2   
     7    7    8 1   
     8    7   14 1   
     9    8    9 1   
    10    9   10 1   
    11    9   23 1   
    12    9   24 1   
    13   10   11 1   
    14   10   25 1   
    15   10   26 1   
    16   11   12 1   
    17   11   13 1   
    18   11   38 1   
    19   12   27 1   
    20   12   28 1   
    21   12   29 1   
    22   13   30 1   
    23   13   31 1   
    24   13   32 1   
    25   14   15 1   
    26   14   21 1   
    27   14   22 1   
    28   15   16 ar  
    29   15   20 ar  
    30   16   17 ar  
    31   16   33 1   
    32   17   18 ar  
    33   17   35 1   
    34   18   19 ar  
    35   18   36 1   
    36   19   20 ar  
    37   19   37 1   
    38   20   34 1   
@<TRIPOS>SUBSTRUCTURE
     1 E18         1 TEMP              0 ****  ****    0 ROOT
