@<TRIPOS>MOLECULE
E18
   37    32     1     0     0
SMALL
bcc


@<TRIPOS>ATOM
      1 O20        -4.1620   -1.9990    2.5330 o         1 E18     -1.052000
      2 S19        -2.6860   -2.1890    2.2980 ss        1 E18      2.890000
      3 O21        -1.9500   -2.4220    3.5950 os        1 E18     -1.055000
      4 O22        -2.6820   -3.4120    1.4480 o         1 E18     -1.052000
      5 O18        -2.1030   -1.0300    1.5760 o         1 E18     -0.596700
      6 N17        -0.7960   -1.2960    1.3470 n2        1 E18      0.010700
      7 C13        -0.0320   -0.3850    0.7950 c1        1 E18     -0.300000
      8 S1         -0.7290    1.2260    0.3410 s         1 E18      0.114000
      9 C1         -1.0730    1.2560   -1.4130 c3        1 E18     -0.277000
     10 C2         -1.4910    2.6810   -1.8320 c3        1 E18     -0.052000
     11 N18        -0.9290    2.9790   -3.1080 n3        1 E18     -0.264000
     12 C20        -1.9620    3.1230   -4.0540 c3        1 E18     -0.119500
     13 C19        -0.1690    4.1890   -3.0280 c3        1 E18     -0.119500
     14 CB          1.4740   -0.6840    0.5300 c3        1 E18     -0.058000
     15 CG          1.9580   -1.7580    1.4910 c2        1 E18     -0.052000
     16 CD2         2.0470   -3.0730    1.0720 c2        1 E18     -0.106000
     17 CE2         2.5480   -4.0390    1.9240 c1        1 E18     -0.135000
     18 CZ          2.9590   -3.6900    3.1970 c1        1 E18     -0.145500
     19 CE1         2.8700   -2.3760    3.6170 c1        1 E18     -0.145500
     20 CD1         2.3700   -1.4100    2.7650 c1        1 E18     -0.131000
     21 HB1C        1.9950    0.1290    0.6650 hc        1 E18      0.096000
     22 HB2C        1.5910   -1.0030   -0.4140 hc        1 E18      0.096000
     23 H11C       -1.7970    0.6310   -1.6150 h1        1 E18      0.130500
     24 H12C       -0.2630    0.9910   -1.9120 h1        1 E18      0.130500
     25 H21C       -1.1730    3.3100   -1.1870 h1        1 E18      0.072000
     26 H22C       -2.4940    2.7340   -1.8860 h1        1 E18      0.072000
     27 H201       -1.6350    3.6300   -4.8190 h1        1 E18      0.067167
     28 H202       -2.6980    3.5840   -3.6560 h1        1 E18      0.067167
     29 H203       -2.2570    2.2310   -4.3530 h1        1 E18      0.067167
     30 H191       -0.7520    4.9240   -2.7440 h1        1 E18      0.067167
     31 H192        0.5480    4.0760   -2.3820 h1        1 E18      0.067167
     32 H193        0.2110    4.3930   -3.9020 h1        1 E18      0.067167
     33 HD2         1.7640   -3.3130    0.1920 ha        1 E18      0.165000
     34 HD1         2.4150   -0.4770    3.0160 ha        1 E18      0.126000
     35 HE2         2.6150   -5.0340    1.6070 ha        1 E18      0.126000
     36 HZ          3.3090   -4.3660    3.7930 ha        1 E18      0.114000
     37 HE1         3.1580   -2.1320    4.5070 ha        1 E18      0.114000
@<TRIPOS>BOND
     1    1    2 1   
     2    2    4 1   
     3    5    6 2   
     4    6    7 1   
     5    7   14 1   
     6    8    9 1   
     7    9   10 1   
     8    9   23 1   
     9    9   24 1   
    10   10   11 1   
    11   10   25 1   
    12   10   26 1   
    13   11   12 1   
    14   11   13 1   
    15   12   27 1   
    16   12   28 1   
    17   12   29 1   
    18   13   30 1   
    19   13   31 1   
    20   13   32 1   
    21   14   15 1   
    22   14   21 1   
    23   14   22 1   
    24   15   16 1   
    25   15   20 1   
    26   16   17 1   
    27   16   33 1   
    28   17   35 1   
    29   18   19 1   
    30   18   36 1   
    31   19   37 1   
    32   20   34 1   
@<TRIPOS>SUBSTRUCTURE
     1 E18         1 TEMP              0 ****  ****    0 ROOT
