@<TRIPOS>MOLECULE
E1B
   38    41     1     0     0
SMALL
bcc


@<TRIPOS>ATOM
      1 N1          0.1020    0.0750   -0.1290 nb        1 E1B     -0.675000
      2 C2          1.4630   -0.1290   -0.0320 ca        1 E1B      0.652900
      3 N3          2.1780   -0.2470    1.0940 nb        1 E1B     -0.741000
      4 C4          1.4720   -0.1560    2.2700 ca        1 E1B      0.297300
      5 C5          0.0640    0.0490    2.3010 ca        1 E1B     -0.201600
      6 C6         -0.5680    0.1600    1.0150 ca        1 E1B      0.466200
      7 CAA         4.4740   -3.0690    8.8640 c1        1 E1B     -0.056500
      8 OAB        -3.8280    0.4990    7.4210 o         1 E1B     -0.789300
      9 OAC        -1.8600    0.1540    8.4580 o         1 E1B     -0.789300
     10 CAE         5.7450    0.8630    6.3030 ca        1 E1B     -0.111000
     11 CAG         5.6010   -0.1240    7.2770 ca        1 E1B     -0.069000
     12 CAH         5.0900    0.7570    5.0790 ca        1 E1B     -0.106000
     13 CAI        -2.6280    0.3850    4.8960 ca        1 E1B     -0.026000
     14 CAJ        -2.0140    0.3270    3.6540 ca        1 E1B     -0.161000
     15 CAL         4.1240   -1.3690    5.8030 ca        1 E1B     -0.064000
     16 CAM        -0.5110    0.0550    6.0190 ca        1 E1B     -0.110300
     17 NAP         1.5100   -0.2040    4.7320 nb        1 E1B     -0.559000
     18 CAS         4.7910   -1.2450    7.0330 ca        1 E1B      0.069000
     19 CAT         4.2880   -0.3710    4.8320 ca        1 E1B     -0.027400
     20 CAU        -1.8790    0.2460    6.0790 ca        1 E1B     -0.124600
     21 CAV         2.1310   -0.2710    3.5700 ca        1 E1B      0.363900
     22 CAW         0.1480   -0.0090    4.7580 ca        1 E1B      0.345600
     23 CAY        -0.6280    0.1280    3.5500 ca        1 E1B     -0.098300
     24 H2          2.0130   -0.2000   -0.9940 h5        1 E1B      0.065100
     25 H6         -1.6610    0.3220    0.9420 h4        1 E1B      0.052100
     26 HAA         4.3320   -3.8060    9.6170 ha        1 E1B      0.181500
     27 HAE         6.3750    1.7450    6.5050 ha        1 E1B      0.160000
     28 HAG         6.1150   -0.0230    8.2460 ha        1 E1B      0.164000
     29 HAH         5.2030    1.5580    4.3310 ha        1 E1B      0.150000
     30 HAI        -3.7190    0.5400    4.9980 ha        1 E1B      0.187000
     31 HAJ        -2.6220    0.4370    2.7430 ha        1 E1B      0.132000
     32 HAL         3.4660   -2.2360    5.6310 ha        1 E1B      0.168000
     33 HAM         0.0500   -0.0470    6.9670 ha        1 E1B      0.191000
     34 HNAQ        4.0020    0.1900    2.8840 hn        1 E1B      0.461800
     35 NAQ         3.6020   -0.4940    3.5410 n4        1 E1B     -0.601100
     36 CAR        -2.5870    0.3060    7.4450 c         1 E1B      0.915200
     37 HAQ2        3.7550   -1.4410    3.1700 hn        1 E1B      0.461800
     38 CAD         4.6270   -2.2360    8.0180 cg        1 E1B     -0.174000
@<TRIPOS>BOND
     1    1    2 ar  
     2    1    6 ar  
     3    2    3 ar  
     4    2   24 1   
     5    3    4 ar  
     6    4    5 ar  
     7    4   21 ar  
     8    5    6 ar  
     9    5   23 ar  
    10    6   25 1   
    11    7   26 1   
    12    7   38 3   
    13    8   36 1   
    14    9   36 1   
    15   10   11 ar  
    16   10   12 ar  
    17   10   27 1   
    18   11   18 ar  
    19   11   28 1   
    20   12   19 ar  
    21   12   29 1   
    22   13   14 ar  
    23   13   20 ar  
    24   13   30 1   
    25   14   23 ar  
    26   14   31 1   
    27   15   18 ar  
    28   15   19 ar  
    29   15   32 1   
    30   16   20 ar  
    31   16   22 ar  
    32   16   33 1   
    33   17   21 ar  
    34   17   22 ar  
    35   18   38 1   
    36   19   35 1   
    37   20   36 1   
    38   21   35 1   
    39   22   23 ar  
    40   34   35 1   
    41   35   37 1   
@<TRIPOS>SUBSTRUCTURE
     1 E1B         1 TEMP              0 ****  ****    0 ROOT
