@<TRIPOS>MOLECULE
E1B
   37    28     1     0     0
SMALL
bcc


@<TRIPOS>ATOM
      1 N1         -1.5390    0.9560   -3.5660 n1        1 E1B     -0.152500
      2 C2         -0.1760    1.0060   -3.5940 c1        1 E1B     -0.049500
      3 N3          0.5280    1.0950   -2.4300 n1        1 E1B     -0.152500
      4 C4         -0.1300    1.1340   -1.2340 c1        1 E1B     -0.015000
      5 C5         -1.4730    1.0840   -1.2050 c1        1 E1B     -0.078000
      6 C6         -2.1890    0.9930   -2.3930 c1        1 E1B     -0.049500
      7 CAA         4.9380   -2.7530   -3.0990 c1        1 E1B     -0.165000
      8 OAB        -4.5180    2.1860    4.3450 o         1 E1B     -0.553000
      9 OAC        -4.5180    0.0040    4.3890 o         1 E1B     -0.553000
     10 CAD         4.3520   -2.4270   -2.1160 c1        1 E1B     -0.165000
     11 CAE         2.6900   -2.5590    1.2830 c1        1 E1B     -0.137500
     12 CAG         3.3750   -2.9380    0.1380 c1        1 E1B     -0.111000
     13 CAH         2.2390   -1.2560    1.4210 c1        1 E1B     -0.137500
     14 CAI        -4.2220    0.9850    1.2880 c1        1 E1B     -0.080000
     15 CAJ        -3.5570    1.0090    0.0670 c1        1 E1B     -0.155000
     16 CAL         3.1570   -0.7100   -0.7290 c1        1 E1B     -0.055000
     17 CAM        -2.1150    1.1520    2.4430 c1        1 E1B     -0.080000
     18 NAP        -0.0560    1.2270    1.1740 n1        1 E1B     -0.156000
     19 NAQ         1.9640    0.9920    0.3210 n3        1 E1B     -0.202000
     20 CAR        -4.2220    1.0840    3.8110 c2        1 E1B      0.358000
     21 CAS         3.6080   -2.0130   -0.8670 c1        1 E1B      0.004000
     22 CAT         2.4730   -0.3310    0.4150 c1        1 E1B      0.007000
     23 CAU        -3.5000    1.0570    2.4760 c1        1 E1B     -0.095000
     24 CAV         0.6020    1.2070   -0.0220 c1        1 E1B      0.078000
     25 CAW        -1.4390    1.1760    1.2060 c1        1 E1B     -0.008000
     26 CAY        -2.1530    1.1050    0.0320 c1        1 E1B     -0.076000
     27 H2          0.2960    0.9560   -4.4460 ha        1 E1B      0.173500
     28 H6         -3.1630    0.9690   -2.3740 ha        1 E1B      0.173500
     29 HAA         5.4190   -3.0200   -3.9060 DU        1 E1B      0.218000
     30 HAE         2.5460   -3.2040    2.0010 ha        1 E1B      0.140000
     31 HAG         3.6970   -3.8530    0.0440 ha        1 E1B      0.131000
     32 HAH         1.9790   -0.9830    2.3200 ha        1 E1B      0.140000
     33 HAI        -5.1960    0.9190    1.3120 ha        1 E1B      0.164000
     34 HAJ        -4.0650    0.9910   -0.7650 ha        1 E1B      0.113000
     35 HAL         3.4610   -0.1630   -1.4790 ha        1 E1B      0.160000
     36 HAM        -1.6090    1.2150    3.2760 ha        1 E1B      0.174000
     37 HNAQ        2.5160    1.7040    0.4660 hn        1 E1B      0.191000
@<TRIPOS>BOND
     1    1    6 1   
     2    2    3 1   
     3    2   27 1   
     4    4    5 1   
     5    4   24 1   
     6    5   26 1   
     7    6   28 1   
     8    7   10 1   
     9    8   20 1   
    10    9   20 1   
    11   11   13 1   
    12   11   30 1   
    13   12   21 1   
    14   12   31 1   
    15   13   32 1   
    16   14   23 1   
    17   14   33 1   
    18   15   26 1   
    19   15   34 1   
    20   16   22 1   
    21   16   35 1   
    22   17   25 1   
    23   17   36 1   
    24   18   25 1   
    25   19   22 1   
    26   19   24 1   
    27   19   37 1   
    28   20   23 1   
@<TRIPOS>SUBSTRUCTURE
     1 E1B         1 TEMP              0 ****  ****    0 ROOT
