@<TRIPOS>MOLECULE
E1B
   37    40     1     0     0
SMALL
bcc


@<TRIPOS>ATOM
      1 N1          0.0850    0.2040   -0.0710 nb        1 E1B     -0.698000
      2 C2          1.4530    0.1150    0.0660 ca        1 E1B      0.600900
      3 N3          2.1440   -0.0050    1.2080 nb        1 E1B     -0.687000
      4 C4          1.4130   -0.0440    2.3680 ca        1 E1B      0.284300
      5 C5         -0.0080    0.0570    2.3540 ca        1 E1B     -0.192600
      6 C6         -0.6140    0.1770    1.0610 ca        1 E1B      0.432200
      7 CAA         4.1680   -2.4380    9.2580 c1        1 E1B     -0.142500
      8 OAB        -4.1220    0.1450    7.3110 o         1 E1B     -0.817800
      9 OAC        -2.2010   -0.0640    8.4390 o         1 E1B     -0.817800
     10 CAE         6.2880    0.4280    5.9650 ca        1 E1B     -0.121000
     11 CAG         5.9730   -0.3070    7.1030 ca        1 E1B     -0.137000
     12 CAH         5.4430    0.4280    4.8600 ca        1 E1B     -0.178000
     13 CAI        -2.8140    0.1350    4.8410 ca        1 E1B     -0.087000
     14 CAJ        -2.1540    0.1380    3.6300 ca        1 E1B     -0.150000
     15 CAL         3.9350   -1.0830    6.0230 ca        1 E1B     -0.091000
     16 CAM        -0.7180   -0.0530    6.0330 ca        1 E1B     -0.151300
     17 NAP         1.3730   -0.1620    4.8240 nb        1 E1B     -0.688000
     18 CAS         4.7910   -1.0630    7.1320 ca        1 E1B      0.036000
     19 CAT         4.2490   -0.3320    4.8710 ca        1 E1B      0.144600
     20 CAU        -2.0980    0.0410    6.0520 ca        1 E1B     -0.109600
     21 CAV         2.0680   -0.1840    3.6960 ca        1 E1B      0.574900
     22 CAW        -0.0090   -0.0560    4.7970 ca        1 E1B      0.403600
     23 CAY        -0.7470    0.0460    3.5780 ca        1 E1B     -0.158300
     24 H2          2.0380    0.1450   -0.8740 h5        1 E1B      0.043100
     25 H6         -1.7130    0.2530    0.9650 h4        1 E1B      0.032100
     26 HAA         3.8930   -2.9890   10.1200 ha        1 E1B      0.163500
     27 HAE         7.2120    1.0240    5.9390 ha        1 E1B      0.123000
     28 HAG         6.6390   -0.2940    7.9760 ha        1 E1B      0.131000
     29 HAH         5.7150    1.0250    3.9770 ha        1 E1B      0.126000
     30 HAI        -3.9130    0.2070    4.9020 ha        1 E1B      0.164000
     31 HAJ        -2.7290    0.2130    2.6960 ha        1 E1B      0.111000
     32 HAL         3.0150   -1.6880    6.0690 ha        1 E1B      0.171000
     33 HAM        -0.1780   -0.1270    6.9930 ha        1 E1B      0.176000
     34 HNAQ        3.9260   -0.0130    2.8990 hn        1 E1B      0.428800
     35 NAQ         3.4660   -0.4030    3.6990 nh        1 E1B     -0.714300
     36 CAR        -2.8660    0.0410    7.3730 c         1 E1B      0.908200
     37 CAD         4.4590   -1.8090    8.2820 cg        1 E1B     -0.117000
@<TRIPOS>BOND
     1    1    2 ar  
     2    1    6 ar  
     3    2    3 ar  
     4    2   24 1   
     5    3    4 ar  
     6    4    5 ar  
     7    4   21 ar  
     8    5    6 ar  
     9    5   23 ar  
    10    6   25 1   
    11    7   26 1   
    12    7   37 3   
    13    8   36 1   
    14    9   36 1   
    15   10   11 ar  
    16   10   12 ar  
    17   10   27 1   
    18   11   18 ar  
    19   11   28 1   
    20   12   19 ar  
    21   12   29 1   
    22   13   14 ar  
    23   13   20 ar  
    24   13   30 1   
    25   14   23 ar  
    26   14   31 1   
    27   15   18 ar  
    28   15   19 ar  
    29   15   32 1   
    30   16   20 ar  
    31   16   22 ar  
    32   16   33 1   
    33   17   21 ar  
    34   17   22 ar  
    35   18   37 1   
    36   19   35 1   
    37   20   36 1   
    38   21   35 1   
    39   22   23 ar  
    40   34   35 1   
@<TRIPOS>SUBSTRUCTURE
     1 E1B         1 TEMP              0 ****  ****    0 ROOT
