@<TRIPOS>MOLECULE
E1B
   37    40     1     0     0
SMALL
bcc


@<TRIPOS>ATOM
      1 N1         -2.2320    4.5130   -0.2020 nb        1 E1B     -0.698000
      2 C2         -0.8660    4.6880   -0.2000 ca        1 E1B      0.600900
      3 N3          0.0710    3.7320   -0.1540 nb        1 E1B     -0.687000
      4 C4         -0.3750    2.4350   -0.1040 ca        1 E1B      0.284300
      5 C5         -1.7670    2.1300   -0.0840 ca        1 E1B     -0.191600
      6 C6         -2.6550    3.2530   -0.1420 ca        1 E1B      0.432200
      7 CAA         4.0390   -3.8280   -1.5510 c1        1 E1B     -0.142500
      8 OAB        -4.6570   -3.6130    0.3270 o         1 E1B     -0.817800
      9 OAC        -2.5210   -4.2810    0.3500 o         1 E1B     -0.817800
     10 CAE         5.1290    0.1300    1.0380 ca        1 E1B     -0.121000
     11 CAG         5.1370   -1.1160    0.4200 ca        1 E1B     -0.137000
     12 CAH         4.0610    1.0030    0.8660 ca        1 E1B     -0.178000
     13 CAI        -3.9400   -0.9200    0.1150 ca        1 E1B     -0.087000
     14 CAJ        -3.5710    0.4050    0.0200 ca        1 E1B     -0.150000
     15 CAL         2.9770   -0.6190   -0.5850 ca        1 E1B     -0.091000
     16 CAM        -1.6220   -1.6070    0.1760 ca        1 E1B     -0.151300
     17 NAP         0.1470    0.0370    0.0490 nb        1 E1B     -0.688000
     18 CAS         4.0570   -1.4920   -0.3930 ca        1 E1B      0.036000
     19 CAT         2.9640    0.6420    0.0470 ca        1 E1B      0.144600
     20 CAU        -2.9650   -1.9360    0.1950 ca        1 E1B     -0.109600
     21 CAV         0.5700    1.2880   -0.0600 ca        1 E1B      0.574900
     22 CAW        -1.2100   -0.2470    0.0750 ca        1 E1B      0.403600
     23 CAY        -2.2080    0.7730    0.0010 ca        1 E1B     -0.158300
     24 H2         -0.5110    5.7370   -0.2430 h5        1 E1B      0.043100
     25 H6         -3.7500    3.0990   -0.1370 h4        1 E1B      0.032100
     26 HAA         4.0090   -4.7800   -2.0150 ha        1 E1B      0.163500
     27 HAE         5.9730    0.4280    1.6770 ha        1 E1B      0.123000
     28 HAG         5.9790   -1.8060    0.5680 ha        1 E1B      0.131000
     29 HAH         4.0780    1.9800    1.3730 ha        1 E1B      0.126000
     30 HAI        -5.0000   -1.2280    0.1320 ha        1 E1B      0.164000
     31 HAJ        -4.3450    1.1830   -0.0410 ha        1 E1B      0.111000
     32 HAL         2.1430   -0.9360   -1.2310 ha        1 E1B      0.171000
     33 HAM        -0.8760   -2.4180    0.2400 ha        1 E1B      0.176000
     34 HNAQ        2.1820    2.5060    0.1220 hn        1 E1B      0.428800
     35 NAQ         1.9460    1.5890   -0.2000 nh        1 E1B     -0.714300
     36 CAR        -3.4140   -3.3930    0.2990 c         1 E1B      0.908200
     37 CAD         4.0520   -2.7540   -1.0210 cg        1 E1B     -0.117000
@<TRIPOS>BOND
     1    1    2 ar  
     2    1    6 ar  
     3    2    3 ar  
     4    2   24 1   
     5    3    4 ar  
     6    4    5 ar  
     7    4   21 ar  
     8    5    6 ar  
     9    5   23 ar  
    10    6   25 1   
    11    7   26 1   
    12    7   37 3   
    13    8   36 1   
    14    9   36 1   
    15   10   11 ar  
    16   10   12 ar  
    17   10   27 1   
    18   11   18 ar  
    19   11   28 1   
    20   12   19 ar  
    21   12   29 1   
    22   13   14 ar  
    23   13   20 ar  
    24   13   30 1   
    25   14   23 ar  
    26   14   31 1   
    27   15   18 ar  
    28   15   19 ar  
    29   15   32 1   
    30   16   20 ar  
    31   16   22 ar  
    32   16   33 1   
    33   17   21 ar  
    34   17   22 ar  
    35   18   37 1   
    36   19   35 1   
    37   20   36 1   
    38   21   35 1   
    39   22   23 ar  
    40   34   35 1   
@<TRIPOS>SUBSTRUCTURE
     1 E1B         1 TEMP              0 ****  ****    0 ROOT
