@<TRIPOS>MOLECULE
E1B
   37    40     1     0     0
SMALL
bcc


@<TRIPOS>ATOM
      1 N1          0.0710    0.1910   -0.0890 nb        1 E1B     -0.698000
      2 C2          1.4390    0.1020    0.0410 ca        1 E1B      0.600900
      3 N3          2.1360   -0.0190    1.1790 nb        1 E1B     -0.687000
      4 C4          1.4110   -0.0610    2.3430 ca        1 E1B      0.284300
      5 C5         -0.0100    0.0400    2.3360 ca        1 E1B     -0.191600
      6 C6         -0.6230    0.1620    1.0460 ca        1 E1B      0.432200
      7 CAA         4.2020   -2.4570    9.2180 c1        1 E1B     -0.142500
      8 OAB        -4.1000    0.1180    7.3130 o         1 E1B     -0.817800
      9 OAC        -2.1740   -0.0920    8.4310 o         1 E1B     -0.817800
     10 CAE         6.3030    0.4120    5.9150 ca        1 E1B     -0.121000
     11 CAG         5.9940   -0.3230    7.0540 ca        1 E1B     -0.137000
     12 CAH         5.4530    0.4110    4.8150 ca        1 E1B     -0.178000
     13 CAI        -2.8040    0.1130    4.8360 ca        1 E1B     -0.087000
     14 CAJ        -2.1500    0.1180    3.6220 ca        1 E1B     -0.150000
     15 CAL         3.9510   -1.1010    5.9840 ca        1 E1B     -0.091000
     16 CAM        -0.7030   -0.0760    6.0180 ca        1 E1B     -0.151300
     17 NAP         1.3830   -0.1820    4.7990 nb        1 E1B     -0.688000
     18 CAS         4.8130   -1.0810    7.0890 ca        1 E1B      0.036000
     19 CAT         4.2600   -0.3490    4.8310 ca        1 E1B      0.144600
     20 CAU        -2.0820    0.0160    6.0440 ca        1 E1B     -0.109600
     21 CAV         2.0720   -0.2030    3.6670 ca        1 E1B      0.574900
     22 CAW         0.0000   -0.0770    4.7790 ca        1 E1B      0.403600
     23 CAY        -0.7430    0.0270    3.5630 ca        1 E1B     -0.158300
     24 H2          2.0190    0.1340   -0.9020 h5        1 E1B      0.043100
     25 H6         -1.7220    0.2380    0.9550 h4        1 E1B      0.032100
     26 HAA         3.9320   -3.0090   10.0810 ha        1 E1B      0.163500
     27 HAE         7.2270    1.0090    5.8840 ha        1 E1B      0.123000
     28 HAG         6.6650   -0.3110    7.9240 ha        1 E1B      0.131000
     29 HAH         5.7200    1.0090    3.9300 ha        1 E1B      0.126000
     30 HAI        -3.9030    0.1830    4.9040 ha        1 E1B      0.164000
     31 HAJ        -2.7300    0.1940    2.6920 ha        1 E1B      0.111000
     32 HAL         3.0320   -1.7070    6.0350 ha        1 E1B      0.171000
     33 HAM        -0.1580   -0.1510    6.9750 ha        1 E1B      0.176000
     34 HNAQ        3.9260   -0.0300    2.8610 hn        1 E1B      0.428800
     35 NAQ         3.4710   -0.4210    3.6630 nu        1 E1B     -0.714300
     36 CAR        -2.8440    0.0140    7.3690 c         1 E1B      0.908200
     37 CAD         4.4880   -1.8270    8.2400 cg        1 E1B     -0.117000
@<TRIPOS>BOND
     1    1    2 ar  
     2    1    6 ar  
     3    2    3 ar  
     4    2   24 1   
     5    3    4 ar  
     6    4    5 ar  
     7    4   21 ar  
     8    5    6 ar  
     9    5   23 ar  
    10    6   25 1   
    11    7   26 1   
    12    7   37 3   
    13    8   36 1   
    14    9   36 1   
    15   10   11 ar  
    16   10   12 ar  
    17   10   27 1   
    18   11   18 ar  
    19   11   28 1   
    20   12   19 ar  
    21   12   29 1   
    22   13   14 ar  
    23   13   20 ar  
    24   13   30 1   
    25   14   23 ar  
    26   14   31 1   
    27   15   18 ar  
    28   15   19 ar  
    29   15   32 1   
    30   16   20 ar  
    31   16   22 ar  
    32   16   33 1   
    33   17   21 ar  
    34   17   22 ar  
    35   18   37 1   
    36   19   35 1   
    37   20   36 1   
    38   21   35 1   
    39   22   23 ar  
    40   34   35 1   
@<TRIPOS>SUBSTRUCTURE
     1 E1B         1 TEMP              0 ****  ****    0 ROOT
