@<TRIPOS>MOLECULE
E1E
   38    39     1     0     0
SMALL
bcc


@<TRIPOS>ATOM
      1 C2         -0.4820   -0.2030    1.3590 c2        1 E1E     -0.173000
      2 C4          1.8220    0.6760    1.0480 c2        1 E1E     -1.182000
      3 C5          2.0250    0.6430    2.5440 c3        1 E1E     -0.055000
      4 C3          0.4960    0.4280    0.5980 c2        1 E1E      0.114000
      5 S6          3.0760    1.0700    0.1990 s6        1 E1E      2.856000
      6 O8          4.2670    0.9990    0.9020 o         1 E1E     -0.858000
      7 N11         3.2350   -0.5470   -0.8740 n4        1 E1E     -0.503000
      8 O7          2.9310    1.9820   -0.8220 o         1 E1E     -0.858000
      9 C22        -0.0700   -0.8290    2.5970 c2        1 E1E     -0.061000
     10 C1          0.9610   -0.1430    3.0810 c1        1 E1E      0.135000
     11 C9         -0.7930   -1.9960    3.1790 c2        1 E1E      0.302000
     12 O12        -0.3670   -3.1330    2.9960 o         1 E1E     -0.207000
     13 C10        -2.0110   -1.6740    3.9760 c3        1 E1E     -0.353000
     14 S13        -2.8880   -0.3650    3.1740 ss        1 E1E      0.268000
     15 C14        -4.3060   -0.1280    4.1500 c2        1 E1E     -0.115000
     16 N17        -5.1580    0.8280    3.6750 n2        1 E1E     -0.184000
     17 C18        -6.2790    1.0450    4.4110 c2        1 E1E      0.050000
     18 C21        -7.2630    2.0700    3.9530 c3        1 E1E     -0.185000
     19 C19        -6.5330    0.3160    5.5950 c2        1 E1E     -0.231000
     20 C16        -5.5880   -0.6500    6.0020 c2        1 E1E      0.050000
     21 N15        -4.4610   -0.8780    5.2770 n2        1 E1E     -0.184000
     22 C20        -5.8300   -1.4400    7.2450 c3        1 E1E     -0.185000
     23 H1         -1.5440   -0.2540    1.0570 ha        1 E1E      0.220000
     24 H2          1.9620    1.6880    2.9820 hc        1 E1E      0.192500
     25 H3          2.4980   -1.2140   -0.6790 hn        1 E1E      0.244000
     26 H4          3.1990   -0.3140   -1.8630 hn        1 E1E      0.244000
     27 H5          3.0450    0.2420    2.8370 hc        1 E1E      0.192500
     28 H6         -2.6460   -2.5940    4.0790 h1        1 E1E      0.172500
     29 H7         -1.7020   -1.3790    5.0150 h1        1 E1E      0.172500
     30 H8         -7.7350    1.7450    2.9920 hc        1 E1E      0.106167
     31 H9         -8.0640    2.2050    4.7200 hc        1 E1E      0.106167
     32 H10        -6.7600    3.0540    3.7810 hc        1 E1E      0.106167
     33 H11        -7.4430    0.4970    6.1820 ha        1 E1E      0.166000
     34 H12        -6.7590   -1.0850    7.7530 hc        1 E1E      0.106167
     35 H13        -4.9700   -1.3340    7.9530 hc        1 E1E      0.106167
     36 H14        -5.9480   -2.5250    6.9970 hc        1 E1E      0.106167
     37 CL1         0.0890    0.8110   -0.9990 cl        1 E1E      0.074000
     38 H113        4.1270   -0.9990   -0.6910 hn        1 E1E      0.244000
@<TRIPOS>BOND
     1    1    4 1   
     2    1    9 1   
     3    1   23 1   
     4    2    3 1   
     5    2    4 1   
     6    2    5 1   
     7    3   10 1   
     8    3   24 1   
     9    3   27 1   
    10    4   37 1   
    11    5    6 1   
    12    5    7 1   
    13    5    8 1   
    14    7   25 1   
    15    7   26 1   
    16    7   38 1   
    17    9   10 1   
    18    9   11 1   
    19   11   12 1   
    20   11   13 1   
    21   13   14 1   
    22   13   28 1   
    23   13   29 1   
    24   14   15 1   
    25   15   16 1   
    26   15   21 1   
    27   16   17 1   
    28   17   18 1   
    29   17   19 1   
    30   18   30 1   
    31   18   31 1   
    32   18   32 1   
    33   19   20 1   
    34   19   33 1   
    35   20   21 1   
    36   20   22 1   
    37   22   34 1   
    38   22   35 1   
    39   22   36 1   
@<TRIPOS>SUBSTRUCTURE
     1 E1E         1 TEMP              0 ****  ****    0 ROOT
