@<TRIPOS>MOLECULE
E1E
   38    39     1     0     0
SMALL
bcc


@<TRIPOS>ATOM
      1 C2         -0.4430   -0.2710    1.4060 c2        1 E1E     -0.173000
      2 C4          1.8620    0.6110    1.1210 c2        1 E1E     -1.182000
      3 C5          2.0440    0.5910    2.6200 c3        1 E1E     -0.055000
      4 C3          0.5440    0.3560    0.6540 c2        1 E1E      0.114000
      5 S6          3.1280    1.0010    0.2870 s6        1 E1E      2.856000
      6 O8          4.3090    0.9390    1.0080 o         1 E1E     -0.858000
      7 N11         3.3060   -0.6240   -0.7700 nz        1 E1E     -0.503000
      8 O7          2.9950    1.9040   -0.7430 o         1 E1E     -0.858000
      9 C22        -0.0480   -0.8860    2.6550 c2        1 E1E     -0.061000
     10 C1          0.9740   -0.1930    3.1480 c1        1 E1E      0.135000
     11 C9         -0.7770   -2.0490    3.2370 c2        1 E1E      0.302000
     12 O12        -0.3460   -3.1870    3.0700 o         1 E1E     -0.207000
     13 C10        -2.0070   -1.7230    4.0140 c3        1 E1E     -0.353000
     14 S13        -2.8740   -0.4220    3.1890 ss        1 E1E      0.268000
     15 C14        -4.3060   -0.1780    4.1420 c2        1 E1E     -0.115000
     16 N17        -5.1520    0.7730    3.6480 n2        1 E1E     -0.184000
     17 C18        -6.2840    0.9940    4.3660 c2        1 E1E      0.050000
     18 C21        -7.2630    2.0150    3.8860 c3        1 E1E     -0.185000
     19 C19        -6.5550    0.2740    5.5520 c2        1 E1E     -0.231000
     20 C16        -5.6150   -0.6880    5.9790 c2        1 E1E      0.050000
     21 N15        -4.4770   -0.9200    5.2720 n2        1 E1E     -0.184000
     22 C20        -5.8730   -1.4690    7.2250 c3        1 E1E     -0.185000
     23 H1         -1.5000   -0.3280    1.0900 ha        1 E1E      0.220000
     24 H2          1.9720    1.6390    3.0490 hc        1 E1E      0.192500
     25 H3          4.1970   -1.0720   -0.5710 hn        1 E1E      0.244000
     26 H4          3.2840   -0.3990   -1.7610 hn        1 E1E      0.244000
     27 H5          3.0600    0.1950    2.9320 hc        1 E1E      0.192500
     28 H6         -1.7140   -1.4200    5.0540 h1        1 E1E      0.172500
     29 H7         -2.6430   -2.6440    4.1140 h1        1 E1E      0.172500
     30 H8         -6.7570    2.9980    3.7120 hc        1 E1E      0.106167
     31 H9         -8.0740    2.1550    4.6410 hc        1 E1E      0.106167
     32 H10        -7.7210    1.6810    2.9210 hc        1 E1E      0.106167
     33 H11        -7.4730    0.4580    6.1240 ha        1 E1E      0.166000
     34 H12        -6.8090   -1.1090    7.7180 hc        1 E1E      0.106167
     35 H13        -5.0230   -1.3600    7.9430 hc        1 E1E      0.106167
     36 H14        -5.9900   -2.5550    6.9820 hc        1 E1E      0.106167
     37 Cl1         0.1600    0.7240   -0.9520 cl        1 E1E      0.074000
     38 H113        2.5680   -1.2910   -0.5800 hn        1 E1E      0.244000
@<TRIPOS>BOND
     1    1    4 1   
     2    1    9 1   
     3    1   23 1   
     4    2    3 1   
     5    2    4 1   
     6    2    5 1   
     7    3   10 1   
     8    3   24 1   
     9    3   27 1   
    10    4   37 1   
    11    5    6 1   
    12    5    7 1   
    13    5    8 1   
    14    7   25 1   
    15    7   26 1   
    16    7   38 1   
    17    9   10 1   
    18    9   11 1   
    19   11   12 1   
    20   11   13 1   
    21   13   14 1   
    22   13   28 1   
    23   13   29 1   
    24   14   15 1   
    25   15   16 1   
    26   15   21 1   
    27   16   17 1   
    28   17   18 1   
    29   17   19 1   
    30   18   30 1   
    31   18   31 1   
    32   18   32 1   
    33   19   20 1   
    34   19   33 1   
    35   20   21 1   
    36   20   22 1   
    37   22   34 1   
    38   22   35 1   
    39   22   36 1   
@<TRIPOS>SUBSTRUCTURE
     1 E1E         1 TEMP              0 ****  ****    0 ROOT
