@<TRIPOS>MOLECULE
E1E
   37    38     1     0     0
SMALL
bcc


@<TRIPOS>ATOM
      1 C2         -1.8890    1.4810    0.1570 ca        1 E1E     -0.102000
      2 C4         -3.3280   -0.4790   -0.0830 ca        1 E1E     -0.333500
      3 C5         -2.2820   -1.2610    0.4270 ca        1 E1E     -0.034000
      4 C3         -3.1080    0.8990   -0.2060 ca        1 E1E      0.113400
      5 S6         -4.7660   -1.2970   -0.5490 sy        1 E1E      1.520200
      6 O8         -4.6320   -2.6370   -0.1240 o         1 E1E     -0.648300
      7 N11        -5.8950   -0.5770    0.3150 n3        1 E1E     -1.025700
      8 O7         -4.9810   -1.0850   -1.9200 o         1 E1E     -0.648300
      9 C22        -0.8570    0.6750    0.6470 ca        1 E1E     -0.106600
     10 C1         -1.0590   -0.7020    0.7850 ca        1 E1E     -0.122000
     11 C9          0.4320    1.3100    1.0250 c         1 E1E      0.588700
     12 O12         0.4700    2.4500    1.4950 o         1 E1E     -0.493100
     13 C10         1.6450    0.4560    0.8100 c3        1 E1E     -0.161300
     14 S13         3.0640    1.4500    0.4650 ss        1 E1E     -0.134400
     15 C14         4.3090    0.2940    0.1610 ca        1 E1E      0.723300
     16 N17         5.5150    0.8430   -0.1910 nb        1 E1E     -0.716000
     17 C18         6.5270   -0.0250   -0.4290 ca        1 E1E      0.467100
     18 C21         7.8670    0.5080   -0.8160 c3        1 E1E     -0.156400
     19 C19         6.3430   -1.4230   -0.3220 ca        1 E1E     -0.383600
     20 C16         5.0650   -1.8950    0.0440 ca        1 E1E      0.467100
     21 N15         4.0400   -1.0400    0.2900 nb        1 E1E     -0.716000
     22 C20         4.8320   -3.3650    0.1660 c3        1 E1E     -0.156400
     23 H1         -1.7330    2.5690    0.0670 ha        1 E1E      0.173000
     24 H2         -2.4350   -2.3520    0.5440 ha        1 E1E      0.176000
     25 H3         -6.1820   -0.8900    1.2080 hn        1 E1E      0.453800
     26 H4         -6.3920    0.2250    0.0130 hn        1 E1E      0.453800
     27 H5         -0.2580   -1.3460    1.1810 ha        1 E1E      0.151000
     28 H6          1.8060   -0.1570    1.7360 h1        1 E1E      0.106200
     29 H7          1.4580   -0.2600   -0.0320 h1        1 E1E      0.106200
     30 H8          8.2670    1.1760   -0.0120 hc        1 E1E      0.059867
     31 H9          8.5850   -0.3320   -0.9760 hc        1 E1E      0.059867
     32 H10         7.7920    1.1040   -1.7600 hc        1 E1E      0.059867
     33 H11         7.1680   -2.1170   -0.5190 ha        1 E1E      0.153000
     34 H12         4.0420   -3.6950   -0.5540 hc        1 E1E      0.059867
     35 H13         5.7740   -3.9240   -0.0550 hc        1 E1E      0.059867
     36 H14         4.4950   -3.6230    1.2000 hc        1 E1E      0.059867
     37 CL1        -4.3310    1.9200   -0.8010 cl        1 E1E     -0.074400
@<TRIPOS>BOND
     1    1    4 ar  
     2    1    9 ar  
     3    1   23 1   
     4    2    3 ar  
     5    2    4 ar  
     6    2    5 1   
     7    3   10 ar  
     8    3   24 1   
     9    4   37 1   
    10    5    6 2   
    11    5    7 1   
    12    5    8 2   
    13    7   25 1   
    14    7   26 1   
    15    9   10 ar  
    16    9   11 1   
    17   10   27 1   
    18   11   12 2   
    19   11   13 1   
    20   13   14 1   
    21   13   28 1   
    22   13   29 1   
    23   14   15 1   
    24   15   16 ar  
    25   15   21 ar  
    26   16   17 ar  
    27   17   18 1   
    28   17   19 ar  
    29   18   30 1   
    30   18   31 1   
    31   18   32 1   
    32   19   20 ar  
    33   19   33 1   
    34   20   21 ar  
    35   20   22 1   
    36   22   34 1   
    37   22   35 1   
    38   22   36 1   
@<TRIPOS>SUBSTRUCTURE
     1 E1E         1 TEMP              0 ****  ****    0 ROOT
