@<TRIPOS>MOLECULE
E1E
   37    31     1     0     0
SMALL
bcc


@<TRIPOS>ATOM
      1 C2          2.3800    0.3440   -0.7470 c1        1 E1E     -0.118000
      2 C4          4.4380    0.2210   -1.9760 c1        1 E1E     -0.781000
      3 C5          3.7280    0.2300   -3.1660 c1        1 E1E     -0.029000
      4 CL1         4.6580    0.2770    0.7310 cl        1 E1E      0.000000
      5 C3          3.7640    0.2790   -0.7670 c1        1 E1E      0.039000
      6 S6          6.2110    0.1790   -2.0020 s4        1 E1E      2.075800
      7 O8          6.7640    0.7550   -0.8080 o         1 E1E     -0.535900
      8 N11         6.7400   -1.3600   -2.2220 n2        1 E1E     -0.952000
      9 O7          6.7390    1.0600   -3.0070 o         1 E1E     -0.535900
     10 C22         1.6690    0.3530   -1.9370 c1        1 E1E     -0.079000
     11 C1          2.3440    0.2950   -3.1470 c2        1 E1E     -0.108000
     12 C9          0.1570    0.3730   -1.9150 c1        1 E1E      0.274000
     13 O12        -0.4650    0.3980   -2.9580 o         1 E1E     -0.250000
     14 C10        -0.5810    0.3840   -0.5940 c2        1 E1E     -0.365000
     15 S13        -2.3250    0.5080   -0.8910 ss        1 E1E      0.346000
     16 C14        -3.2050    0.2150    0.6200 c2        1 E1E     -0.122000
     17 N17        -3.5730    1.2660    1.4070 n2        1 E1E     -0.163000
     18 C18        -4.3190    1.0570    2.5010 c1        1 E1E      0.044000
     19 C21        -4.6950    2.2190    3.3950 c3        1 E1E     -0.180000
     20 C19        -4.7100   -0.2100    2.8280 c1        1 E1E     -0.251000
     21 C16        -4.3410   -1.2610    2.0400 c1        1 E1E      0.045000
     22 N15        -3.5950   -1.0490    0.9460 n2        1 E1E     -0.209000
     23 C20        -4.7510   -2.6680    2.4160 c2        1 E1E     -0.180000
     24 H1          1.9050    0.3850    0.1050 ha        1 E1E      0.157000
     25 H2          4.2030    0.1890   -4.0180 ha        1 E1E      0.177000
     26 H3          6.5820   -1.9940   -1.5810 hn        1 E1E      0.248500
     27 H4          7.2070   -1.5800   -2.9760 hn        1 E1E      0.248500
     28 H5          1.8440    0.3010   -3.9850 ha        1 E1E      0.161000
     29 H6         -0.2850    1.1500   -0.0620 h4        1 E1E      0.146000
     30 H7         -0.3910   -0.4440   -0.1080 h4        1 E1E      0.146000
     31 H8         -4.4130    2.0280    4.3140 hc        1 E1E      0.100667
     32 H9         -4.2490    3.0320    3.0780 hc        1 E1E      0.100667
     33 H10        -5.6660    2.3480    3.3700 hc        1 E1E      0.100667
     34 H11        -5.2530   -0.3630    3.6240 ha        1 E1E      0.154000
     35 H12        -4.3500   -2.9060    3.2790 ha        1 E1E      0.098667
     36 H13        -4.4400   -3.2940    1.7290 ha        1 E1E      0.098667
     37 H14        -5.7270   -2.7170    2.4850 ha        1 E1E      0.098667
@<TRIPOS>BOND
     1    1   10 1   
     2    1   24 1   
     3    2    5 1   
     4    2    6 1   
     5    3   11 1   
     6    3   25 1   
     7    4    5 1   
     8    6    7 1   
     9    6    9 1   
    10    8   26 1   
    11    8   27 1   
    12   10   11 1   
    13   11   28 1   
    14   12   13 1   
    15   14   15 1   
    16   14   29 1   
    17   14   30 1   
    18   15   16 1   
    19   16   17 1   
    20   16   22 1   
    21   17   18 1   
    22   18   19 1   
    23   19   31 1   
    24   19   32 1   
    25   19   33 1   
    26   20   21 1   
    27   20   34 1   
    28   21   22 1   
    29   23   35 1   
    30   23   36 1   
    31   23   37 1   
@<TRIPOS>SUBSTRUCTURE
     1 E1E         1 TEMP              0 ****  ****    0 ROOT
