@<TRIPOS>MOLECULE
E1E
   38    39     1     0     0
SMALL
bcc


@<TRIPOS>ATOM
      1 C2          0.7200    1.6250    1.2860 ce        1 E1E     -0.222000
      2 C4          0.8450   -0.7570    1.9150 c2        1 E1E     -0.821500
      3 C5         -0.5700   -0.9250    1.4190 c3        1 E1E      0.127000
      4 C3          1.4490    0.4850    1.5530 ce        1 E1E      0.277400
      5 S6          1.4290   -1.8660    2.7570 s4        1 E1E      1.684100
      6 O8          0.6610   -2.9850    2.9750 o         1 E1E     -0.480900
      7 N11         2.7050   -2.8180    1.1390 n3        1 E1E     -1.097400
      8 O7          2.4990   -1.6280    3.5780 o         1 E1E     -0.480900
      9 C22        -0.6820    1.5420    1.3860 cf        1 E1E      0.055800
     10 C1         -1.3440    0.3380    1.4950 cf        1 E1E     -0.646200
     11 C9         -1.5990    2.7210    1.3840 c         1 E1E      0.561300
     12 O12        -1.2760    3.8950    1.2860 o         1 E1E     -0.406100
     13 C10        -3.0210    2.2230    1.5040 c3        1 E1E     -0.125100
     14 S13        -2.9940    0.4600    1.5540 sx        1 E1E      0.482100
     15 C14        -3.5140    0.0740    3.1730 ca        1 E1E      0.657600
     16 N17        -2.7680   -0.7900    3.9160 nb        1 E1E     -0.642000
     17 C18        -3.2790   -1.1430    5.1100 ca        1 E1E      0.423200
     18 C21        -5.0480   -1.0510    6.8990 c3        1 E1E     -0.070800
     19 C19        -4.5130   -0.6480    5.5870 ca        1 E1E     -0.221900
     20 C16        -5.2150    0.2600    4.7400 ca        1 E1E      0.452600
     21 N15        -4.7110    0.6200    3.5350 nb        1 E1E     -0.659000
     22 C20        -6.5220    0.8180    5.1940 c3        1 E1E     -0.166400
     23 H1          1.1950    2.5880    1.0420 ha        1 E1E      0.191000
     24 H2         -1.0870   -1.7390    2.0010 hc        1 E1E      0.062200
     25 H3          2.4010   -3.7640    0.9880 hn        1 E1E      0.405133
     26 H4          3.6600   -2.8240    1.4520 hn        1 E1E      0.405133
     27 H5         -0.5400   -1.2530    0.3400 hc        1 E1E      0.062200
     28 H6         -3.6090    2.5390    0.6000 h1        1 E1E      0.164200
     29 H7         -3.5200    2.7120    2.3820 h1        1 E1E      0.164200
     30 H8         -6.0430   -1.5520    6.7740 hc        1 E1E      0.073367
     31 H9         -5.1950   -0.1510    7.5510 hc        1 E1E      0.073367
     32 H10        -4.3580   -1.7590    7.4220 hc        1 E1E      0.073367
     33 H11        -2.6750   -1.8520    5.7090 h4        1 E1E      0.057100
     34 H12        -7.2340   -0.0260    5.3830 hc        1 E1E      0.077033
     35 H13        -6.9790    1.5090    4.4430 hc        1 E1E      0.077033
     36 H14        -6.3700    1.3770    6.1520 hc        1 E1E      0.077033
     37 CL1         3.1400    0.5730    1.4820 cl        1 E1E     -0.049400
     38 H113        2.6420   -2.3070    0.2770 hn        1 E1E      0.405133
@<TRIPOS>BOND
     1    1    4 1   
     2    1    9 2   
     3    1   23 1   
     4    2    3 1   
     5    2    4 2   
     6    2    5 1   
     7    3   10 1   
     8    3   24 1   
     9    3   27 1   
    10    4   37 1   
    11    5    6 1   
    12    5    8 1   
    13    7   25 1   
    14    7   26 1   
    15    7   38 1   
    16    9   10 1   
    17    9   11 1   
    18   10   14 2   
    19   11   12 2   
    20   11   13 1   
    21   13   14 1   
    22   13   28 1   
    23   13   29 1   
    24   14   15 1   
    25   15   16 ar  
    26   15   21 ar  
    27   16   17 ar  
    28   17   19 ar  
    29   17   33 1   
    30   18   19 1   
    31   18   30 1   
    32   18   31 1   
    33   18   32 1   
    34   19   20 ar  
    35   20   21 ar  
    36   20   22 1   
    37   22   34 1   
    38   22   35 1   
    39   22   36 1   
@<TRIPOS>SUBSTRUCTURE
     1 E1E         1 TEMP              0 ****  ****    0 ROOT
