@<TRIPOS>MOLECULE
E1F
   32    33     1     0     0
SMALL
bcc


@<TRIPOS>ATOM
      1 O18         0.4490    0.9550    0.4610 o         1 E1F     -0.565800
      2 C13         4.6270    7.1250   -4.9370 ce        1 E1F      0.013500
      3 C1          4.7650    3.1320   -2.9060 ce        1 E1F     -0.833200
      4 C2          0.4450    3.0770   -1.6010 ce        1 E1F      0.002400
      5 Cl1        -0.9310    2.3720   -2.3070 cl        1 E1F     -0.059400
      6 C21         0.4680    4.3580   -1.2220 c2        1 E1F     -0.150000
      7 C5          3.5860    2.4180   -3.1970 ce        1 E1F      0.041900
      8 C4          2.5970    2.2720   -2.3440 c1        1 E1F      0.115200
      9 C3          1.5960    2.1670   -1.4930 ce        1 E1F     -0.439200
     10 S16         1.5800    1.0360   -0.3240 sy        1 E1F      1.441800
     11 N19         2.7510    1.9450    0.8620 nz        1 E1F     -0.786500
     12 O17         2.3210   -0.1000   -0.5900 o         1 E1F     -0.565800
     13 O12         4.7760    3.4650   -0.4600 o         1 E1F     -0.589100
     14 C7          6.4600    4.3250   -2.0990 cy        1 E1F     -0.003100
     15 S8          6.0600    3.6690   -3.7580 sx        1 E1F      0.470100
     16 C9          5.6140    5.0330   -4.7420 cf        1 E1F      0.411500
     17 N11         5.9200    5.0120   -6.0950 nu        1 E1F     -0.519000
     18 C14         5.5640    6.0820   -6.8660 c2        1 E1F      0.001900
     19 C15         4.8850    7.1910   -6.3230 c1        1 E1F     -0.088800
     20 N10         4.9800    6.0790   -4.1590 ne        1 E1F     -0.538300
     21 H2         -0.4050    5.0200   -1.3250 ha        1 E1F      0.145000
     22 H3          1.3650    4.8210   -0.7890 ha        1 E1F      0.145000
     23 H4          3.5000    1.9130   -4.1840 ha        1 E1F      0.184000
     24 H5          3.6440    1.4590    0.9340 hn        1 E1F      0.461467
     25 H6          2.3510    2.0110    1.7960 hn        1 E1F      0.461467
     26 H7          7.4070    3.9240   -1.6810 h1        1 E1F      0.145200
     27 H8          6.4300    5.4290   -1.9720 h1        1 E1F      0.145200
     28 H9          6.3930    4.2130   -6.4720 hn        1 E1F      0.449800
     29 H10         5.8330    6.0390   -7.9400 h4        1 E1F      0.194000
     30 H193        2.9610    2.8920    0.5410 hn        1 E1F      0.461467
     31 C6          5.1980    3.6180   -1.6020 c         1 E1F      0.651300
     32 H1          4.1080    7.9570   -4.4210 h4        1 E1F      0.197000
@<TRIPOS>BOND
     1    1   10 2   
     2    2   19 2   
     3    2   20 1   
     4    2   32 1   
     5    3    7 1   
     6    3   15 2   
     7    3   31 1   
     8    4    5 1   
     9    4    6 2   
    10    4    9 1   
    11    6   21 1   
    12    6   22 1   
    13    7    8 2   
    14    7   23 1   
    15    8    9 2   
    16    9   10 1   
    17   10   11 1   
    18   10   12 2   
    19   11   24 1   
    20   11   25 1   
    21   11   30 1   
    22   13   31 2   
    23   14   15 1   
    24   14   26 1   
    25   14   27 1   
    26   14   31 1   
    27   15   16 1   
    28   16   17 1   
    29   16   20 2   
    30   17   18 1   
    31   17   28 1   
    32   18   19 2   
    33   18   29 1   
@<TRIPOS>SUBSTRUCTURE
     1 E1F         1 TEMP              0 ****  ****    0 ROOT
