@<TRIPOS>MOLECULE
E1F
   31    32     1     0     0
SMALL
bcc


@<TRIPOS>ATOM
      1 O18         4.6120    1.2000   -1.6850 o         1 E1F     -0.648300
      2 C13        -7.0160    0.3850   -0.7360 ca        1 E1F      0.445200
      3 C1          0.3040   -0.5900    0.5380 ca        1 E1F     -0.107600
      4 C2          2.5980   -0.8240   -0.1900 ca        1 E1F      0.112400
      5 CL1         3.8330   -1.8420   -0.7640 cl        1 E1F     -0.073400
      6 C21         1.3470   -1.3940    0.0680 ca        1 E1F     -0.101000
      7 C5          0.5260    0.7730    0.7600 ca        1 E1F     -0.121000
      8 C4          1.7790    1.3200    0.5040 ca        1 E1F     -0.034000
      9 C3          2.8380    0.5400    0.0170 ca        1 E1F     -0.332500
     10 S16         4.3180    1.3470   -0.3200 sy        1 E1F      1.519200
     11 N19         5.3780    0.5570    0.5700 n3        1 E1F     -1.025700
     12 O17         4.1860    2.6670    0.1650 o         1 E1F     -0.648300
     13 O12        -1.1080   -2.3850    1.1850 o         1 E1F     -0.493100
     14 C7         -2.1970   -0.3150    0.5900 c3        1 E1F     -0.165300
     15 S8         -3.6360   -1.2470    0.1630 ss        1 E1F     -0.120400
     16 C9         -4.8320   -0.0420   -0.1140 ca        1 E1F      0.705300
     17 N11        -4.5330    1.2820    0.0770 nb        1 E1F     -0.706000
     18 C14        -5.5240    2.1640   -0.1530 ca        1 E1F      0.445200
     19 C15        -6.8080    1.7700   -0.5680 ca        1 E1F     -0.378600
     20 N10        -6.0540   -0.5270   -0.5180 nb        1 E1F     -0.706000
     21 H2          1.1750   -2.4730   -0.0880 ha        1 E1F      0.174000
     22 H3         -0.2840    1.4150    1.1410 ha        1 E1F      0.151000
     23 H4          1.9470    2.3990    0.6860 ha        1 E1F      0.176000
     24 H5          5.8760   -0.2390    0.2580 hn        1 E1F      0.454300
     25 H6          5.6170    0.8180    1.4950 hn        1 E1F      0.454300
     26 H7         -2.3670    0.2650    1.5360 h1        1 E1F      0.106700
     27 H8         -1.9620    0.4290   -0.2140 h1        1 E1F      0.106700
     28 H9         -5.2690    3.2280    0.0040 h4        1 E1F      0.031100
     29 H10        -7.6050    2.4980   -0.7510 ha        1 E1F      0.158000
     30 C6         -1.0180   -1.2150    0.8030 c         1 E1F      0.588700
     31 H1         -7.9950   -0.0140   -1.0590 h4        1 E1F      0.031100
@<TRIPOS>BOND
     1    1   10 2   
     2    2   19 ar  
     3    2   20 ar  
     4    2   31 1   
     5    3    6 ar  
     6    3    7 ar  
     7    3   30 1   
     8    4    5 1   
     9    4    6 ar  
    10    4    9 ar  
    11    6   21 1   
    12    7    8 ar  
    13    7   22 1   
    14    8    9 ar  
    15    8   23 1   
    16    9   10 1   
    17   10   11 1   
    18   10   12 2   
    19   11   24 1   
    20   11   25 1   
    21   13   30 2   
    22   14   15 1   
    23   14   26 1   
    24   14   27 1   
    25   14   30 1   
    26   15   16 1   
    27   16   17 ar  
    28   16   20 ar  
    29   17   18 ar  
    30   18   19 ar  
    31   18   28 1   
    32   19   29 1   
@<TRIPOS>SUBSTRUCTURE
     1 E1F         1 TEMP              0 ****  ****    0 ROOT
