@<TRIPOS>MOLECULE
E1F
   32    33     1     0     0
SMALL
bcc


@<TRIPOS>ATOM
      1 O18         0.1780    0.9590   -1.7480 o         1 E1F     -0.559300
      2 C13         3.7570    6.8590   -4.8300 ce        1 E1F      0.044500
      3 C1          4.4510    3.3790   -1.9710 c3        1 E1F     -0.127300
      4 C2          2.0990    3.3380   -1.0620 ce        1 E1F      0.002400
      5 CL1         0.6310    4.0700   -0.6620 cl        1 E1F     -0.052400
      6 C21         3.0860    3.9820   -1.7300 c2        1 E1F     -0.065200
      7 C5          4.7310    2.3650   -0.8770 c2        1 E1F     -0.127300
      8 C4          3.6190    1.7100   -0.6060 c1        1 E1F      0.242200
      9 C3          2.2910    1.9010   -0.7100 ce        1 E1F     -0.566200
     10 S16         1.1450    0.7900   -0.7860 sy        1 E1F      1.498800
     11 N19         0.1740    1.3250    0.7670 n4        1 E1F     -0.787500
     12 O17         1.5440   -0.4710   -0.3970 o         1 E1F     -0.559300
     13 O12         5.5030    5.3720   -1.1250 o         1 E1F     -0.455100
     14 C7          6.6590    4.2850   -2.9150 c3        1 E1F     -0.143300
     15 S8          6.2140    3.8160   -4.5490 ss        1 E1F     -0.138300
     16 C9          5.3030    5.1640   -5.1510 c2        1 E1F      0.493100
     17 N11         5.5080    5.5430   -6.4650 nh        1 E1F     -0.551000
     18 C14         4.7470    6.5700   -6.9760 c2        1 E1F      0.002900
     19 C15         3.8720    7.2910   -6.1640 c1        1 E1F     -0.157800
     20 N10         4.4200    5.7850   -4.3330 ne        1 E1F     -0.624300
     21 H2          2.9500    5.0020   -2.1360 ha        1 E1F      0.211000
     22 H3          4.4580    2.9230   -3.0120 hc        1 E1F      0.148700
     23 H4          5.7040    2.3080   -0.3760 ha        1 E1F      0.214000
     24 H5          0.1140    0.5570    1.4340 hn        1 E1F      0.460133
     25 H6         -0.7760    1.5950    0.5130 hn        1 E1F      0.460133
     26 H7          7.3320    3.4540   -2.5670 h1        1 E1F      0.126200
     27 H8          7.2640    5.2310   -2.9190 h1        1 E1F      0.126200
     28 H9          6.2030    5.0590   -7.0000 hn        1 E1F      0.459800
     29 H10         4.8830    6.7970   -8.0490 h4        1 E1F      0.186000
     30 H193        0.6030    2.1180    1.2390 hn        1 E1F      0.460133
     31 C6          5.5410    4.4470   -1.9310 c         1 E1F      0.599100
     32 H1          3.0930    7.3850   -4.1190 h4        1 E1F      0.180000
@<TRIPOS>BOND
     1    1   10 2   
     2    2   19 2   
     3    2   20 1   
     4    2   32 1   
     5    3    6 1   
     6    3    7 1   
     7    3   22 1   
     8    3   31 1   
     9    4    5 1   
    10    4    6 2   
    11    4    9 1   
    12    6   21 1   
    13    7    8 2   
    14    7   23 1   
    15    8    9 2   
    16    9   10 1   
    17   10   11 1   
    18   10   12 2   
    19   11   24 1   
    20   11   25 1   
    21   11   30 1   
    22   13   31 2   
    23   14   15 1   
    24   14   26 1   
    25   14   27 1   
    26   14   31 1   
    27   15   16 1   
    28   16   17 1   
    29   16   20 2   
    30   17   18 1   
    31   17   28 1   
    32   18   19 2   
    33   18   29 1   
@<TRIPOS>SUBSTRUCTURE
     1 E1F         1 TEMP              0 ****  ****    0 ROOT
