@<TRIPOS>MOLECULE
E1F
   31    25     1     0     0
SMALL
bcc


@<TRIPOS>ATOM
      1 O18        -4.1870   -3.2140    3.5530 o         1 E1F     -0.535400
      2 C13         4.1680    3.2910   -3.1660 c1        1 E1F     -0.134500
      3 C1         -1.2170    0.1060    0.8340 c1        1 E1F     -0.088000
      4 C2         -2.5940   -0.7380    2.6090 c1        1 E1F      0.033000
      5 CL1        -3.7640   -0.4650    3.8720 cl        1 E1F      0.005000
      6 C21        -2.1340    0.3260    1.8500 c2        1 E1F     -0.100000
      7 C5         -0.7600   -1.1770    0.5770 c1        1 E1F     -0.120000
      8 C4         -1.2210   -2.2410    1.3370 c1        1 E1F     -0.035000
      9 C3         -2.1380   -2.0220    2.3530 c1        1 E1F     -0.775000
     10 S16        -2.7890   -3.3930    3.2700 s4        1 E1F      2.074800
     11 N19        -1.9260   -3.6180    4.6490 n2        1 E1F     -0.953000
     12 O17        -2.8170   -4.5870    2.4720 o         1 E1F     -0.535400
     13 C6         -0.6850    1.2730    0.0310 c1        1 E1F      0.279000
     14 O12        -1.0410    2.4040    0.2940 o         1 E1F     -0.254000
     15 C7          0.3160    1.0340   -1.0790 c2        1 E1F     -0.376000
     16 S8          0.4290    2.4830   -2.0960 ss        1 E1F      0.390000
     17 C9          1.9800    2.4830   -2.9550 c2        1 E1F     -0.148000
     18 N11         2.0970    1.8330   -4.1470 n2        1 E1F     -0.206000
     19 C14         3.2400    1.9110   -4.8440 c1        1 E1F     -0.019000
     20 C15         4.2860    2.6410   -4.3600 c1        1 E1F     -0.134500
     21 N10         3.0240    3.2130   -2.4700 n1        1 E1F     -0.154000
     22 H1          4.9160    3.8140   -2.8190 ha        1 E1F      0.163500
     23 H2         -2.4560    1.2290    2.0300 ha        1 E1F      0.175000
     24 H3         -0.1150   -1.3310   -0.1380 ha        1 E1F      0.151000
     25 H4         -0.8990   -3.1440    1.1570 ha        1 E1F      0.176000
     26 H5         -1.0300   -3.7940    4.6030 hn        1 E1F      0.249000
     27 H6         -2.3420   -3.5740    5.4610 hn        1 E1F      0.249000
     28 H7          0.0250    0.2750   -1.6230 h4        1 E1F      0.145500
     29 H8          1.1930    0.8400   -0.6900 h4        1 E1F      0.145500
     30 H9          3.3230    1.4450   -5.6980 ha        1 E1F      0.166000
     31 H10         5.1180    2.6980   -4.8670 ha        1 E1F      0.163500
@<TRIPOS>BOND
     1    1   10 1   
     2    2   20 1   
     3    2   22 1   
     4    3    6 1   
     5    3    7 1   
     6    4    5 1   
     7    4    6 1   
     8    6   23 1   
     9    7   24 1   
    10    8    9 1   
    11    8   25 1   
    12    9   10 1   
    13   10   12 1   
    14   11   26 1   
    15   11   27 1   
    16   13   14 1   
    17   15   16 1   
    18   15   28 1   
    19   15   29 1   
    20   16   17 1   
    21   17   18 1   
    22   17   21 1   
    23   18   19 1   
    24   19   30 1   
    25   20   31 1   
@<TRIPOS>SUBSTRUCTURE
     1 E1F         1 TEMP              0 ****  ****    0 ROOT
