@<TRIPOS>MOLECULE
E1G
   32    33     1     0     0
SMALL
bcc


@<TRIPOS>ATOM
      1 O19         1.1670    0.9020    1.3900 o         1 E1G     -0.564300
      2 S17         2.2810    0.6960    0.6060 sy        1 E1G      1.495200
      3 O18         3.4490    0.1770    1.1180 o         1 E1G     -0.564300
      4 N20         1.6830   -0.8320   -0.4080 n4        1 E1G     -0.787500
      5 C4          2.4510    1.7080   -0.6180 ca        1 E1G     -0.566500
      6 C5          1.4370    2.6430   -0.9390 ca        1 E1G      0.026000
      7 C6          1.6070    3.5640   -1.9580 ca        1 E1G     -0.152000
      8 C1          2.8010    3.5940   -2.6920 ca        1 E1G      0.050000
      9 C3          3.6480    1.7590   -1.3640 ca        1 E1G      0.056000
     10 C2          3.8280    2.6880   -2.3840 ca        1 E1G     -0.195600
     11 C7          5.1190    2.6900   -3.1290 c         1 E1G      0.592700
     12 O13         5.6840    1.6290   -3.3990 o         1 E1G     -0.483100
     13 C8          5.6810    4.0230   -3.4990 c3        1 E1G     -0.147300
     14 S9          5.0570    5.2200   -2.3550 ss        1 E1G     -0.230400
     15 C10         5.9230    6.6760   -2.7170 ca        1 E1G      0.714300
     16 N12         6.8250    6.6810   -3.7440 nb        1 E1G     -0.696000
     17 C15         7.4650    7.8450   -3.9710 ca        1 E1G      0.445700
     18 C16         7.2250    9.0000   -3.2030 ca        1 E1G     -0.350600
     19 C14         6.2710    8.8870   -2.1720 ca        1 E1G      0.445700
     20 N11         5.6120    7.7420   -1.9130 nb        1 E1G     -0.696000
     21 H1          2.3150   -1.6180   -0.2660 hn        1 E1G      0.455800
     22 H2          0.7560   -1.1200   -0.1000 hn        1 E1G      0.455800
     23 H3          0.4980    2.6430   -0.3510 ha        1 E1G      0.173000
     24 H4          0.8060    4.2870   -2.1910 ha        1 E1G      0.182000
     25 H5          2.9250    4.3250   -3.5140 ha        1 E1G      0.188000
     26 H6          4.4740    1.0560   -1.1300 ha        1 E1G      0.181000
     27 H7          6.8030    3.9730   -3.4840 h1        1 E1G      0.128700
     28 H8          5.3900    4.2750   -4.5520 h1        1 E1G      0.128700
     29 H9          8.1960    7.8420   -4.8010 h4        1 E1G      0.043600
     30 H10         7.7530    9.9400   -3.3970 ha        1 E1G      0.170000
     31 H11         6.0190    9.7460   -1.5210 h4        1 E1G      0.043600
     32 H203        1.6380   -0.6440   -1.4050 hn        1 E1G      0.455800
@<TRIPOS>BOND
     1    1    2 2   
     2    2    3 2   
     3    2    4 1   
     4    2    5 1   
     5    4   21 1   
     6    4   22 1   
     7    4   32 1   
     8    5    6 ar  
     9    5    9 ar  
    10    6    7 ar  
    11    6   23 1   
    12    7    8 ar  
    13    7   24 1   
    14    8   10 ar  
    15    8   25 1   
    16    9   10 ar  
    17    9   26 1   
    18   10   11 1   
    19   11   12 2   
    20   11   13 1   
    21   13   14 1   
    22   13   27 1   
    23   13   28 1   
    24   14   15 1   
    25   15   16 ar  
    26   15   20 ar  
    27   16   17 ar  
    28   17   18 ar  
    29   17   29 1   
    30   18   19 ar  
    31   18   30 1   
    32   19   20 ar  
    33   19   31 1   
@<TRIPOS>SUBSTRUCTURE
     1 E1G         1 TEMP              0 ****  ****    0 ROOT
