@<TRIPOS>MOLECULE
E1G
   31    32     1     0     0
SMALL
bcc


@<TRIPOS>ATOM
      1 O19        -5.5580   -0.7100   -1.0420 o         1 E1G     -0.654300
      2 S17        -4.7130    0.2780   -0.4920 sy        1 E1G      1.527200
      3 O18        -4.4530    1.4260   -1.2660 o         1 E1G     -0.654300
      4 N20        -5.2700    0.7200    0.9400 n3        1 E1G     -1.027700
      5 C4         -3.2310   -0.4590   -0.1180 ca        1 E1G     -0.387500
      6 C5         -3.1090   -1.8540   -0.1210 ca        1 E1G      0.005000
      7 C6         -1.8890   -2.4630    0.1640 ca        1 E1G     -0.167000
      8 C1         -0.7700   -1.6850    0.4520 ca        1 E1G     -0.035000
      9 C3         -2.1020    0.3130    0.1710 ca        1 E1G      0.034000
     10 C2         -0.8700   -0.2880    0.4560 ca        1 E1G     -0.199600
     11 C7          0.2890    0.5800    0.7670 c         1 E1G      0.597700
     12 O13         0.1340    1.7240    1.2040 o         1 E1G     -0.508100
     13 C8          1.6350   -0.0350    0.5230 c3        1 E1G     -0.165300
     14 S9          2.8940    1.2000    0.4060 ss        1 E1G     -0.114400
     15 C10         4.3170    0.2930    0.0750 ca        1 E1G      0.704300
     16 N12         4.2640   -1.0750    0.0090 nb        1 E1G     -0.707000
     17 C15         5.4230   -1.7120   -0.2490 ca        1 E1G      0.445200
     18 C16         6.6360   -1.0290   -0.4420 ca        1 E1G     -0.380600
     19 C14         6.5860    0.3770   -0.3530 ca        1 E1G      0.445200
     20 N11         5.4530    1.0510   -0.0990 nb        1 E1G     -0.707000
     21 H1         -5.8430    0.1470    1.5070 hn        1 E1G      0.450800
     22 H2         -5.0990    1.6060    1.3440 hn        1 E1G      0.450800
     23 H3         -3.9920   -2.4720   -0.3670 ha        1 E1G      0.164000
     24 H4         -1.8080   -3.5610    0.1580 ha        1 E1G      0.147000
     25 H5          0.1900   -2.1760    0.6810 ha        1 E1G      0.143000
     26 H6         -2.1700    1.4170    0.1650 ha        1 E1G      0.167000
     27 H7          1.8550   -0.7400    1.3680 h1        1 E1G      0.103700
     28 H8          1.5980   -0.6440   -0.4170 h1        1 E1G      0.103700
     29 H9          5.3660   -2.8140   -0.3000 h4        1 E1G      0.030100
     30 H10         7.5710   -1.5600   -0.6510 ha        1 E1G      0.157000
     31 H11         7.4930    0.9940   -0.4920 h4        1 E1G      0.030100
@<TRIPOS>BOND
     1    1    2 2   
     2    2    3 2   
     3    2    4 1   
     4    2    5 1   
     5    4   21 1   
     6    4   22 1   
     7    5    6 ar  
     8    5    9 ar  
     9    6    7 ar  
    10    6   23 1   
    11    7    8 ar  
    12    7   24 1   
    13    8   10 ar  
    14    8   25 1   
    15    9   10 ar  
    16    9   26 1   
    17   10   11 1   
    18   11   12 2   
    19   11   13 1   
    20   13   14 1   
    21   13   27 1   
    22   13   28 1   
    23   14   15 1   
    24   15   16 ar  
    25   15   20 ar  
    26   16   17 ar  
    27   17   18 ar  
    28   17   29 1   
    29   18   19 ar  
    30   18   30 1   
    31   19   20 ar  
    32   19   31 1   
@<TRIPOS>SUBSTRUCTURE
     1 E1G         1 TEMP              0 ****  ****    0 ROOT
