@<TRIPOS>MOLECULE
E1G
   32    33     1     0     0
SMALL
bcc


@<TRIPOS>ATOM
      1 O19         1.0690    0.9560    1.3430 o         1 E1G     -0.564300
      2 S17         2.2130    0.7410    0.6050 sy        1 E1G      1.495200
      3 O18         3.3650    0.2430    1.1710 o         1 E1G     -0.564300
      4 N20         1.6630   -0.8150   -0.3930 nz        1 E1G     -0.787500
      5 C4          2.4200    1.7250   -0.6350 ca        1 E1G     -0.566500
      6 C5          1.4110    2.6440   -1.0150 ca        1 E1G      0.026000
      7 C6          1.6110    3.5420   -2.0500 ca        1 E1G     -0.152000
      8 C1          2.8300    3.5660   -2.7400 ca        1 E1G      0.050000
      9 C3          3.6430    1.7690   -1.3380 ca        1 E1G      0.056000
     10 C2          3.8520    2.6760   -2.3730 ca        1 E1G     -0.195600
     11 C7          5.1700    2.6720   -3.0700 c         1 E1G      0.592700
     12 O13         5.7530    1.6110   -3.2970 o         1 E1G     -0.483100
     13 C8          5.7360    4.0020   -3.4460 c3        1 E1G     -0.147300
     14 S9          5.0570    5.2170   -2.3550 ss        1 E1G     -0.230400
     15 C10         5.9230    6.6730   -2.7150 ca        1 E1G      0.714300
     16 N12         6.8650    6.6640   -3.7040 nb        1 E1G     -0.696000
     17 C15         7.5040    7.8300   -3.9330 ca        1 E1G      0.445700
     18 C16         7.2210    8.9990   -3.2020 ca        1 E1G     -0.350600
     19 C14         6.2280    8.9000   -2.2080 ca        1 E1G      0.445700
     20 N11         5.5690    7.7540   -1.9500 nb        1 E1G     -0.696000
     21 H1          0.7270   -1.1030   -0.1130 hn        1 E1G      0.455800
     22 H2          2.2950   -1.5920   -0.2100 hn        1 E1G      0.455800
     23 H3          0.4510    2.6500   -0.4620 ha        1 E1G      0.173000
     24 H4          0.8130    4.2530   -2.3290 ha        1 E1G      0.182000
     25 H5          2.9790    4.2780   -3.5750 ha        1 E1G      0.188000
     26 H6          4.4650    1.0790   -1.0580 ha        1 E1G      0.181000
     27 H7          6.8570    3.9620   -3.3850 h1        1 E1G      0.128700
     28 H8          5.4860    4.2280   -4.5160 h1        1 E1G      0.128700
     29 H9          8.2670    7.8160   -4.7320 h4        1 E1G      0.043600
     30 H10         7.7490    9.9400   -3.3960 ha        1 E1G      0.170000
     31 H11         5.9420    9.7710   -1.5870 h4        1 E1G      0.043600
     32 H203        1.6530   -0.6510   -1.3950 hn        1 E1G      0.455800
@<TRIPOS>BOND
     1    1    2 2   
     2    2    3 2   
     3    2    4 1   
     4    2    5 1   
     5    4   21 1   
     6    4   22 1   
     7    4   32 1   
     8    5    6 ar  
     9    5    9 ar  
    10    6    7 ar  
    11    6   23 1   
    12    7    8 ar  
    13    7   24 1   
    14    8   10 ar  
    15    8   25 1   
    16    9   10 ar  
    17    9   26 1   
    18   10   11 1   
    19   11   12 2   
    20   11   13 1   
    21   13   14 1   
    22   13   27 1   
    23   13   28 1   
    24   14   15 1   
    25   15   16 ar  
    26   15   20 ar  
    27   16   17 ar  
    28   17   18 ar  
    29   17   29 1   
    30   18   19 ar  
    31   18   30 1   
    32   19   20 ar  
    33   19   31 1   
@<TRIPOS>SUBSTRUCTURE
     1 E1G         1 TEMP              0 ****  ****    0 ROOT
