@<TRIPOS>MOLECULE
E1G
   31    26     1     0     0
SMALL
bcc


@<TRIPOS>ATOM
      1 O19        -2.3230   -4.5660    2.2390 o         1 E1G     -0.933000
      2 S17        -3.3730   -3.6200    1.9840 ss        1 E1G      2.866000
      3 O18        -4.1920   -4.3550    1.0600 o         1 E1G     -0.933000
      4 N20        -4.1990   -3.2610    3.3570 n2        1 E1G     -0.954000
      5 C4         -2.7390   -2.1390    1.2440 c1        1 E1G     -0.836000
      6 C5         -3.6120   -1.1940    0.7280 c1        1 E1G      0.007000
      7 C6         -3.1160   -0.0590    0.1050 c1        1 E1G     -0.117000
      8 C1         -1.7470    0.1300   -0.0020 c1        1 E1G     -0.117000
      9 C3         -1.3700   -1.9490    1.1370 c2        1 E1G      0.037000
     10 C2         -0.8740   -0.8140    0.5130 c1        1 E1G     -0.183000
     11 C7          0.6200   -0.6180    0.3770 c2        1 E1G      0.282000
     12 O13         1.3850   -1.4460    0.8290 o         1 E1G     -0.268000
     13 C8          1.1610    0.5880   -0.3600 c3        1 E1G     -0.368000
     14 S9          2.9200    0.4380   -0.5290 ss        1 E1G      0.348000
     15 C10         3.5540    1.8500   -1.3970 c2        1 E1G     -0.141000
     16 N12         3.9610    2.9500   -0.7010 n2        1 E1G     -0.196000
     17 C15         4.5270    3.9800   -1.3460 c1        1 E1G     -0.020000
     18 C16         4.6950    3.9290   -2.6990 c1        1 E1G     -0.117000
     19 C14         4.2870    2.8280   -3.3950 c1        1 E1G     -0.117000
     20 N11         3.7210    1.7980   -2.7480 n1        1 E1G     -0.153000
     21 H1         -3.7500   -3.1650    4.1490 hn        1 E1G      0.244500
     22 H2         -5.1090   -3.1740    3.3340 hn        1 E1G      0.244500
     23 H3         -4.5760   -1.3270    0.8040 ha        1 E1G      0.163000
     24 H4         -3.7310    0.6070   -0.2580 ha        1 E1G      0.158000
     25 H5         -1.3980    0.9300   -0.4410 ha        1 E1G      0.158000
     26 H6         -0.7560   -2.6150    1.5000 ha        1 E1G      0.169000
     27 H7          0.7510    0.6400   -1.2460 h1        1 E1G      0.145500
     28 H8          0.9500    1.4000    0.1440 h1        1 E1G      0.145500
     29 H9          4.8190    4.7670   -0.8480 ha        1 E1G      0.168000
     30 H10         5.1070    4.6790   -3.1690 ha        1 E1G      0.158000
     31 H11         4.4070    2.7900   -4.3630 ha        1 E1G      0.158000
@<TRIPOS>BOND
     1    1    2 1   
     2    2    3 1   
     3    4   21 1   
     4    4   22 1   
     5    5    6 1   
     6    5    9 1   
     7    6   23 1   
     8    7    8 1   
     9    7   24 1   
    10    8   25 1   
    11    9   10 1   
    12    9   26 1   
    13   10   11 1   
    14   11   12 1   
    15   11   13 1   
    16   13   14 1   
    17   13   27 1   
    18   13   28 1   
    19   14   15 1   
    20   15   16 1   
    21   15   20 1   
    22   16   17 1   
    23   17   29 1   
    24   18   19 1   
    25   18   30 1   
    26   19   31 1   
@<TRIPOS>SUBSTRUCTURE
     1 E1G         1 TEMP              0 ****  ****    0 ROOT
