@<TRIPOS>MOLECULE
E1G
   32    33     1     0     0
SMALL
bcc


@<TRIPOS>ATOM
      1 O19         1.0450    0.9750    1.3350 o         1 E1G     -0.564300
      2 S17         2.1900    0.7540    0.6010 sy        1 E1G      1.495200
      3 O18         3.3380    0.2520    1.1730 o         1 E1G     -0.564300
      4 N20         1.6370   -0.8010   -0.3960 n4        1 E1G     -0.787500
      5 C4          2.4060    1.7350   -0.6400 ca        1 E1G     -0.566500
      6 C5          1.4020    2.6580   -1.0250 ca        1 E1G      0.026000
      7 C6          1.6100    3.5530   -2.0610 ca        1 E1G     -0.152000
      8 C1          2.8320    3.5700   -2.7470 ca        1 E1G      0.050000
      9 C3          3.6320    1.7720   -1.3380 ca        1 E1G      0.056000
     10 C2          3.8490    2.6760   -2.3740 ca        1 E1G     -0.195600
     11 C7          5.1690    2.6660   -3.0660 c         1 E1G      0.592700
     12 O13         5.7480    1.6010   -3.2900 o         1 E1G     -0.483100
     13 C8          5.7430    3.9930   -3.4410 c3        1 E1G     -0.147300
     14 S9          5.0630    5.2120   -2.3550 ss        1 E1G     -0.230400
     15 C10         5.9370    6.6640   -2.7120 ca        1 E1G      0.714300
     16 N12         6.8850    6.6500   -3.6960 nb        1 E1G     -0.696000
     17 C15         7.5290    7.8130   -3.9230 ca        1 E1G      0.445700
     18 C16         7.2480    8.9840   -3.1950 ca        1 E1G     -0.350600
     19 C14         6.2480    8.8900   -2.2060 ca        1 E1G      0.445700
     20 N11         5.5840    7.7470   -1.9500 nb        1 E1G     -0.696000
     21 H1          0.6990   -1.0850   -0.1180 hn        1 E1G      0.455800
     22 H2          2.2650   -1.5810   -0.2090 hn        1 E1G      0.455800
     23 H3          0.4410    2.6680   -0.4760 ha        1 E1G      0.173000
     24 H4          0.8160    4.2660   -2.3440 ha        1 E1G      0.182000
     25 H5          2.9870    4.2790   -3.5820 ha        1 E1G      0.188000
     26 H6          4.4500    1.0800   -1.0530 ha        1 E1G      0.181000
     27 H7          6.8630    3.9480   -3.3740 h1        1 E1G      0.128700
     28 H8          5.5000    4.2180   -4.5120 h1        1 E1G      0.128700
     29 H9          8.2970    7.7940   -4.7190 h4        1 E1G      0.043600
     30 H10         7.7800    9.9230   -3.3880 ha        1 E1G      0.170000
     31 H11         5.9630    9.7630   -1.5890 h4        1 E1G      0.043600
     32 H203        1.6310   -0.6390   -1.3980 hn        1 E1G      0.455800
@<TRIPOS>BOND
     1    1    2 2   
     2    2    3 2   
     3    2    4 1   
     4    2    5 1   
     5    4   21 1   
     6    4   22 1   
     7    4   32 1   
     8    5    6 ar  
     9    5    9 ar  
    10    6    7 ar  
    11    6   23 1   
    12    7    8 ar  
    13    7   24 1   
    14    8   10 ar  
    15    8   25 1   
    16    9   10 ar  
    17    9   26 1   
    18   10   11 1   
    19   11   12 2   
    20   11   13 1   
    21   13   14 1   
    22   13   27 1   
    23   13   28 1   
    24   14   15 1   
    25   15   16 ar  
    26   15   20 ar  
    27   16   17 ar  
    28   17   18 ar  
    29   17   29 1   
    30   18   19 ar  
    31   18   30 1   
    32   19   20 ar  
    33   19   31 1   
@<TRIPOS>SUBSTRUCTURE
     1 E1G         1 TEMP              0 ****  ****    0 ROOT
