@<TRIPOS>MOLECULE
E1H
    8     7     1     0     0
SMALL
bcc


@<TRIPOS>ATOM
      1 N1         -1.1940   -0.3280   -0.0000 n2        1 E1H     -0.770100
      2 CA1        -0.1440    0.4030    0.0000 c2        1 E1H      0.429200
      3 CB1         1.2400   -0.1640   -0.0000 c3        1 E1H     -0.155400
      4 HN11       -2.0610    0.1690   -0.0000 hn        1 E1H      0.382400
      5 HA12       -0.1610    1.5170    0.0000 h4        1 E1H     -0.047200
      6 HB11        1.4070   -0.7980    0.9060 hc        1 E1H      0.053033
      7 HB12        1.4070   -0.7980   -0.9060 hc        1 E1H      0.053033
      8 HB13        1.9880    0.6650   -0.0000 hc        1 E1H      0.053033
@<TRIPOS>BOND
     1    1    2 2   
     2    1    4 1   
     3    2    3 1   
     4    2    5 1   
     5    3    6 1   
     6    3    7 1   
     7    3    8 1   
@<TRIPOS>SUBSTRUCTURE
     1 E1H         1 TEMP              0 ****  ****    0 ROOT
