@<TRIPOS>MOLECULE
E1H
    8     5     1     0     0
SMALL
bcc


@<TRIPOS>ATOM
      1 N1         -1.4250    0.0000   -0.7540 n1        1 E1H     -0.231000
      2 CA1        -0.1160    0.0000   -0.7540 c1        1 E1H     -0.067000
      3 CB1         0.6400    0.0000    0.5560 c2        1 E1H     -0.246000
      4 HN11       -1.8810    0.0000    0.0360 DU        1 E1H      0.132000
      5 HA12        0.3720    0.0000   -1.5990 ha        1 E1H      0.139000
      6 HB11        1.6000   -0.0000    0.3780 ha        1 E1H      0.090667
      7 HB12        0.4040   -0.7970    1.0680 ha        1 E1H      0.090667
      8 HB13        0.4050    0.7970    1.0680 ha        1 E1H      0.090667
@<TRIPOS>BOND
     1    1    2 1   
     2    2    5 1   
     3    3    6 1   
     4    3    7 1   
     5    3    8 1   
@<TRIPOS>SUBSTRUCTURE
     1 E1H         1 TEMP              0 ****  ****    0 ROOT
