@<TRIPOS>MOLECULE
E1H
    8     7     1     0     0
SMALL
bcc


@<TRIPOS>ATOM
      1 N1         -0.0410   -0.0000   -0.0710 n2        1 E1H     -0.763100
      2 CA1         1.2290   -0.0000    0.0590 c2        1 E1H      0.425200
      3 CB1         2.0490    0.0000    1.3060 c3        1 E1H     -0.203400
      4 HN11       -0.5750    0.0010    0.7730 hn        1 E1H      0.376400
      5 HA12        1.8180   -0.0010   -0.8840 h4        1 E1H      0.009800
      6 HB11        1.8280    0.9070    1.9230 hc        1 E1H      0.051367
      7 HB12        3.1380    0.0010    1.0600 hc        1 E1H      0.051367
      8 HB13        1.8290   -0.9060    1.9230 hc        1 E1H      0.051367
@<TRIPOS>BOND
     1    1    2 2   
     2    1    4 1   
     3    2    3 1   
     4    2    5 1   
     5    3    6 1   
     6    3    7 1   
     7    3    8 1   
@<TRIPOS>SUBSTRUCTURE
     1 E1H         1 TEMP              0 ****  ****    0 ROOT
