@<TRIPOS>MOLECULE
E1H
    8     7     1     0     0
SMALL
bcc


@<TRIPOS>ATOM
      1 N1         -0.0250    0.1500   -0.0970 n2        1 E1H     -0.763100
      2 CA1         1.2100   -0.1190    0.0810 c2        1 E1H      0.425200
      3 CB1         2.0400   -0.0220    1.3160 c3        1 E1H     -0.203400
      4 HN11       -0.5290    0.4780    0.7010 hn        1 E1H      0.376400
      5 HA12        1.7670   -0.4840   -0.8100 h4        1 E1H      0.009800
      6 HB11        2.8940    0.6780    1.1380 hc        1 E1H      0.051367
      7 HB12        1.4590    0.3470    2.1960 hc        1 E1H      0.051367
      8 HB13        2.4570   -1.0290    1.5660 hc        1 E1H      0.051367
@<TRIPOS>BOND
     1    1    2 2   
     2    1    4 1   
     3    2    3 1   
     4    2    5 1   
     5    3    6 1   
     6    3    7 1   
     7    3    8 1   
@<TRIPOS>SUBSTRUCTURE
     1 E1H         1 TEMP              0 ****  ****    0 ROOT
