@<TRIPOS>MOLECULE
E1H
    8     7     1     0     0
SMALL
bcc


@<TRIPOS>ATOM
      1 N1         -0.0420    0.0000   -0.0700 n2        1 E1H     -0.764100
      2 CA1         1.2280    0.0000    0.0590 c2        1 E1H      0.426200
      3 CB1         2.0490   -0.0000    1.3060 c3        1 E1H     -0.204400
      4 HN11       -0.5750   -0.0000    0.7740 hn        1 E1H      0.375400
      5 HA12        1.8170    0.0000   -0.8840 h4        1 E1H      0.010800
      6 HB11        1.8290    0.9070    1.9230 hc        1 E1H      0.052033
      7 HB12        3.1380   -0.0000    1.0590 hc        1 E1H      0.052033
      8 HB13        1.8290   -0.9070    1.9230 hc        1 E1H      0.052033
@<TRIPOS>BOND
     1    1    2 2   
     2    1    4 1   
     3    2    3 1   
     4    2    5 1   
     5    3    6 1   
     6    3    7 1   
     7    3    8 1   
@<TRIPOS>SUBSTRUCTURE
     1 E1H         1 TEMP              0 ****  ****    0 ROOT
