@<TRIPOS>MOLECULE
E1P
   28    28     1     0     0
SMALL
bcc


@<TRIPOS>ATOM
      1 C3         -0.1160    0.1360   -0.1390 c3        1 E1P      0.085500
      2 C2          1.2470    0.7980   -0.3520 c3        1 E1P     -0.102400
      3 C1          2.0350    0.8520    0.9400 c3        1 E1P     -0.079400
      4 C5          1.2290    1.5100    2.0400 c3        1 E1P     -0.102400
      5 C4         -0.1340    0.8370    2.2060 c3        1 E1P      0.085500
      6 N1         -0.8700    0.6940    0.9630 n         1 E1P     -0.444800
      7 C6         -2.0460    1.3930    0.7780 c         1 E1P      0.634100
      8 O2         -2.6110    2.0370    1.6770 o         1 E1P     -0.562100
      9 C7         -2.7270    1.2720   -0.5750 c         1 E1P      0.568100
     10 O3         -3.5550    0.4330   -0.9230 o         1 E1P     -0.508000
     11 O4         -2.3540    2.2590   -1.4330 os        1 E1P     -0.429900
     12 C8         -3.0470    2.3050   -2.6980 c3        1 E1P      0.136400
     13 C9         -2.5190    3.5190   -3.4210 c3        1 E1P     -0.101100
     14 H3C1       -0.7110    0.2060   -1.0930 h1        1 E1P      0.062700
     15 H3C2        0.0440   -0.9580    0.0900 h1        1 E1P      0.062700
     16 H2C1        1.1080    1.8350   -0.7550 hc        1 E1P      0.054200
     17 H2C2        1.8080    0.2060   -1.1200 hc        1 E1P      0.054200
     18 H1C1        2.3130   -0.1890    1.2510 hc        1 E1P      0.045200
     19 H1C2        2.9870    1.4210    0.7770 hc        1 E1P      0.045200
     20 H5C1        1.7770    1.4350    3.0150 hc        1 E1P      0.054200
     21 H5C2        1.0910    2.5980    1.8100 hc        1 E1P      0.054200
     22 H4C1       -0.7550    1.4240    2.9410 h1        1 E1P      0.062700
     23 H4C2        0.0180   -0.2020    2.6200 h1        1 E1P      0.062700
     24 H8C1       -2.8330    1.3550   -3.2530 h1        1 E1P      0.055200
     25 H8C2       -4.1490    2.3770   -2.5010 h1        1 E1P      0.055200
     26 H9C1       -3.0320    3.6040   -4.4080 hc        1 E1P      0.051033
     27 H9C2       -2.7130    4.4440   -2.8260 hc        1 E1P      0.051033
     28 H9C3       -1.4190    3.4320   -3.5850 hc        1 E1P      0.051033
@<TRIPOS>BOND
     1    1    2 1   
     2    1    6 1   
     3    1   14 1   
     4    1   15 1   
     5    2    3 1   
     6    2   16 1   
     7    2   17 1   
     8    3    4 1   
     9    3   18 1   
    10    3   19 1   
    11    4    5 1   
    12    4   20 1   
    13    4   21 1   
    14    5    6 1   
    15    5   22 1   
    16    5   23 1   
    17    6    7 1   
    18    7    8 2   
    19    7    9 1   
    20    9   10 2   
    21    9   11 1   
    22   11   12 1   
    23   12   13 1   
    24   12   24 1   
    25   12   25 1   
    26   13   26 1   
    27   13   27 1   
    28   13   28 1   
@<TRIPOS>SUBSTRUCTURE
     1 E1P         1 TEMP              0 ****  ****    0 ROOT
