@<TRIPOS>MOLECULE
E1P
   28    28     1     0     0
SMALL
bcc


@<TRIPOS>ATOM
      1 C3         -1.0120   -0.6600   -1.2180 c3        1 E1P      0.085500
      2 C2         -1.4910    0.5520   -2.0210 c3        1 E1P     -0.102400
      3 C1         -0.7480    0.6630   -3.3360 c3        1 E1P     -0.079400
      4 C5          0.7500    0.6610   -3.1150 c3        1 E1P     -0.102400
      5 C4          1.1860   -0.5500   -2.2880 c3        1 E1P      0.085500
      6 N1          0.4250   -0.7270   -1.0650 n         1 E1P     -0.444800
      7 C6          1.0480   -0.5760    0.1570 c         1 E1P      0.633100
      8 O2          2.2760   -0.4440    0.2910 o         1 E1P     -0.562100
      9 C7          0.1840   -0.6860    1.4030 c         1 E1P      0.569100
     10 O3         -0.0840   -1.7050    2.0340 o         1 E1P     -0.508000
     11 O4         -0.2830    0.5240    1.8140 os        1 E1P     -0.429900
     12 C8         -0.9900    0.5780    3.0660 c3        1 E1P      0.137400
     13 C9         -0.0290    0.5670    4.2280 c3        1 E1P     -0.129100
     14 H3C1       -1.3320   -1.6000   -1.7560 h1        1 E1P      0.062450
     15 H3C2       -1.5110   -0.6500   -0.2090 h1        1 E1P      0.062450
     16 H2C1       -2.5900    0.4360   -2.2080 hc        1 E1P      0.054200
     17 H2C2       -1.3430    1.4880   -1.4220 hc        1 E1P      0.054200
     18 H1C1       -1.0300   -0.1980   -3.9980 hc        1 E1P      0.045200
     19 H1C2       -1.0510    1.6060   -3.8610 hc        1 E1P      0.045200
     20 H5C1        1.2830    0.6230   -4.0990 hc        1 E1P      0.054200
     21 H5C2        1.0580    1.6060   -2.5960 hc        1 E1P      0.054200
     22 H4C1        2.2800   -0.4570   -2.0370 h1        1 E1P      0.062450
     23 H4C2        1.0410   -1.4840   -2.9040 h1        1 E1P      0.062450
     24 H8C1       -1.7120   -0.2770    3.1260 h1        1 E1P      0.063700
     25 H8C2       -1.5420    1.5530    2.9900 h1        1 E1P      0.063700
     26 H9C1       -0.5960    0.7020    5.1800 hc        1 E1P      0.053700
     27 H9C2        0.5180   -0.4070    4.2660 hc        1 E1P      0.053700
     28 H9C3        0.7180    1.3910    4.1300 hc        1 E1P      0.053700
@<TRIPOS>BOND
     1    1    2 1   
     2    1    6 1   
     3    1   14 1   
     4    1   15 1   
     5    2    3 1   
     6    2   16 1   
     7    2   17 1   
     8    3    4 1   
     9    3   18 1   
    10    3   19 1   
    11    4    5 1   
    12    4   20 1   
    13    4   21 1   
    14    5    6 1   
    15    5   22 1   
    16    5   23 1   
    17    6    7 1   
    18    7    8 2   
    19    7    9 1   
    20    9   10 2   
    21    9   11 1   
    22   11   12 1   
    23   12   13 1   
    24   12   24 1   
    25   12   25 1   
    26   13   26 1   
    27   13   27 1   
    28   13   28 1   
@<TRIPOS>SUBSTRUCTURE
     1 E1P         1 TEMP              0 ****  ****    0 ROOT
