@<TRIPOS>MOLECULE
E1P
   28    28     1     0     0
SMALL
bcc


@<TRIPOS>ATOM
      1 C3         -0.1550    0.1210   -0.1180 c3        1 E1P      0.085500
      2 C2          1.2240    0.7360   -0.3730 c3        1 E1P     -0.102400
      3 C1          2.0380    0.7950    0.9020 c3        1 E1P     -0.079400
      4 C5          1.2740    1.5030    2.0020 c3        1 E1P     -0.102400
      5 C4         -0.1060    0.8770    2.2090 c3        1 E1P      0.085500
      6 N1         -0.8690    0.7290    0.9840 n         1 E1P     -0.444800
      7 C6         -2.0260    1.4600    0.8040 c         1 E1P      0.634100
      8 O2         -2.5540    2.1420    1.6980 o         1 E1P     -0.562100
      9 C7         -2.7370    1.3280   -0.5330 c         1 E1P      0.568100
     10 O3         -3.5970    0.5090   -0.8450 o         1 E1P     -0.508000
     11 O4         -2.3510    2.2840   -1.4210 os        1 E1P     -0.429900
     12 C8         -3.0670    2.3220   -2.6730 c3        1 E1P      0.136400
     13 C9         -2.5150    3.5020   -3.4340 c3        1 E1P     -0.101100
     14 H3C1       -0.0240   -0.9710    0.1340 h1        1 E1P      0.062700
     15 H3C2       -0.7650    0.1890   -1.0620 h1        1 E1P      0.062700
     16 H2C1        1.1090    1.7670   -0.7970 hc        1 E1P      0.054200
     17 H2C2        1.7500    0.1080   -1.1370 hc        1 E1P      0.054200
     18 H1C1        2.2900   -0.2480    1.2330 hc        1 E1P      0.045200
     19 H1C2        3.0040    1.3290    0.7080 hc        1 E1P      0.045200
     20 H5C1        1.1660    2.5890    1.7480 hc        1 E1P      0.054200
     21 H5C2        1.8390    1.4330    2.9670 hc        1 E1P      0.054200
     22 H4C1       -0.6930    1.5010    2.9410 h1        1 E1P      0.062700
     23 H4C2        0.0220   -0.1560    2.6450 h1        1 E1P      0.062700
     24 H8C1       -4.1610    2.4330   -2.4570 h1        1 E1P      0.055200
     25 H8C2       -2.8920    1.3530   -3.2090 h1        1 E1P      0.055200
     26 H9C1       -1.4220    3.3770   -3.6170 hc        1 E1P      0.051033
     27 H9C2       -2.6690    4.4460   -2.8580 hc        1 E1P      0.051033
     28 H9C3       -3.0450    3.5800   -4.4140 hc        1 E1P      0.051033
@<TRIPOS>BOND
     1    1    2 1   
     2    1    6 1   
     3    1   14 1   
     4    1   15 1   
     5    2    3 1   
     6    2   16 1   
     7    2   17 1   
     8    3    4 1   
     9    3   18 1   
    10    3   19 1   
    11    4    5 1   
    12    4   20 1   
    13    4   21 1   
    14    5    6 1   
    15    5   22 1   
    16    5   23 1   
    17    6    7 1   
    18    7    8 2   
    19    7    9 1   
    20    9   10 2   
    21    9   11 1   
    22   11   12 1   
    23   12   13 1   
    24   12   24 1   
    25   12   25 1   
    26   13   26 1   
    27   13   27 1   
    28   13   28 1   
@<TRIPOS>SUBSTRUCTURE
     1 E1P         1 TEMP              0 ****  ****    0 ROOT
