@<TRIPOS>MOLECULE
E1P
   28    28     1     0     0
SMALL
bcc


@<TRIPOS>ATOM
      1 C3         -0.2580    0.0390    0.0160 c3        1 E1P      0.085500
      2 C2          1.2380    0.2360   -0.2470 c3        1 E1P     -0.102400
      3 C1          2.0130    0.3130    1.0510 c3        1 E1P     -0.079400
      4 C5          1.4350    1.3710    1.9680 c3        1 E1P     -0.102400
      5 C4         -0.0640    1.1560    2.1850 c3        1 E1P      0.085500
      6 N1         -0.8150    0.9900    0.9540 n         1 E1P     -0.444800
      7 C6         -1.7400    1.9440    0.5810 c         1 E1P      0.633100
      8 O2         -2.0920    2.8830    1.3140 o         1 E1P     -0.562100
      9 C7         -2.4330    1.7630   -0.7600 c         1 E1P      0.569100
     10 O3         -3.4700    1.1430   -0.9820 o         1 E1P     -0.508000
     11 O4         -1.7850    2.4110   -1.7650 os        1 E1P     -0.429900
     12 C8         -2.4180    2.4430   -3.0570 c3        1 E1P      0.137400
     13 C9         -3.5040    3.4880   -3.0990 c3        1 E1P     -0.129100
     14 H3C1       -0.8110    0.0890   -0.9640 h1        1 E1P      0.062450
     15 H3C2       -0.4170   -0.9900    0.4530 h1        1 E1P      0.062450
     16 H2C1        1.4000    1.1720   -0.8420 hc        1 E1P      0.054200
     17 H2C2        1.6010   -0.6270   -0.8620 hc        1 E1P      0.054200
     18 H1C1        1.9820   -0.6840    1.5650 hc        1 E1P      0.045200
     19 H1C2        3.0870    0.5470    0.8350 hc        1 E1P      0.045200
     20 H5C1        1.9420    1.3340    2.9660 hc        1 E1P      0.054200
     21 H5C2        1.6130    2.3880    1.5320 hc        1 E1P      0.054200
     22 H4C1       -0.4870    2.0250    2.7650 h1        1 E1P      0.062450
     23 H4C2       -0.2140    0.2160    2.7920 h1        1 E1P      0.062450
     24 H8C1       -1.5640    2.7010   -3.7390 h1        1 E1P      0.063700
     25 H8C2       -2.8220    1.4260   -3.3030 h1        1 E1P      0.063700
     26 H9C1       -3.9160    3.5560   -4.1340 hc        1 E1P      0.053700
     27 H9C2       -4.3300    3.2150   -2.3970 hc        1 E1P      0.053700
     28 H9C3       -3.1020    4.4860   -2.8010 hc        1 E1P      0.053700
@<TRIPOS>BOND
     1    1    2 1   
     2    1    6 1   
     3    1   14 1   
     4    1   15 1   
     5    2    3 1   
     6    2   16 1   
     7    2   17 1   
     8    3    4 1   
     9    3   18 1   
    10    3   19 1   
    11    4    5 1   
    12    4   20 1   
    13    4   21 1   
    14    5    6 1   
    15    5   22 1   
    16    5   23 1   
    17    6    7 1   
    18    7    8 2   
    19    7    9 1   
    20    9   10 2   
    21    9   11 1   
    22   11   12 1   
    23   12   13 1   
    24   12   24 1   
    25   12   25 1   
    26   13   26 1   
    27   13   27 1   
    28   13   28 1   
@<TRIPOS>SUBSTRUCTURE
     1 E1P         1 TEMP              0 ****  ****    0 ROOT
