@<TRIPOS>MOLECULE
E1P
   28    28     1     0     0
SMALL
bcc


@<TRIPOS>ATOM
      1 C3          1.1380   -1.7640   -1.3060 c3        1 E1P      0.082500
      2 C2          2.6680   -1.7290   -1.2310 c3        1 E1P     -0.103900
      3 C1          3.1560   -1.7740    0.1500 c3        1 E1P     -0.079400
      4 C5          2.5070   -0.7400    1.0090 c3        1 E1P     -0.103900
      5 C4          1.0000   -0.7840    0.9200 c3        1 E1P      0.082500
      6 N1          0.5260   -0.7590   -0.4540 n         1 E1P     -0.439800
      7 C6         -0.4660    0.1800   -0.9270 c         1 E1P      0.632100
      8 O2         -0.8190    0.1520   -2.0740 o         1 E1P     -0.560100
      9 C7         -1.0520    1.2330    0.0330 c         1 E1P      0.568100
     10 O3         -0.3780    2.1830    0.3730 o         1 E1P     -0.517000
     11 O4         -2.3820    1.1690    0.3940 os        1 E1P     -0.421900
     12 C8         -3.0270    2.4060    0.3920 c3        1 E1P      0.136400
     13 C9         -4.5220    2.1990    0.6270 c3        1 E1P     -0.101100
     14 H3C1        0.8640   -1.6060   -2.2340 h1        1 E1P      0.062950
     15 H3C2        0.8330   -2.6260   -1.0360 h1        1 E1P      0.062950
     16 H2C1        3.0210   -2.4930   -1.7130 hc        1 E1P      0.055200
     17 H2C2        2.9890   -0.9130   -1.6530 hc        1 E1P      0.055200
     18 H1C1        2.9630   -2.6880    0.5350 hc        1 E1P      0.045200
     19 H1C2        4.1470   -1.6230    0.1510 hc        1 E1P      0.045200
     20 H5C1        2.7740   -0.8850    1.9420 hc        1 E1P      0.055200
     21 H5C2        2.8120    0.1370    0.7260 hc        1 E1P      0.055200
     22 H4C1        0.6950   -1.5760    1.3320 h1        1 E1P      0.062950
     23 H4C2        0.6360   -0.0230    1.3960 h1        1 E1P      0.062950
     24 H8C1       -2.8880    2.8550   -0.4900 h1        1 E1P      0.054200
     25 H8C2       -2.6480    2.9830    1.1250 h1        1 E1P      0.054200
     26 H9C1       -4.9720    3.0950    0.7320 hc        1 E1P      0.051367
     27 H9C2       -4.9210    1.7160   -0.1540 hc        1 E1P      0.051367
     28 H9C3       -4.6520    1.6730    1.4320 hc        1 E1P      0.051367
@<TRIPOS>BOND
     1    1    2 1   
     2    1    6 1   
     3    1   14 1   
     4    1   15 1   
     5    2    3 1   
     6    2   16 1   
     7    2   17 1   
     8    3    4 1   
     9    3   18 1   
    10    3   19 1   
    11    4    5 1   
    12    4   20 1   
    13    4   21 1   
    14    5    6 1   
    15    5   22 1   
    16    5   23 1   
    17    6    7 1   
    18    7    8 2   
    19    7    9 1   
    20    9   10 2   
    21    9   11 1   
    22   11   12 1   
    23   12   13 1   
    24   12   24 1   
    25   12   25 1   
    26   13   26 1   
    27   13   27 1   
    28   13   28 1   
@<TRIPOS>SUBSTRUCTURE
     1 E1P         1 TEMP              0 ****  ****    0 ROOT
