@<TRIPOS>MOLECULE
E1S
   47    44     1     0     0
SMALL
bcc


@<TRIPOS>ATOM
      1 C1         -0.0360    0.2100    0.0350 c3        1 E1S     -0.197000
      2 N1          0.3240   -0.4240   -2.3210 n         1 E1S     -0.391000
      3 C2         -0.3040   -0.7100   -1.1440 c2        1 E1S      0.293000
      4 O2         -1.1180   -1.6660   -1.0590 o         1 E1S     -0.464000
      5 C3          3.5130   -0.8340   -3.9070 c2        1 E1S     -0.085000
      6 C4          3.7450   -2.2800   -3.6590 c3        1 E1S     -0.176000
      7 C5          6.6580   -0.0020   -0.5250 c1        1 E1S      0.449000
      8 O6          7.3960    0.4160   -1.3640 o         1 E1S     -0.228500
      9 O7          6.0120   -0.4570    0.3630 o         1 E1S     -0.228500
     10 C13         3.5000    0.9990   -2.0030 c2        1 E1S      0.336000
     11 C14        -0.3720   -0.4440    1.3600 c3        1 E1S     -0.142000
     12 C15        -1.7460   -0.1680    1.8520 c2        1 E1S      0.023000
     13 C16        -2.8900   -0.3740    0.9350 c3        1 E1S     -0.217000
     14 C17        -4.2290   -0.1760    1.4530 c1        1 E1S     -0.136000
     15 C18        -1.9750    0.2210    3.1410 c2        1 E1S     -0.254000
     16 C19        -5.6930    0.3840    3.3330 c1        1 E1S     -0.833000
     17 C20        -6.6200   -0.5830   -0.5250 c1        1 E1S     -0.253500
     18 C21        -7.5390   -0.7320   -1.2790 c1        1 E1S     -0.253500
     19 S23        -7.0130    0.5270    3.7210 ss        1 E1S      1.139000
     20 C27        -8.2200    0.2540    2.5610 c2        1 E1S     -0.628000
     21 C30        -4.4070    0.2050    2.8110 c2        1 E1S     -0.073000
     22 C31        -3.3000    0.4130    3.6220 c2        1 E1S      0.050000
     23 C35         3.5090    0.0880   -3.0030 c1        1 E1S     -0.549000
     24 H1         -0.6290    1.1490   -0.1120 hc        1 E1S      0.140500
     25 H1A         1.0540    0.5090    0.0330 hc        1 E1S      0.140500
     26 HN1         1.1040    0.2090   -2.3220 hn        1 E1S      0.246500
     27 H3          3.3370   -0.6000   -4.9760 ha        1 E1S      0.053000
     28 H3A         2.8670   -2.8810   -4.0060 hc        1 E1S      0.048000
     29 HN3         4.5910    2.4620   -1.1300 hn        1 E1S      0.147000
     30 HN3A        5.3650    1.7310   -2.3850 hn        1 E1S      0.147000
     31 H4          4.6460   -2.6310   -4.2220 hc        1 E1S      0.048000
     32 H4A         3.9050   -2.4880   -2.5740 hc        1 E1S      0.048000
     33 H14         0.3800   -0.1070    2.1260 hc        1 E1S      0.107500
     34 H14A       -0.2690   -1.5620    1.2570 hc        1 E1S      0.107500
     35 H16        -2.7690    0.2920    0.0240 hc        1 E1S      0.198000
     36 H17        -2.8220   -1.4200    0.4840 hc        1 E1S      0.198000
     37 H18        -1.1400    0.3900    3.8370 ha        1 E1S      0.132000
     38 H20        -5.7850   -0.4480    0.1560 ha        1 E1S      0.241000
     39 H21        -7.9010   -0.0230    1.5400 h4        1 E1S      0.160000
     40 H24        -9.8930    0.6340    3.8320 ha        1 E1S      0.092500
     41 H24A       -8.3470   -0.8650   -1.9490 ha        1 E1S      0.241000
     42 H24B      -10.3020    0.1870    2.0880 ha        1 E1S      0.092500
     43 H31        -3.4290    0.7330    4.6700 ha        1 E1S      0.125000
     44 H35         0.2740   -1.0890   -3.0540 hn        1 E1S      0.246500
     45 C24        -9.5160    0.3620    2.8350 c2        1 E1S     -0.153000
     46 N3          4.7470    1.6010   -1.6120 n         1 E1S     -0.394000
     47 O5          2.4600    1.3920   -1.3550 o         1 E1S     -0.593000
@<TRIPOS>BOND
     1    1    3 1   
     2    1   11 1   
     3    1   24 1   
     4    1   25 1   
     5    2    3 1   
     6    2   26 1   
     7    2   44 1   
     8    3    4 1   
     9    5    6 1   
    10    5   23 1   
    11    5   27 1   
    12    6   28 1   
    13    6   31 1   
    14    6   32 1   
    15    7    8 1   
    16    7    9 1   
    17   10   23 1   
    18   10   46 1   
    19   10   47 1   
    20   11   12 1   
    21   11   33 1   
    22   11   34 1   
    23   12   13 1   
    24   12   15 1   
    25   13   14 1   
    26   13   35 1   
    27   13   36 1   
    28   14   21 1   
    29   15   22 1   
    30   15   37 1   
    31   16   19 1   
    32   16   21 1   
    33   17   18 1   
    34   17   38 1   
    35   18   41 1   
    36   19   20 1   
    37   20   39 1   
    38   20   45 1   
    39   21   22 1   
    40   22   43 1   
    41   29   46 1   
    42   30   46 1   
    43   40   45 1   
    44   42   45 1   
@<TRIPOS>SUBSTRUCTURE
     1 E1S         1 TEMP              0 ****  ****    0 ROOT
