@<TRIPOS>MOLECULE
E1S
   47    43     1     0     0
SMALL
bcc


@<TRIPOS>ATOM
      1 C1          0.9250   -0.1330   -0.0390 c3        1 E1S     -0.182000
      2 N1          3.1500   -0.0420   -1.2660 n         1 E1S     -0.331000
      3 C2          2.4400   -0.1140   -0.0380 c2        1 E1S      0.294000
      4 O2          3.0470   -0.1520    1.0140 o         1 E1S     -0.378000
      5 C3          5.0900   -0.5590   -2.5740 c3        1 E1S     -0.143000
      6 N3          6.1600    1.7010   -0.2630 n         1 E1S     -0.389000
      7 C4          6.2660   -1.4730   -2.3070 c3        1 E1S     -0.239000
      8 C5          7.0210   -1.7140   -3.5970 c2        1 E1S      0.327000
      9 O5          4.4750    2.3180   -1.6770 o         1 E1S     -0.450000
     10 O6          6.5120   -2.4300   -4.4990 o         1 E1S     -0.578000
     11 O7          8.1670   -1.2190   -3.7570 o         1 E1S     -0.578000
     12 C13         5.0430    1.4170   -1.0930 c2        1 E1S      0.264000
     13 C14         0.4180   -0.1050    1.3870 c3        1 E1S     -0.121000
     14 C15        -1.0920   -0.0420    1.3850 c2        1 E1S     -0.059000
     15 C16        -1.8330   -1.2110    1.4400 c2        1 E1S     -0.127000
     16 C17        -3.2150   -1.1530    1.5280 c1        1 E1S     -0.113000
     17 C18        -1.7340    1.1860    1.4180 c1        1 E1S     -0.125000
     18 C19        -5.3640    0.1380    1.6190 c1        1 E1S     -0.316000
     19 C20        -6.1680    0.2320    2.8230 c1        1 E1S     -0.152000
     20 C21        -7.6970    0.3630    2.3950 c1        1 E1S     -0.161000
     21 S23        -6.3220    0.2030    0.3990 ss        1 E1S      0.552000
     22 C24        -9.0200    0.5150    0.1150 c3        1 E1S     -0.145000
     23 C27        -7.7680    0.3440    0.9460 c2        1 E1S     -0.377000
     24 C30        -3.8550    0.0750    1.5610 c1        1 E1S     -0.019000
     25 C31        -3.1150    1.2440    1.5050 c1        1 E1S     -0.127000
     26 C35         4.5710   -0.0100   -1.2640 c3        1 E1S     -0.012000
     27 H1          0.6090   -0.9470   -0.4810 hc        1 E1S      0.105000
     28 H1A         0.5890    0.6510   -0.5200 hc        1 E1S      0.105000
     29 HN1         2.6950   -0.0270   -2.0560 hn        1 E1S      0.217000
     30 H3          4.3800   -1.0630   -3.0200 hc        1 E1S      0.089500
     31 H3A         5.3750    0.1800   -3.1480 hc        1 E1S      0.089500
     32 HN3         6.6520    1.0170    0.0910 hn        1 E1S      0.242000
     33 HN3A        6.3920    2.5690   -0.0900 hn        1 E1S      0.242000
     34 H4          5.9420   -2.3260   -1.9540 hc        1 E1S      0.074000
     35 H4A         6.8620   -1.0550   -1.6540 hc        1 E1S      0.074000
     36 H14         0.7100   -0.9140    1.8530 hc        1 E1S      0.108000
     37 H14A        0.7770    0.6820    1.8450 hc        1 E1S      0.108000
     38 H16        -1.3820   -2.0760    1.4180 ha        1 E1S      0.136000
     39 H17        -3.7340   -1.9760    1.5910 ha        1 E1S      0.131000
     40 H18        -1.2120    2.0100    1.3900 ha        1 E1S      0.140000
     41 H20        -5.8300    0.2180    3.7390 DU        1 E1S      0.150000
     42 H21        -8.4560    0.4430    3.0040 DU        1 E1S      0.150000
     43 H24        -8.8480    0.2130   -0.8020 hc        1 E1S      0.083333
     44 H24A       -9.7450   -0.0190    0.5030 hc        1 E1S      0.083333
     45 H24B       -9.2790    1.4600    0.1050 hc        1 E1S      0.083333
     46 H31        -3.5120    2.1350    1.5520 ha        1 E1S      0.130000
     47 H35         4.9080   -0.5550   -0.5250 h1        1 E1S      0.144000
@<TRIPOS>BOND
     1    1    3 1   
     2    1   13 1   
     3    1   27 1   
     4    1   28 1   
     5    2    3 1   
     6    2   26 1   
     7    2   29 1   
     8    3    4 1   
     9    5    7 1   
    10    5   26 1   
    11    5   30 1   
    12    5   31 1   
    13    6   12 1   
    14    6   32 1   
    15    6   33 1   
    16    7    8 1   
    17    7   34 1   
    18    7   35 1   
    19    8   10 1   
    20    8   11 1   
    21    9   12 1   
    22   12   26 1   
    23   13   14 1   
    24   13   36 1   
    25   13   37 1   
    26   14   15 1   
    27   14   17 1   
    28   15   16 1   
    29   15   38 1   
    30   16   39 1   
    31   17   40 1   
    32   18   19 1   
    33   18   21 1   
    34   19   20 1   
    35   20   23 1   
    36   21   23 1   
    37   22   23 1   
    38   22   43 1   
    39   22   44 1   
    40   22   45 1   
    41   24   25 1   
    42   25   46 1   
    43   26   47 1   
@<TRIPOS>SUBSTRUCTURE
     1 E1S         1 TEMP              0 ****  ****    0 ROOT
