@<TRIPOS>MOLECULE
E1S
   47    48     1     0     0
SMALL
bcc


@<TRIPOS>ATOM
      1 C1         -0.9370   -0.7300    0.0890 c3        1 E1S     -0.150400
      2 N1         -3.3550   -0.4320   -0.2750 n         1 E1S     -0.532900
      3 C2         -2.3740   -0.9830    0.5200 c         1 E1S      0.661100
      4 O2         -2.6410   -1.6250    1.5580 o         1 E1S     -0.627100
      5 C3         -5.6250    0.5530   -0.4420 c3        1 E1S     -0.076400
      6 C4         -5.3480    1.7640    0.4110 c3        1 E1S     -0.201400
      7 C5         -6.5500    2.7330    0.3880 c         1 E1S      0.909600
      8 O6         -6.3030    3.9700    0.3850 o         1 E1S     -0.846300
      9 O7         -7.7140    2.2370    0.3920 o         1 E1S     -0.846300
     10 C13        -5.2860   -1.8730   -0.8620 c         1 E1S      0.632100
     11 C14         0.0330   -1.2630    1.1250 c3        1 E1S     -0.035100
     12 C15         1.4440   -0.9760    0.7540 ca        1 E1S     -0.067300
     13 C16         1.9400    0.3330    0.8190 ca        1 E1S     -0.125500
     14 C17         3.2610    0.6060    0.4850 ca        1 E1S     -0.120000
     15 C18         2.3000   -2.0060    0.3500 ca        1 E1S     -0.125500
     16 C19         5.4950   -0.1410   -0.2630 cc        1 E1S     -0.045100
     17 C20         6.3210   -0.8990   -1.0770 cd        1 E1S     -0.152000
     18 C21         7.6200   -0.3270   -1.2020 cd        1 E1S     -0.161000
     19 S23         6.3120    1.2190    0.3130 ss        1 E1S      0.012200
     20 C27         7.7420    0.8470   -0.4820 cc        1 E1S     -0.114400
     21 C30         4.1230   -0.4270    0.0790 ca        1 E1S     -0.019000
     22 C31         3.6260   -1.7360    0.0170 ca        1 E1S     -0.120000
     23 C35        -4.7600   -0.6590   -0.0560 c3        1 E1S      0.035700
     24 H1         -0.7600   -1.2330   -0.8970 hc        1 E1S      0.066200
     25 H1A        -0.7740    0.3720   -0.0510 hc        1 E1S      0.066200
     26 HN1        -3.1040   -0.0420   -1.1520 hn        1 E1S      0.314500
     27 H3         -6.7090    0.2790   -0.3090 hc        1 E1S      0.060200
     28 H3A        -5.4720    0.8020   -1.5240 hc        1 E1S      0.060200
     29 HN3        -6.9030   -3.1160   -1.0150 hn        1 E1S      0.305000
     30 HN3A       -7.0420   -1.9420    0.2010 hn        1 E1S      0.305000
     31 H4         -5.1820    1.4630    1.4760 hc        1 E1S      0.029200
     32 H4A        -4.4330    2.3000    0.0580 hc        1 E1S      0.029200
     33 H14        -0.2000   -0.7940    2.1210 hc        1 E1S      0.068700
     34 H14A       -0.1290   -2.3680    1.2440 hc        1 E1S      0.068700
     35 H16         1.2740    1.1500    1.1370 ha        1 E1S      0.138000
     36 H17         3.6360    1.6400    0.5350 ha        1 E1S      0.130500
     37 H18         1.9240   -3.0380    0.2960 ha        1 E1S      0.138000
     38 H20         6.0240   -1.8220   -1.5790 ha        1 E1S      0.153000
     39 H21         8.4140   -0.7740   -1.8040 ha        1 E1S      0.148000
     40 H24         9.2330    2.0510   -1.4170 hc        1 E1S      0.044033
     41 H24A        8.7750    2.5700    0.2600 hc        1 E1S      0.044033
     42 H24B        9.8020    1.0950    0.0140 hc        1 E1S      0.044033
     43 H31         4.2890   -2.5570   -0.2930 ha        1 E1S      0.130500
     44 H35        -4.8980   -0.8760    1.0480 h1        1 E1S      0.099700
     45 C24         8.9430    1.6830   -0.4000 c3        1 E1S     -0.019800
     46 N3         -6.4740   -2.4300   -0.4470 n         1 E1S     -0.661000
     47 O5         -4.6780   -2.3620   -1.8380 o         1 E1S     -0.646100
@<TRIPOS>BOND
     1    1    3 1   
     2    1   11 1   
     3    1   24 1   
     4    1   25 1   
     5    2    3 1   
     6    2   23 1   
     7    2   26 1   
     8    3    4 2   
     9    5    6 1   
    10    5   23 1   
    11    5   27 1   
    12    5   28 1   
    13    6    7 1   
    14    6   31 1   
    15    6   32 1   
    16    7    8 1   
    17    7    9 1   
    18   10   23 1   
    19   10   46 1   
    20   10   47 2   
    21   11   12 1   
    22   11   33 1   
    23   11   34 1   
    24   12   13 ar  
    25   12   15 ar  
    26   13   14 ar  
    27   13   35 1   
    28   14   21 ar  
    29   14   36 1   
    30   15   22 ar  
    31   15   37 1   
    32   16   17 2   
    33   16   19 1   
    34   16   21 1   
    35   17   18 1   
    36   17   38 1   
    37   18   20 2   
    38   18   39 1   
    39   19   20 1   
    40   20   45 1   
    41   21   22 ar  
    42   22   43 1   
    43   23   44 1   
    44   29   46 1   
    45   30   46 1   
    46   40   45 1   
    47   41   45 1   
    48   42   45 1   
@<TRIPOS>SUBSTRUCTURE
     1 E1S         1 TEMP              0 ****  ****    0 ROOT
