@<TRIPOS>MOLECULE
E1S
   49    65     1     0     0
SMALL
bcc


@<TRIPOS>ATOM
      1 C1          0.0000    0.0000    0.0000 DU        1 E1S     -0.364000
      2 N1          2.1810    0.0000   -1.1670 ny        1 E1S      0.935000
      3 C2          1.5070    0.0000    0.0000 c3        1 E1S      0.318000
      4 O2          2.1130    0.0000    1.0500 o         1 E1S     -0.391000
      5 C3          4.1560   -0.6080   -2.4750 DU        1 E1S     -0.297000
      6 C4          3.7510   -2.0820   -2.5430 c3        1 E1S      0.123000
      7 C5          4.2530   -2.6820   -3.8300 c2        1 E1S      0.329000
      8 O6          4.8710   -2.0000   -4.6140 o         1 E1S     -0.220500
      9 O7          4.0140   -3.9740   -4.1070 o         1 E1S     -0.220500
     10 C13         4.1480    1.4170   -1.0430 c3        1 E1S      0.162000
     11 C14        -0.5100   -0.0010    1.4430 c3        1 E1S     -0.169000
     12 C15        -2.0170   -0.0010    1.4430 c3        1 E1S     -0.365000
     13 C16        -2.7050   -1.2010    1.4430 c2        1 E1S      0.164000
     14 C17        -4.0850   -1.2080    1.4430 c2        1 E1S      0.004000
     15 C18        -2.7050    1.1990    1.4490 c2        1 E1S     -0.104000
     16 C19        -6.2650   -0.0020    1.4440 c3        1 E1S     -0.582000
     17 C20        -7.0430    1.0980    1.4390 c3        1 E1S     -0.114000
     18 C21        -8.3990    0.8440    1.4350 c2        1 E1S     -0.055000
     19 S23        -7.2800   -1.4380    1.4430 ss        1 E1S      0.267000
     20 C27        -8.7340   -0.4490    1.4360 DU        1 E1S      0.183000
     21 C30        -4.7860   -0.0020    1.4440 c3        1 E1S     -0.286000
     22 C31        -4.0860    1.2050    1.4500 c2        1 E1S     -0.046000
     23 C35         3.6460    0.0010   -1.1680 DU        1 E1S     -0.670000
     24 H1         -1.0730   -0.0950    0.1140 ha        1 E1S      0.244000
     25 H1A         0.9930    0.4300    0.0620 DU        1 E1S     -0.154000
     26 HN1         2.8700    0.6720   -1.4440 DU        1 E1S      0.073000
     27 H3          3.1640   -0.6700   -2.0440 DU        1 E1S      0.190000
     28 H3A         3.2050   -0.2930   -2.0620 DU        1 E1S      0.190000
     29 HN3         4.6590    1.0990   -1.1700 DU        1 E1S      0.315000
     30 HN3A        5.3860    0.8380   -1.5830 hn        1 E1S      0.242500
     31 H4          3.7360   -1.0720   -2.9330 DU        1 E1S      0.176000
     32 H4A         4.0630   -1.3330   -1.8250 DU        1 E1S      0.176000
     33 H14         0.4570    0.4680    1.3070 hc        1 E1S      0.212000
     34 H14A        0.1150   -0.4260    0.6660 DU        1 E1S      0.201000
     35 H16        -1.7370   -1.4000    1.0010 ha        1 E1S      0.180000
     36 H17        -3.0190   -1.1080    1.6060 ha        1 E1S     -0.061000
     37 H18        -1.6500    1.0710    1.6580 DU        1 E1S      0.258000
     38 H20        -6.1400    0.4990    1.4410 hc        1 E1S      0.353000
     39 H21        -7.5510    0.1710    1.4370 DU        1 E1S      0.183000
     40 H24        -9.2120   -0.4280    1.4380 hc        1 E1S     -0.691000
     41 H24A       -9.3300   -0.2640    1.4340 DU        1 E1S      0.030000
     42 H24B       -9.7570    0.0320    1.4320 DU        1 E1S      0.030000
     43 H31        -5.0310    0.7040    1.2810 DU        1 E1S      0.331000
     44 H35         2.5790   -0.0120   -0.9800 DU        1 E1S     -0.471000
     45 C24       -10.1440   -0.9800    1.4320 c3        1 E1S      0.389000
     46 N3          5.4730    1.6620   -1.0220 nz        1 E1S      0.015000
     47 O5          3.3600    2.3350   -0.9630 o         1 E1S     -0.273000
     48 H12         1.8900    0.8140   -1.6710 hn        1 E1S      0.018000
     49 H33         5.1710    2.3470   -0.3580 hn        1 E1S      0.242500
@<TRIPOS>BOND
     1    1    3 1   
     2    1   11 1   
     3    1   24 1   
     4    1   25 1   
     5    1   34 1   
     6    2    3 1   
     7    2   23 1   
     8    2   26 1   
     9    2   48 1   
    10    3    4 1   
    11    3   25 1   
    12    5    6 1   
    13    5   23 1   
    14    5   27 1   
    15    5   28 1   
    16    5   31 1   
    17    5   32 1   
    18    6    7 1   
    19    6   31 1   
    20    6   32 1   
    21    7    8 1   
    22    7    9 1   
    23   10   23 1   
    24   10   29 1   
    25   10   46 1   
    26   10   47 1   
    27   11   12 1   
    28   11   33 1   
    29   11   34 1   
    30   12   13 1   
    31   12   15 1   
    32   12   37 1   
    33   13   14 1   
    34   13   35 1   
    35   14   21 1   
    36   14   36 1   
    37   15   22 1   
    38   15   37 1   
    39   16   17 1   
    40   16   19 1   
    41   16   21 1   
    42   16   39 1   
    43   17   18 1   
    44   17   38 1   
    45   17   39 1   
    46   18   20 1   
    47   18   39 1   
    48   19   20 1   
    49   20   41 1   
    50   20   42 1   
    51   20   45 1   
    52   21   22 1   
    53   21   43 1   
    54   22   43 1   
    55   23   26 1   
    56   23   27 1   
    57   23   28 1   
    58   27   28 1   
    59   29   46 1   
    60   30   46 1   
    61   40   45 1   
    62   41   42 1   
    63   41   45 1   
    64   42   45 1   
    65   46   49 1   
@<TRIPOS>SUBSTRUCTURE
     1 E1S         1 TEMP              0 ****  ****    0 ROOT
