@<TRIPOS>MOLECULE
E1X
   40    38     1     0     0
SMALL
bcc


@<TRIPOS>ATOM
      1 P           5.2470   -1.1990    0.7320 p3        1 E1X      2.525000
      2 OP1         5.9860   -1.4480   -0.6010 o         1 E1X     -1.233500
      3 OP2         6.2490   -1.1320    1.8560 os        1 E1X     -1.277000
      4 O5'         4.4430    0.1820    0.6510 os        1 E1X     -0.712000
      5 N9         -0.8490    0.9380    0.8820 n2        1 E1X     -0.169000
      6 C4         -1.3760    0.2580   -0.1700 c1        1 E1X      0.136000
      7 N3         -1.3660    0.5180   -1.6140 n2        1 E1X     -0.268000
      8 C2         -2.0290   -0.4090   -2.5280 c2        1 E1X      0.406000
      9 O2         -1.9030   -0.2610   -3.7630 o         1 E1X     -0.372000
     10 N1         -2.6860   -1.5850   -2.0120 n         1 E1X     -0.333000
     11 C10        -3.2800   -2.5400   -2.9250 c3        1 E1X     -0.017000
     12 C11        -4.7570   -2.2510   -3.0630 c3        1 E1X     -0.229000
     13 O6         -3.2040   -2.8590   -0.2030 o         1 E1X     -0.367000
     14 C6         -2.7080   -1.8270   -0.6330 c2        1 E1X      0.413000
     15 C5         -2.0140   -0.8580    0.3230 c2        1 E1X     -0.279000
     16 N7         -1.8770   -0.8590    1.6600 n2        1 E1X     -0.077000
     17 C8         -1.1520    0.2570    2.0150 c1        1 E1X     -0.120000
     18 C2'         0.5630    2.6830    1.5780 c3        1 E1X     -0.210000
     19 C5'         3.3170    0.3710    1.5310 c3        1 E1X      0.090000
     20 C4'         2.3630    1.3760    0.9240 c3        1 E1X     -0.052000
     21 O4'         1.4290    0.7750    0.3040 os        1 E1X     -0.309000
     22 C1'         0.1870    1.6690    0.4940 c2        1 E1X      0.165000
     23 C3'         1.6570    2.2350    2.0840 c3        1 E1X      0.053000
     24 O3'         2.5330    3.3590    2.4860 oh        1 E1X     -0.403000
     25 OP3         4.2840   -2.3200    0.9870 o         1 E1X     -1.233500
     26 HN3        -0.9220    1.2590   -1.9480 hn        1 E1X      0.316000
     27 H101       -2.8480   -2.4630   -3.8020 h1        1 E1X      0.106500
     28 H102       -3.1570   -3.4350   -2.5830 h1        1 E1X      0.106500
     29 H111       -5.2020   -2.5040   -2.2730 hc        1 E1X      0.077333
     30 H112       -5.1190   -2.7570   -3.8160 hc        1 E1X      0.077333
     31 H113       -4.8830   -1.3260   -3.2150 hc        1 E1X      0.077333
     32 H8         -0.8490    0.4800    2.9160 DU        1 E1X      0.195000
     33 H2'        -0.1490    2.7300    2.2740 hc        1 E1X      0.093500
     34 H2''        0.7140    3.5910    1.1680 hc        1 E1X      0.093500
     35 H5'         2.8550   -0.4840    1.6590 h1        1 E1X      0.033000
     36 H5''        3.6250    0.6960    2.3790 h1        1 E1X      0.033000
     37 H4'         2.8370    1.9610    0.3210 h1        1 E1X      0.122000
     38 H1'        -0.0150    2.1200   -0.3160 h4        1 E1X      0.087000
     39 H1          1.4650    1.6670    2.8540 h1        1 E1X      0.152000
     40 HO3'        2.5870    3.3930    3.3880 ho        1 E1X      0.303000
@<TRIPOS>BOND
     1    1    2 1   
     2    1    4 1   
     3    1   25 1   
     4    4   19 1   
     5    5    6 1   
     6    5   17 1   
     7    6   15 1   
     8    7    8 1   
     9    7   26 1   
    10    8    9 1   
    11    8   10 1   
    12   10   11 1   
    13   10   14 1   
    14   11   12 1   
    15   11   27 1   
    16   11   28 1   
    17   12   29 1   
    18   12   30 1   
    19   12   31 1   
    20   13   14 1   
    21   14   15 1   
    22   15   16 1   
    23   16   17 1   
    24   18   22 1   
    25   18   23 1   
    26   18   33 1   
    27   18   34 1   
    28   19   20 1   
    29   19   35 1   
    30   19   36 1   
    31   20   21 1   
    32   20   23 1   
    33   20   37 1   
    34   21   22 1   
    35   22   38 1   
    36   23   24 1   
    37   23   39 1   
    38   24   40 1   
@<TRIPOS>SUBSTRUCTURE
     1 E1X         1 TEMP              0 ****  ****    0 ROOT
