@<TRIPOS>MOLECULE
E1X
   40    42     1     0     0
SMALL
bcc


@<TRIPOS>ATOM
      1 P           3.5800   -1.7440   -3.7080 p5        1 E1X      1.439800
      2 OP1         4.8710   -2.3720   -4.0530 o         1 E1X     -0.846500
      3 OP2         3.4960   -0.4740   -4.7340 oh        1 E1X     -0.785400
      4 O5'         3.7620   -0.9040   -2.2990 os        1 E1X     -0.582200
      5 N9         -0.1030    1.5950    0.8630 nh        1 E1X     -0.155600
      6 C4          0.6440    2.7110    1.2490 cc        1 E1X     -0.033500
      7 N3          2.0040    2.8630    1.4970 n         1 E1X     -0.416100
      8 C2          2.4800    4.1470    1.7810 c         1 E1X      0.796500
      9 O2          3.7220    4.3200    1.9330 o         1 E1X     -0.729500
     10 N1          1.5780    5.2240    1.9420 n         1 E1X     -0.506400
     11 C10         2.1410    6.5020    2.3160 c3        1 E1X      0.103000
     12 C11         2.4400    6.6570    3.8010 c3        1 E1X     -0.109100
     13 C6          0.1590    5.0980    1.7630 c         1 E1X      0.763700
     14 C5         -0.2960    3.7840    1.3860 cd        1 E1X     -0.113600
     15 N7         -1.5900    3.3120    1.1030 nf        1 E1X     -0.611000
     16 C8         -1.4800    2.0090    0.7950 c1        1 E1X      0.004400
     17 C2'        -0.4730   -0.6820   -0.1110 c3        1 E1X     -0.102400
     18 C5'         2.7040   -0.0810   -1.9110 c3        1 E1X      0.191400
     19 C4'         1.8760   -0.7300   -0.7890 c3        1 E1X      0.086100
     20 O4'         1.7440    0.2090    0.2860 os        1 E1X     -0.463600
     21 C1'         0.3810    0.2450    0.7800 c3        1 E1X      0.273800
     22 C3'         0.4590   -1.1580   -1.2260 c3        1 E1X      0.137100
     23 O3'         0.3520   -2.5640   -1.3320 oh        1 E1X     -0.641800
     24 OP3         2.2600   -2.4060   -3.6230 o         1 E1X     -0.846500
     25 HN3         2.6530    2.1660    1.2010 hn        1 E1X      0.355500
     26 H101        3.1030    6.6470    1.7430 h1        1 E1X      0.056200
     27 H102        1.4110    7.3040    2.0040 h1        1 E1X      0.056200
     28 H111        1.5100    6.5480    4.4090 hc        1 E1X      0.031700
     29 H112        3.1790    5.8890    4.1330 hc        1 E1X      0.031700
     30 H113        2.8690    7.6710    3.9790 hc        1 E1X      0.031700
     31 H8          4.3440   -0.2670   -5.1080 ho        1 E1X      0.424000
     32 H2'        -1.3650   -0.1480   -0.5240 hc        1 E1X      0.076200
     33 H2''       -0.8320   -1.5510    0.4940 hc        1 E1X      0.076200
     34 H5'         3.1470    0.8770   -1.5180 h1        1 E1X      0.036200
     35 H5''        2.0550    0.1470   -2.8000 h1        1 E1X      0.036200
     36 H4'         2.4320   -1.6160   -0.3720 h1        1 E1X      0.065700
     37 H1'         0.4510   -0.1750    1.8310 h2        1 E1X      0.031700
     38 H1          0.1880   -0.6850   -2.2090 h1        1 E1X      0.054700
     39 HO3'        0.8590   -2.8200   -2.1220 ho        1 E1X      0.461000
     40 O6         -0.5340    6.1210    1.9410 o         1 E1X     -0.678500
@<TRIPOS>BOND
     1    1    2 1   
     2    1    3 1   
     3    1    4 1   
     4    1   24 1   
     5    3   31 1   
     6    4   18 1   
     7    5    6 1   
     8    5   16 2   
     9    5   21 1   
    10    6    7 1   
    11    6   14 2   
    12    7    8 1   
    13    7   25 1   
    14    8    9 2   
    15    8   10 1   
    16   10   11 1   
    17   10   13 1   
    18   11   12 1   
    19   11   26 1   
    20   11   27 1   
    21   12   28 1   
    22   12   29 1   
    23   12   30 1   
    24   13   14 1   
    25   13   40 2   
    26   14   15 1   
    27   15   16 2   
    28   17   21 1   
    29   17   22 1   
    30   17   32 1   
    31   17   33 1   
    32   18   19 1   
    33   18   34 1   
    34   18   35 1   
    35   19   20 1   
    36   19   22 1   
    37   19   36 1   
    38   20   21 1   
    39   21   37 1   
    40   22   23 1   
    41   22   38 1   
    42   23   39 1   
@<TRIPOS>SUBSTRUCTURE
     1 E1X         1 TEMP              0 ****  ****    0 ROOT
