@<TRIPOS>MOLECULE
E20
   57    60     1     0     0
SMALL
bcc


@<TRIPOS>ATOM
      1 C1         -0.1770    0.0900   -0.0500 ca        1 E20      0.080100
      2 C2          1.2430    0.1230   -0.1370 ca        1 E20      0.133100
      3 C3          2.0290    0.1290    1.0240 ca        1 E20     -0.185000
      4 C4          1.3920    0.1020    2.2560 ca        1 E20     -0.045300
      5 C5         -0.0150    0.0680    2.3400 ca        1 E20     -0.190600
      6 C6         -0.8080    0.0620    1.1980 ca        1 E20     -0.105000
      7 C7         -0.4340    0.0420    3.7550 c         1 E20      0.588700
      8 C8          0.8360    0.0170    4.6060 c3        1 E20     -0.164700
      9 C9          2.0140    0.1080    3.6150 c3        1 E20     -0.036100
     10 C10         0.8270    1.1360    5.6280 c3        1 E20     -0.067400
     11 C11         1.9340    0.9910    6.6600 c3        1 E20     -0.065700
     12 C12         2.1720    2.3200    7.3620 c3        1 E20     -0.074900
     13 C13         3.2420    2.1900    8.4420 c3        1 E20      0.168300
     14 N14         2.9620    1.1310    9.4040 n3        1 E20     -0.728600
     15 C15         2.6870   -0.1500    8.7660 c3        1 E20      0.168300
     16 C16         1.5990   -0.0690    7.6970 c3        1 E20     -0.074900
     17 C17         4.0080    1.0400   10.4160 c3        1 E20      0.215100
     18 C18         3.6760    0.1320   11.5650 ca        1 E20     -0.087300
     19 C19         4.6190   -0.8060   12.0000 ca        1 E20     -0.118500
     20 C20         4.3440   -1.6170   13.1000 ca        1 E20     -0.133500
     21 C21         3.1270   -1.4990   13.7700 ca        1 E20     -0.129000
     22 C22         2.1840   -0.5670   13.3380 ca        1 E20     -0.133500
     23 C23         2.4560    0.2490   12.2400 ca        1 E20     -0.118500
     24 O24        -1.5840    0.0290    4.1900 o         1 E20     -0.524100
     25 O25        -0.8370    0.0870   -1.2630 os        1 E20     -0.304900
     26 C26        -2.2580    0.0570   -1.1940 c3        1 E20      0.108700
     27 O27         1.7480    0.1470   -1.4180 os        1 E20     -0.299900
     28 C28         3.1660    0.1780   -1.5340 c3        1 E20      0.108700
     29 H3          3.1260    0.1550    0.9650 ha        1 E20      0.145000
     30 H6         -1.9030    0.0370    1.2910 ha        1 E20      0.159000
     31 H8          0.8680   -0.9730    5.1380 hc        1 E20      0.081700
     32 H91         2.6030    1.0460    3.7740 hc        1 E20      0.062700
     33 H92         2.7080   -0.7600    3.7410 hc        1 E20      0.062700
     34 H101        0.9390    2.1200    5.1000 hc        1 E20      0.056700
     35 H102       -0.1720    1.1450    6.1430 hc        1 E20      0.056700
     36 H11         2.8830    0.6900    6.1320 hc        1 E20      0.044700
     37 H121        2.5110    3.0900    6.6220 hc        1 E20      0.049450
     38 H122        1.2120    2.6790    7.8160 hc        1 E20      0.049450
     39 H131        4.2430    2.0360    7.9380 h1        1 E20      0.031700
     40 H132        3.2960    3.1600    9.0130 h1        1 E20      0.031700
     41 H151        2.3530   -0.8590    9.5750 h1        1 E20      0.031700
     42 H152        3.6190   -0.5830    8.2940 h1        1 E20      0.031700
     43 H161        1.5100   -1.0740    7.2110 hc        1 E20      0.049450
     44 H162        0.6130    0.1690    8.1750 hc        1 E20      0.049450
     45 H171        4.9920    0.7140    9.9620 h1        1 E20      0.038200
     46 H172        4.1600    2.0780   10.8360 h1        1 E20      0.038200
     47 H19         5.5800   -0.9060   11.4740 ha        1 E20      0.138000
     48 H20         5.0900   -2.3510   13.4390 ha        1 E20      0.131000
     49 H21         2.9110   -2.1400   14.6370 ha        1 E20      0.130000
     50 H22         1.2220   -0.4720   13.8640 ha        1 E20      0.131000
     51 H23         1.7120    0.9840   11.8990 ha        1 E20      0.138000
     52 H261       -2.6480    0.9620   -0.6680 h1        1 E20      0.046367
     53 H262       -2.6110   -0.8730   -0.6870 h1        1 E20      0.046367
     54 H263       -2.5670    0.0620   -2.2710 h1        1 E20      0.046367
     55 H281        3.5820    1.1010   -1.0620 h1        1 E20      0.046367
     56 H282        3.6200   -0.7360   -1.0790 h1        1 E20      0.046367
     57 H283        3.3320    0.1920   -2.6420 h1        1 E20      0.046367
@<TRIPOS>BOND
     1    1    2 ar  
     2    1    6 ar  
     3    1   25 1   
     4    2    3 ar  
     5    2   27 1   
     6    3    4 ar  
     7    3   29 1   
     8    4    5 ar  
     9    4    9 1   
    10    5    6 ar  
    11    5    7 1   
    12    6   30 1   
    13    7    8 1   
    14    7   24 2   
    15    8    9 1   
    16    8   10 1   
    17    8   31 1   
    18    9   32 1   
    19    9   33 1   
    20   10   11 1   
    21   10   34 1   
    22   10   35 1   
    23   11   12 1   
    24   11   16 1   
    25   11   36 1   
    26   12   13 1   
    27   12   37 1   
    28   12   38 1   
    29   13   14 1   
    30   13   39 1   
    31   13   40 1   
    32   14   15 1   
    33   14   17 1   
    34   15   16 1   
    35   15   41 1   
    36   15   42 1   
    37   16   43 1   
    38   16   44 1   
    39   17   18 1   
    40   17   45 1   
    41   17   46 1   
    42   18   19 ar  
    43   18   23 ar  
    44   19   20 ar  
    45   19   47 1   
    46   20   21 ar  
    47   20   48 1   
    48   21   22 ar  
    49   21   49 1   
    50   22   23 ar  
    51   22   50 1   
    52   23   51 1   
    53   25   26 1   
    54   26   52 1   
    55   26   53 1   
    56   26   54 1   
    57   27   28 1   
    58   28   55 1   
    59   28   56 1   
    60   28   57 1   
@<TRIPOS>SUBSTRUCTURE
     1 E20         1 TEMP              0 ****  ****    0 ROOT
