@<TRIPOS>MOLECULE
E20
   57    60     1     0     0
SMALL
bcc


@<TRIPOS>ATOM
      1 C1          0.4170   -0.1520    5.8180 ca        1 E20      0.080100
      2 C2         -0.9820   -0.1370    5.5600 ca        1 E20      0.133100
      3 C3         -1.4660   -0.1280    4.2450 ca        1 E20     -0.185000
      4 C4         -0.5490   -0.1330    3.2020 ca        1 E20     -0.045300
      5 C5          0.8360   -0.1490    3.4600 ca        1 E20     -0.190600
      6 C6          1.3300   -0.1580    4.7590 ca        1 E20     -0.105000
      7 C7          1.5840   -0.1550    2.1880 c         1 E20      0.588700
      8 C8          0.5570   -0.1860    1.0550 c3        1 E20     -0.164700
      9 C9         -0.8260   -0.1200    1.7340 c3        1 E20     -0.036100
     10 C10         0.7960    0.9450    0.0750 c3        1 E20     -0.067400
     11 C11        -0.0270    0.7980   -1.1960 c3        1 E20     -0.065700
     12 C12        -0.1090    2.1310   -1.9230 c3        1 E20     -0.074900
     13 C13        -0.8850    2.0000   -3.2320 c3        1 E20      0.168300
     14 N14        -0.3640    0.9550   -4.1050 n3        1 E20     -0.728600
     15 C15        -0.2320   -0.3290   -3.4300 c3        1 E20      0.168300
     16 C16         0.5640   -0.2460   -2.1300 c3        1 E20     -0.074900
     17 C17        -1.1330    0.8630   -5.3410 c3        1 E20      0.215100
     18 C18        -0.5200   -0.0270   -6.3830 ca        1 E20     -0.087300
     19 C19        -1.3140   -0.9730   -7.0400 ca        1 E20     -0.118500
     20 C20        -0.7690   -1.7660   -8.0490 ca        1 E20     -0.133500
     21 C21         0.5720   -1.6240   -8.4040 ca        1 E20     -0.129000
     22 C22         1.3670   -0.6840   -7.7490 ca        1 E20     -0.133500
     23 C23         0.8250    0.1140   -6.7430 ca        1 E20     -0.118500
     24 O24         2.8050   -0.1490    2.0420 o         1 E20     -0.524100
     25 O25         0.7650   -0.1600    7.1540 os        1 E20     -0.304900
     26 C26         2.1620   -0.1720    7.4300 c3        1 E20      0.108700
     27 O27        -1.7810   -0.1330    6.6830 os        1 E20     -0.299900
     28 C28        -3.1860   -0.1200    6.4530 c3        1 E20      0.108700
     29 H3         -2.5440   -0.1160    4.0380 ha        1 E20      0.145000
     30 H6          2.4160   -0.1690    4.9330 ha        1 E20      0.159000
     31 H8          0.6690   -1.1700    0.5230 hc        1 E20      0.081700
     32 H91        -1.4560   -0.9950    1.4370 hc        1 E20      0.062700
     33 H92        -1.3730    0.8130    1.4440 hc        1 E20      0.062700
     34 H101        0.5450    1.9220    0.5680 hc        1 E20      0.056700
     35 H102        1.8890    0.9720   -0.1840 hc        1 E20      0.056700
     36 H11        -1.0700    0.4780   -0.9150 hc        1 E20      0.044700
     37 H121       -0.6290    2.8880   -1.2810 hc        1 E20      0.049450
     38 H122        0.9260    2.5080   -2.1300 hc        1 E20      0.049450
     39 H131       -1.9750    1.8270   -2.9850 h1        1 E20      0.031700
     40 H132       -0.8140    2.9750   -3.7900 h1        1 E20      0.031700
     41 H151       -1.2430   -0.7800   -3.2010 h1        1 E20      0.031700
     42 H152        0.2990   -1.0240   -4.1400 h1        1 E20      0.031700
     43 H161        1.6330    0.0100   -2.3530 hc        1 E20      0.049450
     44 H162        0.5490   -1.2550   -1.6440 hc        1 E20      0.049450
     45 H171       -2.1930    0.5180   -5.1410 h1        1 E20      0.038200
     46 H172       -1.1960    1.9030   -5.7760 h1        1 E20      0.038200
     47 H19        -2.3720   -1.0910   -6.7640 ha        1 E20      0.138000
     48 H20        -1.3990   -2.5060   -8.5630 ha        1 E20      0.131000
     49 H21         1.0010   -2.2520   -9.1980 ha        1 E20      0.130000
     50 H22         2.4260   -0.5700   -8.0260 ha        1 E20      0.131000
     51 H23         1.4540    0.8550   -6.2260 ha        1 E20      0.138000
     52 H261        2.2020   -0.1750    8.5490 h1        1 E20      0.046367
     53 H262        2.6390   -1.0930    7.0160 h1        1 E20      0.046367
     54 H263        2.6540    0.7440    7.0210 h1        1 E20      0.046367
     55 H281       -3.6140   -0.1210    7.4880 h1        1 E20      0.046367
     56 H282       -3.4890    0.8020    5.9020 h1        1 E20      0.046367
     57 H283       -3.5040   -1.0340    5.8950 h1        1 E20      0.046367
@<TRIPOS>BOND
     1    1    2 ar  
     2    1    6 ar  
     3    1   25 1   
     4    2    3 ar  
     5    2   27 1   
     6    3    4 ar  
     7    3   29 1   
     8    4    5 ar  
     9    4    9 1   
    10    5    6 ar  
    11    5    7 1   
    12    6   30 1   
    13    7    8 1   
    14    7   24 2   
    15    8    9 1   
    16    8   10 1   
    17    8   31 1   
    18    9   32 1   
    19    9   33 1   
    20   10   11 1   
    21   10   34 1   
    22   10   35 1   
    23   11   12 1   
    24   11   16 1   
    25   11   36 1   
    26   12   13 1   
    27   12   37 1   
    28   12   38 1   
    29   13   14 1   
    30   13   39 1   
    31   13   40 1   
    32   14   15 1   
    33   14   17 1   
    34   15   16 1   
    35   15   41 1   
    36   15   42 1   
    37   16   43 1   
    38   16   44 1   
    39   17   18 1   
    40   17   45 1   
    41   17   46 1   
    42   18   19 ar  
    43   18   23 ar  
    44   19   20 ar  
    45   19   47 1   
    46   20   21 ar  
    47   20   48 1   
    48   21   22 ar  
    49   21   49 1   
    50   22   23 ar  
    51   22   50 1   
    52   23   51 1   
    53   25   26 1   
    54   26   52 1   
    55   26   53 1   
    56   26   54 1   
    57   27   28 1   
    58   28   55 1   
    59   28   56 1   
    60   28   57 1   
@<TRIPOS>SUBSTRUCTURE
     1 E20         1 TEMP              0 ****  ****    0 ROOT
