@<TRIPOS>MOLECULE
E20
   57    55     1     0     0
SMALL
bcc


@<TRIPOS>ATOM
      1 C1          0.4160    0.4660   -5.9060 c1        1 E20      0.045500
      2 C2          1.6320   -0.2120   -5.7560 c1        1 E20      0.045500
      3 C3          1.9940   -0.7280   -4.5130 c1        1 E20     -0.116500
      4 C4          1.1420   -0.5680   -3.4120 c1        1 E20     -0.019000
      5 C5         -0.0730    0.1100   -3.5620 c1        1 E20     -0.192000
      6 C6         -0.4350    0.6260   -4.8100 c1        1 E20     -0.116500
      7 C7         -0.9920   -0.2850   -2.3870 c2        1 E20      0.282000
      8 C8         -0.1390   -0.8790   -1.3100 c3        1 E20     -0.155000
      9 C9          1.1380   -1.2630   -2.0270 c3        1 E20     -0.126000
     10 C10         0.0880    0.0830   -0.0720 c3        1 E20     -0.139000
     11 C11        -1.1760    0.0090    0.9000 c3        1 E20     -0.111000
     12 C12        -0.9490   -1.0600    1.9030 c3        1 E20     -0.184500
     13 C13         0.1580   -0.7050    2.8890 c3        1 E20     -0.077500
     14 N14        -0.0400    0.6110    3.5040 n3        1 E20     -0.242000
     15 C15        -0.2670    1.6780    2.5130 c3        1 E20     -0.077500
     16 C16        -1.3750    1.3310    1.5260 c3        1 E20     -0.184500
     17 C17        -1.1660    0.5550    4.4230 c3        1 E20     -0.039000
     18 C18        -0.6440    0.6490    5.8970 c2        1 E20     -0.078000
     19 C19         0.1950    1.6890    6.2710 c2        1 E20     -0.108000
     20 C20         0.6020    1.8130    7.5970 c1        1 E20     -0.135000
     21 C21         0.1690    0.8960    8.5450 c1        1 E20     -0.131500
     22 C22        -0.6710   -0.1440    8.1720 c1        1 E20     -0.131500
     23 C23        -1.0780   -0.2690    6.8490 c1        1 E20     -0.129000
     24 O24        -2.1930   -0.1290   -2.3380 o         1 E20     -0.285000
     25 O25         0.0270    0.9350   -7.1680 os        1 E20     -0.206000
     26 C26        -0.7720    0.0270   -7.8940 c3        1 E20     -0.077000
     27 O27         2.5080   -0.3480   -6.8640 os        1 E20     -0.206000
     28 C28         2.5760   -1.6650   -7.3860 c3        1 E20     -0.077000
     29 H3          2.8380   -1.1980   -4.4090 ha        1 E20      0.156000
     30 H6         -1.2780    1.0960   -4.9140 ha        1 E20      0.156000
     31 H8         -0.5640   -1.6450   -0.8900 hc        1 E20      0.121000
     32 H91         1.9140   -0.9650   -1.5050 hc        1 E20      0.104000
     33 H92         1.1720   -2.2350   -2.1450 hc        1 E20      0.104000
     34 H101        0.8830   -0.1930    0.4110 hc        1 E20      0.087500
     35 H102        0.2020    0.9980   -0.3880 hc        1 E20      0.087500
     36 H11        -1.9700   -0.2150    0.3720 hc        1 E20      0.115000
     37 H121       -1.7800   -1.2110    2.4000 hc        1 E20      0.085000
     38 H122       -0.7070   -1.8770    1.4410 hc        1 E20      0.085000
     39 H131        0.1830   -1.3770    3.5880 h1        1 E20      0.091000
     40 H132        1.0180   -0.7070    2.4150 h1        1 E20      0.091000
     41 H151       -0.5090    2.5010    2.9830 h1        1 E20      0.091000
     42 H152        0.5480    1.8260    2.0240 h1        1 E20      0.091000
     43 H161       -1.4000    2.0160    0.8220 hc        1 E20      0.085000
     44 H162       -2.2320    1.3310    2.0000 hc        1 E20      0.085000
     45 H171       -1.6420   -0.2860    4.3020 h1        1 E20      0.078500
     46 H172       -1.7670    1.2970    4.2450 h1        1 E20      0.078500
     47 H19         0.5000    2.3320    5.6050 ha        1 E20      0.145000
     48 H20         1.1980    2.5510    7.8630 ha        1 E20      0.130000
     49 H21         0.4550    0.9840    9.4770 ha        1 E20      0.129500
     50 H22        -0.9750   -0.7870    8.8380 ha        1 E20      0.129500
     51 H23        -1.6700   -1.0030    6.5860 ha        1 E20      0.130000
     52 H261       -1.0930   -0.6790   -7.2930 h1        1 E20      0.085167
     53 H262       -1.5350    0.5000   -8.2780 h1        1 E20      0.085167
     54 H263       -0.2390   -0.3740   -8.6140 h1        1 E20      0.085167
     55 H281        2.2000   -1.6770   -8.2930 h1        1 E20      0.085167
     56 H282        2.0630   -2.2700   -6.8120 h1        1 E20      0.085167
     57 H283        3.5100   -1.9560   -7.4160 h1        1 E20      0.085167
@<TRIPOS>BOND
     1    1    6 1   
     2    1   25 1   
     3    2    3 1   
     4    2   27 1   
     5    3   29 1   
     6    4    5 1   
     7    4    9 1   
     8    5    7 1   
     9    6   30 1   
    10    7    8 1   
    11    7   24 1   
    12    8    9 1   
    13    8   10 1   
    14    8   31 1   
    15    9   32 1   
    16    9   33 1   
    17   10   11 1   
    18   10   34 1   
    19   10   35 1   
    20   11   12 1   
    21   11   16 1   
    22   11   36 1   
    23   12   13 1   
    24   12   37 1   
    25   12   38 1   
    26   13   14 1   
    27   13   39 1   
    28   13   40 1   
    29   14   15 1   
    30   14   17 1   
    31   15   16 1   
    32   15   41 1   
    33   15   42 1   
    34   16   43 1   
    35   16   44 1   
    36   17   18 1   
    37   17   45 1   
    38   17   46 1   
    39   18   19 1   
    40   18   23 1   
    41   19   20 1   
    42   19   47 1   
    43   20   48 1   
    44   21   22 1   
    45   21   49 1   
    46   22   50 1   
    47   23   51 1   
    48   25   26 1   
    49   26   52 1   
    50   26   53 1   
    51   26   54 1   
    52   27   28 1   
    53   28   55 1   
    54   28   56 1   
    55   28   57 1   
@<TRIPOS>SUBSTRUCTURE
     1 E20         1 TEMP              0 ****  ****    0 ROOT
