@<TRIPOS>MOLECULE
E20
   57    60     1     0     0
SMALL
bcc


@<TRIPOS>ATOM
      1 C1         -0.1770    0.0970   -0.0500 ca        1 E20      0.080100
      2 C2          1.2430    0.1210   -0.1370 ca        1 E20      0.133100
      3 C3          2.0300    0.1240    1.0230 ca        1 E20     -0.185000
      4 C4          1.3920    0.1030    2.2560 ca        1 E20     -0.045300
      5 C5         -0.0150    0.0770    2.3390 ca        1 E20     -0.190600
      6 C6         -0.8080    0.0750    1.1980 ca        1 E20     -0.105000
      7 C7         -0.4340    0.0550    3.7540 c         1 E20      0.588700
      8 C8          0.8360    0.0240    4.6060 c3        1 E20     -0.164700
      9 C9          2.0140    0.1060    3.6140 c3        1 E20     -0.036100
     10 C10         0.8330    1.1440    5.6260 c3        1 E20     -0.067400
     11 C11         1.9390    0.9930    6.6590 c3        1 E20     -0.065700
     12 C12         2.1850    2.3200    7.3610 c3        1 E20     -0.074900
     13 C13         3.2530    2.1840    8.4420 c3        1 E20      0.168300
     14 N14         2.9660    1.1270    9.4040 n3        1 E20     -0.728600
     15 C15         2.6840   -0.1520    8.7660 c3        1 E20      0.168300
     16 C16         1.5980   -0.0650    7.6970 c3        1 E20     -0.074900
     17 C17         4.0100    1.0310   10.4180 c3        1 E20      0.215100
     18 C18         3.6730    0.1250   11.5660 ca        1 E20     -0.087300
     19 C19         4.6110   -0.8160   12.0030 ca        1 E20     -0.118500
     20 C20         4.3320   -1.6250   13.1040 ca        1 E20     -0.133500
     21 C21         3.1130   -1.5030   13.7710 ca        1 E20     -0.129000
     22 C22         2.1740   -0.5680   13.3360 ca        1 E20     -0.133500
     23 C23         2.4520    0.2460   12.2380 ca        1 E20     -0.118500
     24 O24        -1.5840    0.0500    4.1900 o         1 E20     -0.524100
     25 O25        -0.8370    0.0970   -1.2630 os        1 E20     -0.304900
     26 C26        -2.2590    0.0770   -1.1940 c3        1 E20      0.108700
     27 O27         1.7480    0.1410   -1.4190 os        1 E20     -0.299900
     28 C28         3.1670    0.1620   -1.5350 c3        1 E20      0.108700
     29 H3          3.1260    0.1430    0.9650 ha        1 E20      0.145000
     30 H6         -1.9040    0.0570    1.2910 ha        1 E20      0.159000
     31 H8          0.8610   -0.9660    5.1390 hc        1 E20      0.081700
     32 H91         2.6100    1.0410    3.7730 hc        1 E20      0.062700
     33 H92         2.7020   -0.7660    3.7420 hc        1 E20      0.062700
     34 H101        0.9530    2.1270    5.0980 hc        1 E20      0.056700
     35 H102       -0.1650    1.1600    6.1410 hc        1 E20      0.056700
     36 H11         2.8860    0.6860    6.1320 hc        1 E20      0.044700
     37 H121        2.5290    3.0880    6.6210 hc        1 E20      0.049450
     38 H122        1.2270    2.6860    7.8140 hc        1 E20      0.049450
     39 H131        4.2530    2.0240    7.9390 h1        1 E20      0.031700
     40 H132        3.3120    3.1540    9.0120 h1        1 E20      0.031700
     41 H151        3.6140   -0.5910    8.2950 h1        1 E20      0.031700
     42 H152        2.3450   -0.8590    9.5750 h1        1 E20      0.031700
     43 H161        1.5030   -1.0700    7.2110 hc        1 E20      0.049450
     44 H162        0.6130    0.1790    8.1740 hc        1 E20      0.049450
     45 H171        4.1670    2.0680   10.8370 h1        1 E20      0.038200
     46 H172        4.9930    0.7000    9.9640 h1        1 E20      0.038200
     47 H19         5.5740   -0.9190   11.4800 ha        1 E20      0.138000
     48 H20         5.0740   -2.3620   13.4440 ha        1 E20      0.131000
     49 H21         2.8930   -2.1430   14.6380 ha        1 E20      0.130000
     50 H22         1.2120   -0.4700   13.8600 ha        1 E20      0.131000
     51 H23         1.7100    0.9830   11.8950 ha        1 E20      0.138000
     52 H261       -2.6170   -0.8510   -0.6860 h1        1 E20      0.046367
     53 H262       -2.6430    0.9850   -0.6690 h1        1 E20      0.046367
     54 H263       -2.5670    0.0820   -2.2710 h1        1 E20      0.046367
     55 H281        3.6150   -0.7540   -1.0780 h1        1 E20      0.046367
     56 H282        3.3320    0.1730   -2.6420 h1        1 E20      0.046367
     57 H283        3.5880    1.0830   -1.0630 h1        1 E20      0.046367
@<TRIPOS>BOND
     1    1    2 ar  
     2    1    6 ar  
     3    1   25 1   
     4    2    3 ar  
     5    2   27 1   
     6    3    4 ar  
     7    3   29 1   
     8    4    5 ar  
     9    4    9 1   
    10    5    6 ar  
    11    5    7 1   
    12    6   30 1   
    13    7    8 1   
    14    7   24 2   
    15    8    9 1   
    16    8   10 1   
    17    8   31 1   
    18    9   32 1   
    19    9   33 1   
    20   10   11 1   
    21   10   34 1   
    22   10   35 1   
    23   11   12 1   
    24   11   16 1   
    25   11   36 1   
    26   12   13 1   
    27   12   37 1   
    28   12   38 1   
    29   13   14 1   
    30   13   39 1   
    31   13   40 1   
    32   14   15 1   
    33   14   17 1   
    34   15   16 1   
    35   15   41 1   
    36   15   42 1   
    37   16   43 1   
    38   16   44 1   
    39   17   18 1   
    40   17   45 1   
    41   17   46 1   
    42   18   19 ar  
    43   18   23 ar  
    44   19   20 ar  
    45   19   47 1   
    46   20   21 ar  
    47   20   48 1   
    48   21   22 ar  
    49   21   49 1   
    50   22   23 ar  
    51   22   50 1   
    52   23   51 1   
    53   25   26 1   
    54   26   52 1   
    55   26   53 1   
    56   26   54 1   
    57   27   28 1   
    58   28   55 1   
    59   28   56 1   
    60   28   57 1   
@<TRIPOS>SUBSTRUCTURE
     1 E20         1 TEMP              0 ****  ****    0 ROOT
