@<TRIPOS>MOLECULE
E20
   57    60     1     0     0
SMALL
bcc


@<TRIPOS>ATOM
      1 C1         -0.1770    0.0950   -0.0480 ca        1 E20      0.080100
      2 C2          1.2430    0.1240   -0.1350 ca        1 E20      0.133100
      3 C3          2.0290    0.1290    1.0250 ca        1 E20     -0.185000
      4 C4          1.3920    0.1040    2.2580 ca        1 E20     -0.045300
      5 C5         -0.0150    0.0730    2.3410 ca        1 E20     -0.190600
      6 C6         -0.8080    0.0700    1.2000 ca        1 E20     -0.105000
      7 C7         -0.4340    0.0480    3.7560 c         1 E20      0.588700
      8 C8          0.8360    0.0200    4.6070 c3        1 E20     -0.164700
      9 C9          2.0140    0.1080    3.6160 c3        1 E20     -0.036100
     10 C10         0.8300    1.1390    5.6290 c3        1 E20     -0.067400
     11 C11         1.9360    0.9920    6.6610 c3        1 E20     -0.065700
     12 C12         2.1790    2.3200    7.3620 c3        1 E20     -0.074900
     13 C13         3.2490    2.1870    8.4430 c3        1 E20      0.168300
     14 N14         2.9650    1.1290    9.4050 n3        1 E20     -0.728600
     15 C15         2.6860   -0.1500    8.7680 c3        1 E20      0.168300
     16 C16         1.5990   -0.0670    7.6990 c3        1 E20     -0.074900
     17 C17         4.0100    1.0360   10.4180 c3        1 E20      0.215100
     18 C18         3.6750    0.1310   11.5670 ca        1 E20     -0.087300
     19 C19         4.6140   -0.8110   12.0030 ca        1 E20     -0.118500
     20 C20         4.3360   -1.6200   13.1040 ca        1 E20     -0.133500
     21 C21         3.1190   -1.4970   13.7740 ca        1 E20     -0.129000
     22 C22         2.1800   -0.5610   13.3410 ca        1 E20     -0.133500
     23 C23         2.4550    0.2520   12.2420 ca        1 E20     -0.118500
     24 O24        -1.5840    0.0380    4.1920 o         1 E20     -0.524100
     25 O25        -0.8370    0.0940   -1.2610 os        1 E20     -0.304900
     26 C26        -2.2590    0.0680   -1.1920 c3        1 E20      0.108700
     27 O27         1.7470    0.1480   -1.4170 os        1 E20     -0.299900
     28 C28         3.1660    0.1750   -1.5330 c3        1 E20      0.108700
     29 H3          3.1260    0.1520    0.9660 ha        1 E20      0.145000
     30 H6         -1.9030    0.0460    1.2930 ha        1 E20      0.159000
     31 H8          0.8660   -0.9700    5.1400 hc        1 E20      0.081700
     32 H91         2.6060    1.0450    3.7750 hc        1 E20      0.062700
     33 H92         2.7050   -0.7620    3.7420 hc        1 E20      0.062700
     34 H101        0.9450    2.1230    5.1010 hc        1 E20      0.056700
     35 H102       -0.1690    1.1520    6.1440 hc        1 E20      0.056700
     36 H11         2.8850    0.6880    6.1340 hc        1 E20      0.044700
     37 H121        2.5210    3.0890    6.6220 hc        1 E20      0.049450
     38 H122        1.2200    2.6830    7.8160 hc        1 E20      0.049450
     39 H131        3.3060    3.1580    9.0130 h1        1 E20      0.031700
     40 H132        4.2490    2.0300    7.9390 h1        1 E20      0.031700
     41 H151        2.3490   -0.8580    9.5770 h1        1 E20      0.031700
     42 H152        3.6160   -0.5870    8.2960 h1        1 E20      0.031700
     43 H161        1.5060   -1.0710    7.2130 hc        1 E20      0.049450
     44 H162        0.6130    0.1750    8.1770 hc        1 E20      0.049450
     45 H171        4.9930    0.7060    9.9640 h1        1 E20      0.038200
     46 H172        4.1660    2.0740   10.8370 h1        1 E20      0.038200
     47 H19         5.5750   -0.9150   11.4780 ha        1 E20      0.138000
     48 H20         5.0790   -2.3560   13.4440 ha        1 E20      0.131000
     49 H21         2.9010   -2.1360   14.6420 ha        1 E20      0.130000
     50 H22         1.2190   -0.4620   13.8670 ha        1 E20      0.131000
     51 H23         1.7140    0.9900   11.9000 ha        1 E20      0.138000
     52 H261       -2.6140   -0.8620   -0.6850 h1        1 E20      0.046367
     53 H262       -2.6470    0.9740   -0.6660 h1        1 E20      0.046367
     54 H263       -2.5680    0.0740   -2.2690 h1        1 E20      0.046367
     55 H281        3.6180   -0.7400   -1.0780 h1        1 E20      0.046367
     56 H282        3.3320    0.1880   -2.6400 h1        1 E20      0.046367
     57 H283        3.5840    1.0970   -1.0610 h1        1 E20      0.046367
@<TRIPOS>BOND
     1    1    2 ar  
     2    1    6 ar  
     3    1   25 1   
     4    2    3 ar  
     5    2   27 1   
     6    3    4 ar  
     7    3   29 1   
     8    4    5 ar  
     9    4    9 1   
    10    5    6 ar  
    11    5    7 1   
    12    6   30 1   
    13    7    8 1   
    14    7   24 2   
    15    8    9 1   
    16    8   10 1   
    17    8   31 1   
    18    9   32 1   
    19    9   33 1   
    20   10   11 1   
    21   10   34 1   
    22   10   35 1   
    23   11   12 1   
    24   11   16 1   
    25   11   36 1   
    26   12   13 1   
    27   12   37 1   
    28   12   38 1   
    29   13   14 1   
    30   13   39 1   
    31   13   40 1   
    32   14   15 1   
    33   14   17 1   
    34   15   16 1   
    35   15   41 1   
    36   15   42 1   
    37   16   43 1   
    38   16   44 1   
    39   17   18 1   
    40   17   45 1   
    41   17   46 1   
    42   18   19 ar  
    43   18   23 ar  
    44   19   20 ar  
    45   19   47 1   
    46   20   21 ar  
    47   20   48 1   
    48   21   22 ar  
    49   21   49 1   
    50   22   23 ar  
    51   22   50 1   
    52   23   51 1   
    53   25   26 1   
    54   26   52 1   
    55   26   53 1   
    56   26   54 1   
    57   27   28 1   
    58   28   55 1   
    59   28   56 1   
    60   28   57 1   
@<TRIPOS>SUBSTRUCTURE
     1 E20         1 TEMP              0 ****  ****    0 ROOT
