@<TRIPOS>MOLECULE
E22
   67    69     1     0     0
SMALL
bcc


@<TRIPOS>ATOM
      1 C5         -0.5400    0.3230   -0.4620 c         1 E22      0.588300
      2 O2         -0.4210    1.2830   -1.2280 o         1 E22     -0.541100
      3 C9         -0.6250    0.2380    0.9580 ce        1 E22     -0.384200
      4 C16        -0.5700    1.3850    1.7120 cf        1 E22      0.171800
      5 C21        -0.6500    1.4480    3.1350 ca        1 E22     -0.177800
      6 C14        -0.8110    0.3060    3.9490 ca        1 E22     -0.045500
      7 C8         -0.8850    0.4300    5.3300 ca        1 E22     -0.142000
      8 C4         -0.8000    1.6910    5.9290 ca        1 E22     -0.023000
      9 C10        -0.6410    2.8320    5.1380 ca        1 E22     -0.142000
     10 C26        -0.5660    2.7180    3.7560 ca        1 E22     -0.045500
     11 N1         -0.6230   -1.0240   -1.2010 n4        1 E22     -0.682800
     12 C1         -0.0200   -0.9590   -2.5710 c3        1 E22      0.067500
     13 C3         -0.8310    0.0000   -3.4530 c         1 E22      0.557100
     14 O1         -2.0540   -0.0030   -3.5090 o         1 E22     -0.410100
     15 C2          0.0020   -2.3430   -3.2510 c3        1 E22     -0.041100
     16 C7          0.6750   -3.3440   -2.3850 ca        1 E22     -0.180300
     17 C12        -0.0870   -4.1590   -1.5360 ca        1 E22     -0.130500
     18 C18         2.0620   -3.5200   -2.4520 ca        1 E22     -0.130500
     19 C22         0.5350   -5.1350   -0.7600 ca        1 E22     -0.108500
     20 C23         2.6810   -4.4970   -1.6730 ca        1 E22     -0.108500
     21 C20         1.9200   -5.3040   -0.8270 ca        1 E22     -0.083000
     22 C6         -0.7610    6.3660   -5.6880 c3        1 E22     -0.099400
     23 C11        -0.6930    1.3460   -5.5610 c3        1 E22      0.128500
     24 C13        -0.6930    5.0310   -6.3930 c3        1 E22     -0.083400
     25 C15         0.6720    4.2560   -4.4060 c         1 E22      0.698500
     26 C17        -0.0900    2.6260   -6.1540 c3        1 E22     -0.102400
     27 C19        -1.5670    0.3480   -7.6250 c1        1 E22      0.111700
     28 C24        -0.5260    0.2060   -6.6170 c3        1 E22      0.218200
     29 C25        -0.4350    3.9030   -5.3990 c3        1 E22     -0.138700
     30 C27         0.5490    6.6600   -4.9650 c3        1 E22      0.075000
     31 N2         -2.3860    0.4520   -8.4420 n1        1 E22     -0.218800
     32 N3         -0.0550    0.9880   -4.2440 n4        1 E22     -0.656800
     33 N4          1.0610    5.5390   -4.2130 n         1 E22     -0.501900
     34 O3         -0.6010   -1.0380   -5.9330 oh        1 E22     -0.646800
     35 H1         -0.7370   -0.7480    1.4330 ha        1 E22      0.170000
     36 H3         -0.4530    2.3570    1.1850 ha        1 E22      0.157000
     37 H5         -0.8810   -0.6940    3.4940 ha        1 E22      0.141500
     38 H6         -1.0120   -0.4670    5.9580 ha        1 E22      0.168500
     39 H7         -0.8600    1.7840    7.0280 ha        1 E22      0.171000
     40 H8         -0.5750    3.8250    5.6130 ha        1 E22      0.168500
     41 H9         -0.4410    3.6220    3.1380 ha        1 E22      0.141500
     42 H10        -1.6120   -1.2960   -1.2750 hn        1 E22      0.478800
     43 H11         1.0440   -0.5930   -2.4330 hx        1 E22      0.134700
     44 H12         0.5470   -2.2260   -4.2290 hc        1 E22      0.101200
     45 H13        -1.0480   -2.6630   -3.4950 hc        1 E22      0.101200
     46 H14        -1.1840   -4.0670   -1.5170 ha        1 E22      0.134500
     47 H15         2.6670   -2.9050   -3.1360 ha        1 E22      0.134500
     48 H16        -0.0690   -5.7880   -0.1090 ha        1 E22      0.165500
     49 H17         3.7730   -4.6400   -1.7380 ha        1 E22      0.165500
     50 H18         2.4100   -6.0870   -0.2220 ha        1 E22      0.170000
     51 H20        -1.6160    6.3770   -4.9610 hc        1 E22      0.079200
     52 H21        -1.7970    1.4960   -5.3520 hx        1 E22      0.136700
     53 H22        -1.6580    4.8360   -6.9310 hc        1 E22      0.071700
     54 H23         0.1250    5.0530   -7.1610 hc        1 E22      0.071700
     55 H24         1.0260    2.5260   -6.2420 hc        1 E22      0.100700
     56 H25        -0.5010    2.7020   -7.2010 hc        1 E22      0.100700
     57 H26         0.4910    0.2830   -7.1100 h1        1 E22      0.102700
     58 H27        -1.3690    3.7530   -4.7840 hc        1 E22      0.081700
     59 H28         1.3310    6.9700   -5.7200 h1        1 E22      0.074700
     60 H29         0.3980    7.5200   -4.2500 h1        1 E22      0.074700
     61 H30         0.8910    0.6320   -4.4230 hn        1 E22      0.497800
     62 H31         1.7960    5.7200   -3.5630 hn        1 E22      0.348500
     63 H32        -0.8410   -1.7270   -6.5700 ho        1 E22      0.473000
     64 O4          1.2080    3.3320   -3.7230 o         1 E22     -0.766500
     65 H121       -0.1280   -1.7590   -0.6720 hn        1 E22      0.478800
     66 H321        0.0470    1.8710   -3.6700 hn        1 E22      0.497800
     67 H19        -0.9450    7.1830   -6.4350 hc        1 E22      0.079200
@<TRIPOS>BOND
     1    1    2 2   
     2    1    3 1   
     3    1   11 1   
     4    3    4 2   
     5    3   35 1   
     6    4    5 1   
     7    4   36 1   
     8    5    6 ar  
     9    5   10 ar  
    10    6    7 ar  
    11    6   37 1   
    12    7    8 ar  
    13    7   38 1   
    14    8    9 ar  
    15    8   39 1   
    16    9   10 ar  
    17    9   40 1   
    18   10   41 1   
    19   11   12 1   
    20   11   42 1   
    21   11   65 1   
    22   12   13 1   
    23   12   15 1   
    24   12   43 1   
    25   13   14 2   
    26   13   32 1   
    27   15   16 1   
    28   15   44 1   
    29   15   45 1   
    30   16   17 ar  
    31   16   18 ar  
    32   17   19 ar  
    33   17   46 1   
    34   18   20 ar  
    35   18   47 1   
    36   19   21 ar  
    37   19   48 1   
    38   20   21 ar  
    39   20   49 1   
    40   21   50 1   
    41   22   24 1   
    42   22   30 1   
    43   22   51 1   
    44   22   67 1   
    45   23   26 1   
    46   23   28 1   
    47   23   32 1   
    48   23   52 1   
    49   24   29 1   
    50   24   53 1   
    51   24   54 1   
    52   25   29 1   
    53   25   33 1   
    54   25   64 2   
    55   26   29 1   
    56   26   55 1   
    57   26   56 1   
    58   27   28 1   
    59   27   31 3   
    60   28   34 1   
    61   28   57 1   
    62   29   58 1   
    63   30   33 1   
    64   30   59 1   
    65   30   60 1   
    66   32   61 1   
    67   32   66 1   
    68   33   62 1   
    69   34   63 1   
@<TRIPOS>SUBSTRUCTURE
     1 E22         1 TEMP              0 ****  ****    0 ROOT
