@<TRIPOS>MOLECULE
E23
   45    46     1     0     0
SMALL
bcc


@<TRIPOS>ATOM
      1 OAD         1.2230    2.5250    0.3290 o         1 E23     -0.389100
      2 CAR         1.8750    1.4960    0.4170 c         1 E23      0.563700
      3 CAU         2.1510    0.7140    1.6380 ca        1 E23     -0.159600
      4 CAJ         2.7320    1.4120    2.7050 ca        1 E23     -0.066000
      5 CAH         2.9910    0.7580    3.9120 ca        1 E23     -0.091000
      6 CAI         2.6580   -0.5850    4.0630 ca        1 E23     -0.070000
      7 CAM         2.0590   -1.2820    3.0070 ca        1 E23     -0.071000
      8 CAV         1.8040   -0.6390    1.7960 ca        1 E23     -0.136300
      9 CAX         1.1280   -1.4440    0.6850 c3        1 E23      0.677200
     10 FAG         2.0130   -1.8830   -0.2800 f         1 E23     -0.225633
     11 FAF         0.4720   -2.5690    1.0960 f         1 E23     -0.225633
     12 FAE         0.2030   -0.7360   -0.0450 f         1 E23     -0.225633
     13 NAQ         2.5400    1.0000   -0.8440 n4        1 E23     -0.684800
     14 CAP         1.7170    1.2510   -2.0820 c3        1 E23      0.179100
     15 CAS         2.4450    0.7880   -3.2920 ca        1 E23     -0.203300
     16 CAL         2.9990    1.7140   -4.1830 ca        1 E23     -0.097000
     17 CAO         3.6340    1.2710   -5.3380 ca        1 E23     -0.125000
     18 CAT         3.7360   -0.1000   -5.6290 ca        1 E23     -0.002300
     19 CAW         4.4280   -0.5340   -6.8940 c3        1 E23     -0.022700
     20 CAA         5.8690   -0.0300   -6.8780 c3        1 E23     -0.090433
     21 CAC         4.4530   -2.0490   -7.0530 c3        1 E23     -0.090433
     22 CAB         3.6970    0.0620   -8.0950 c3        1 E23     -0.090433
     23 CAN         3.1800   -1.0180   -4.7260 ca        1 E23     -0.125000
     24 CAK         2.5390   -0.5800   -3.5710 ca        1 E23     -0.097000
     25 H1          2.9740    2.4830    2.5970 ha        1 E23      0.168000
     26 H2          3.4510    1.3160    4.7460 ha        1 E23      0.177000
     27 H3          2.8560   -1.1050    5.0160 ha        1 E23      0.178000
     28 H4          1.7780   -2.3420    3.1370 ha        1 E23      0.183000
     29 H5          2.7290   -0.0100   -0.7730 hn        1 E23      0.462300
     30 H6          0.7470    0.6880   -1.9490 hx        1 E23      0.116700
     31 H7          1.4930    2.3570   -2.1270 hx        1 E23      0.116700
     32 H8          2.9190    2.7950   -3.9840 ha        1 E23      0.138500
     33 H9          4.0580    2.0110   -6.0370 ha        1 E23      0.159000
     34 H10         5.9000    1.0840   -6.8190 hc        1 E23      0.045367
     35 H11         6.3880   -0.3480   -7.8150 hc        1 E23      0.045367
     36 H12         6.4200   -0.4530   -6.0050 hc        1 E23      0.045367
     37 H13         4.9780   -2.3150   -8.0030 hc        1 E23      0.045367
     38 H14         4.9990   -2.5280   -6.2060 hc        1 E23      0.045367
     39 H15         3.4160   -2.4590   -7.1020 hc        1 E23      0.045367
     40 H16         2.6380   -0.2880   -8.1190 hc        1 E23      0.045367
     41 H17         3.7060    1.1770   -8.0520 hc        1 E23      0.045367
     42 H18         4.2000   -0.2590   -9.0390 hc        1 E23      0.045367
     43 H19         3.2340   -2.1010   -4.9220 ha        1 E23      0.159000
     44 H20         2.0940   -1.3170   -2.8820 ha        1 E23      0.138500
     45 HAQ2        3.4420    1.4800   -0.9460 hn        1 E23      0.462300
@<TRIPOS>BOND
     1    1    2 2   
     2    2    3 1   
     3    2   13 1   
     4    3    4 ar  
     5    3    8 ar  
     6    4    5 ar  
     7    4   25 1   
     8    5    6 ar  
     9    5   26 1   
    10    6    7 ar  
    11    6   27 1   
    12    7    8 ar  
    13    7   28 1   
    14    8    9 1   
    15    9   10 1   
    16    9   11 1   
    17    9   12 1   
    18   13   14 1   
    19   13   29 1   
    20   13   45 1   
    21   14   15 1   
    22   14   30 1   
    23   14   31 1   
    24   15   16 ar  
    25   15   24 ar  
    26   16   17 ar  
    27   16   32 1   
    28   17   18 ar  
    29   17   33 1   
    30   18   19 1   
    31   18   23 ar  
    32   19   20 1   
    33   19   21 1   
    34   19   22 1   
    35   20   34 1   
    36   20   35 1   
    37   20   36 1   
    38   21   37 1   
    39   21   38 1   
    40   21   39 1   
    41   22   40 1   
    42   22   41 1   
    43   22   42 1   
    44   23   24 ar  
    45   23   43 1   
    46   24   44 1   
@<TRIPOS>SUBSTRUCTURE
     1 E23         1 TEMP              0 ****  ****    0 ROOT
