@<TRIPOS>MOLECULE
E23
   45    46     1     0     0
SMALL
bcc


@<TRIPOS>ATOM
      1 OAD         1.3650    2.5750    0.3710 o         1 E23     -0.389100
      2 CAR         1.9600    1.5110    0.4430 c         1 E23      0.563700
      3 CAU         2.1920    0.6950    1.6500 ca        1 E23     -0.159600
      4 CAJ         2.8110    1.3430    2.7280 ca        1 E23     -0.066000
      5 CAH         3.0340    0.6570    3.9240 ca        1 E23     -0.091000
      6 CAI         2.6290   -0.6690    4.0530 ca        1 E23     -0.070000
      7 CAM         1.9930   -1.3140    2.9870 ca        1 E23     -0.071000
      8 CAV         1.7720   -0.6390    1.7860 ca        1 E23     -0.136300
      9 CAX         1.0530   -1.3880    0.6640 c3        1 E23      0.677200
     10 FAG         1.9130   -1.8590   -0.3090 f         1 E23     -0.225633
     11 FAF         0.3360   -2.4810    1.0570 f         1 E23     -0.225633
     12 FAE         0.1680   -0.6180   -0.0540 f         1 E23     -0.225633
     13 NAQ         2.5970    1.0000   -0.8280 ny        1 E23     -0.684800
     14 CAP         1.7890    1.3160   -2.0600 c3        1 E23      0.179100
     15 CAS         2.4900    0.8330   -3.2780 ca        1 E23     -0.203300
     16 CAL         3.0940    1.7420   -4.1540 ca        1 E23     -0.097000
     17 CAO         3.7040    1.2830   -5.3170 ca        1 E23     -0.125000
     18 CAT         3.7300   -0.0870   -5.6300 ca        1 E23     -0.002300
     19 CAW         4.3970   -0.5370   -6.9030 c3        1 E23     -0.022700
     20 CAA         5.8640   -0.1150   -6.8800 c3        1 E23     -0.090433
     21 CAC         4.3370   -2.0490   -7.0870 c3        1 E23     -0.090433
     22 CAB         3.7010    0.1180   -8.0940 c3        1 E23     -0.090433
     23 CAN         3.1240   -0.9870   -4.7420 ca        1 E23     -0.125000
     24 CAK         2.5080   -0.5330   -3.5790 ca        1 E23     -0.097000
     25 H1          3.1110    2.4010    2.6370 ha        1 E23      0.168000
     26 H2          3.5250    1.1750    4.7660 ha        1 E23      0.177000
     27 H3          2.7980   -1.2140    4.9980 ha        1 E23      0.178000
     28 H4          1.6540   -2.3600    3.1000 ha        1 E23      0.183000
     29 H5          3.5240    1.4310   -0.9230 hn        1 E23      0.462300
     30 H6          1.6260    2.4330   -2.0870 hx        1 E23      0.116700
     31 H7          0.7890    0.8050   -1.9350 hx        1 E23      0.116700
     32 H8          3.0740    2.8210   -3.9380 ha        1 E23      0.138500
     33 H9          4.1680    2.0100   -6.0050 ha        1 E23      0.159000
     34 H10         6.3650   -0.4450   -7.8220 hc        1 E23      0.045367
     35 H11         5.9570    0.9950   -6.8020 hc        1 E23      0.045367
     36 H12         6.3900   -0.5830   -6.0140 hc        1 E23      0.045367
     37 H13         4.8570   -2.5710   -6.2480 hc        1 E23      0.045367
     38 H14         4.8480   -2.3280   -8.0410 hc        1 E23      0.045367
     39 H15         3.2790   -2.3990   -7.1420 hc        1 E23      0.045367
     40 H16         2.6230   -0.1720   -8.1220 hc        1 E23      0.045367
     41 H17         3.7720    1.2300   -8.0320 hc        1 E23      0.045367
     42 H18         4.1860   -0.2150   -9.0430 hc        1 E23      0.045367
     43 H19         3.1180   -2.0680   -4.9560 ha        1 E23      0.159000
     44 H20         2.0230   -1.2550   -2.9020 ha        1 E23      0.138500
     45 HAQ2        2.7300   -0.0200   -0.7730 hn        1 E23      0.462300
@<TRIPOS>BOND
     1    1    2 2   
     2    2    3 1   
     3    2   13 1   
     4    3    4 ar  
     5    3    8 ar  
     6    4    5 ar  
     7    4   25 1   
     8    5    6 ar  
     9    5   26 1   
    10    6    7 ar  
    11    6   27 1   
    12    7    8 ar  
    13    7   28 1   
    14    8    9 1   
    15    9   10 1   
    16    9   11 1   
    17    9   12 1   
    18   13   14 1   
    19   13   29 1   
    20   13   45 1   
    21   14   15 1   
    22   14   30 1   
    23   14   31 1   
    24   15   16 ar  
    25   15   24 ar  
    26   16   17 ar  
    27   16   32 1   
    28   17   18 ar  
    29   17   33 1   
    30   18   19 1   
    31   18   23 ar  
    32   19   20 1   
    33   19   21 1   
    34   19   22 1   
    35   20   34 1   
    36   20   35 1   
    37   20   36 1   
    38   21   37 1   
    39   21   38 1   
    40   21   39 1   
    41   22   40 1   
    42   22   41 1   
    43   22   42 1   
    44   23   24 ar  
    45   23   43 1   
    46   24   44 1   
@<TRIPOS>SUBSTRUCTURE
     1 E23         1 TEMP              0 ****  ****    0 ROOT
