@<TRIPOS>MOLECULE
E24
   33    34     1     0     0
SMALL
bcc


@<TRIPOS>ATOM
      1 CLF         0.6100    1.9760   -0.0920 cl        1 E24     -0.085400
      2 CAR         1.7630    0.7200   -0.1030 ca        1 E24      0.034400
      3 CAM         2.1770    0.1780    1.1130 ca        1 E24     -0.110000
      4 CAQ         3.1290   -0.8510    1.1160 ca        1 E24      0.059400
      5 CLE         3.6340   -1.5140    2.5830 cl        1 E24     -0.015400
      6 CAK         3.6590   -1.3280   -0.0890 ca        1 E24     -0.116000
      7 CAL         3.2360   -0.7780   -1.2970 ca        1 E24     -0.069000
      8 CAS         2.2820    0.2450   -1.3190 ca        1 E24     -0.185300
      9 CAN         1.7900    0.7530   -2.6300 c3        1 E24      0.178100
     10 NAO         2.1770    2.1880   -2.8520 n4        1 E24     -0.683800
     11 CAP         1.8280    2.6430   -4.2560 c         1 E24      0.568700
     12 OAA         2.6360    2.3560   -5.1230 o         1 E24     -0.378100
     13 CAT         0.5680    3.4000   -4.3670 ca        1 E24     -0.153600
     14 CAI         0.4780    4.6460   -3.7350 ca        1 E24     -0.099000
     15 CAG        -0.6730    5.4220   -3.8870 ca        1 E24     -0.090000
     16 CAH        -1.7350    4.9530   -4.6590 ca        1 E24     -0.069000
     17 CAJ        -1.6510    3.7050   -5.2830 ca        1 E24     -0.071000
     18 CAU        -0.5040    2.9240   -5.1400 ca        1 E24     -0.112300
     19 CAV        -0.4540    1.5650   -5.8460 c3        1 E24      0.685200
     20 FAC         0.2540    0.6120   -5.1460 f         1 E24     -0.220967
     21 FAD        -1.6820    0.9930   -6.0480 f         1 E24     -0.220967
     22 FAB         0.1360    1.5960   -7.0810 f         1 E24     -0.220967
     23 H1          1.7570    0.5510    2.0630 ha        1 E24      0.186000
     24 H2          4.4070   -2.1400   -0.0860 ha        1 E24      0.179000
     25 H3          3.6510   -1.1680   -2.2420 ha        1 E24      0.158000
     26 H4          0.6620    0.6910   -2.6840 hx        1 E24      0.122700
     27 H5          2.2150    0.1520   -3.4880 hx        1 E24      0.122700
     28 H6          1.6910    2.7770   -2.1620 hn        1 E24      0.460800
     29 H7          1.3200    5.0370   -3.1430 ha        1 E24      0.149000
     30 H8         -0.7350    6.4090   -3.3980 ha        1 E24      0.174000
     31 H9         -2.6440    5.5670   -4.7850 ha        1 E24      0.178000
     32 H10        -2.4950    3.3310   -5.8910 ha        1 E24      0.185000
     33 HAO2        3.1910    2.2770   -2.7080 hn        1 E24      0.460800
@<TRIPOS>BOND
     1    1    2 1   
     2    2    3 ar  
     3    2    8 ar  
     4    3    4 ar  
     5    3   23 1   
     6    4    5 1   
     7    4    6 ar  
     8    6    7 ar  
     9    6   24 1   
    10    7    8 ar  
    11    7   25 1   
    12    8    9 1   
    13    9   10 1   
    14    9   26 1   
    15    9   27 1   
    16   10   11 1   
    17   10   28 1   
    18   10   33 1   
    19   11   12 2   
    20   11   13 1   
    21   13   14 ar  
    22   13   18 ar  
    23   14   15 ar  
    24   14   29 1   
    25   15   16 ar  
    26   15   30 1   
    27   16   17 ar  
    28   16   31 1   
    29   17   18 ar  
    30   17   32 1   
    31   18   19 1   
    32   19   20 1   
    33   19   21 1   
    34   19   22 1   
@<TRIPOS>SUBSTRUCTURE
     1 E24         1 TEMP              0 ****  ****    0 ROOT
