@<TRIPOS>MOLECULE
E24
   33    34     1     0     0
SMALL
bcc


@<TRIPOS>ATOM
      1 ClF         0.6360    1.9760   -0.0890 cl        1 E24     -0.085400
      2 CAR         1.7930    0.7250   -0.1100 ca        1 E24      0.034400
      3 CAM         2.2200    0.1860    1.1030 ca        1 E24     -0.110000
      4 CAQ         3.1770   -0.8400    1.0980 ca        1 E24      0.059400
      5 ClE         3.6970   -1.5000    2.5610 cl        1 E24     -0.015400
      6 CAK         3.6980   -1.3160   -0.1110 ca        1 E24     -0.116000
      7 CAL         3.2620   -0.7680   -1.3150 ca        1 E24     -0.069000
      8 CAS         2.3040    0.2520   -1.3300 ca        1 E24     -0.185300
      9 CAN         1.7970    0.7570   -2.6370 c3        1 E24      0.178100
     10 NAO         2.1770    2.1930   -2.8630 ny        1 E24     -0.683800
     11 CAP         1.8130    2.6460   -4.2640 c         1 E24      0.568700
     12 OAA         2.6140    2.3620   -5.1380 o         1 E24     -0.378100
     13 CAT         0.5490    3.3970   -4.3640 ca        1 E24     -0.153600
     14 CAI         0.4590    4.6430   -3.7320 ca        1 E24     -0.099000
     15 CAG        -0.6970    5.4130   -3.8730 ca        1 E24     -0.090000
     16 CAH        -1.7630    4.9400   -4.6360 ca        1 E24     -0.069000
     17 CAJ        -1.6800    3.6910   -5.2600 ca        1 E24     -0.071000
     18 CAU        -0.5270    2.9160   -5.1270 ca        1 E24     -0.112300
     19 CAV        -0.4780    1.5560   -5.8330 c3        1 E24      0.685200
     20 FAC         0.2400    0.6070   -5.1390 f         1 E24     -0.220967
     21 FAD        -1.7050    0.9790   -6.0240 f         1 E24     -0.220967
     22 FAB         0.1020    1.5900   -7.0730 f         1 E24     -0.220967
     23 H1          1.8070    0.5570    2.0570 ha        1 E24      0.186000
     24 H2          4.4480   -2.1250   -0.1140 ha        1 E24      0.179000
     25 H3          3.6700   -1.1570   -2.2640 ha        1 E24      0.158000
     26 H4          0.6690    0.6900   -2.6800 hx        1 E24      0.122700
     27 H5          2.2180    0.1570   -3.4980 hx        1 E24      0.122700
     28 H6          1.6950    2.7810   -2.1690 hn        1 E24      0.460800
     29 H7          1.3040    5.0380   -3.1470 ha        1 E24      0.149000
     30 H8         -0.7590    6.4000   -3.3840 ha        1 E24      0.174000
     31 H9         -2.6760    5.5490   -4.7530 ha        1 E24      0.178000
     32 H10        -2.5270    3.3130   -5.8600 ha        1 E24      0.185000
     33 HAO2        3.1920    2.2860   -2.7280 hn        1 E24      0.460800
@<TRIPOS>BOND
     1    1    2 1   
     2    2    3 ar  
     3    2    8 ar  
     4    3    4 ar  
     5    3   23 1   
     6    4    5 1   
     7    4    6 ar  
     8    6    7 ar  
     9    6   24 1   
    10    7    8 ar  
    11    7   25 1   
    12    8    9 1   
    13    9   10 1   
    14    9   26 1   
    15    9   27 1   
    16   10   11 1   
    17   10   28 1   
    18   10   33 1   
    19   11   12 2   
    20   11   13 1   
    21   13   14 ar  
    22   13   18 ar  
    23   14   15 ar  
    24   14   29 1   
    25   15   16 ar  
    26   15   30 1   
    27   16   17 ar  
    28   16   31 1   
    29   17   18 ar  
    30   17   32 1   
    31   18   19 1   
    32   19   20 1   
    33   19   21 1   
    34   19   22 1   
@<TRIPOS>SUBSTRUCTURE
     1 E24         1 TEMP              0 ****  ****    0 ROOT
