@<TRIPOS>MOLECULE
E27
   41    34     1     0     0
SMALL
bcc


@<TRIPOS>ATOM
      1 N1         -2.9870   -0.2560   -0.1910 n2        1 E27     -0.114000
      2 C2         -2.0590    0.6360   -0.6080 c1        1 E27     -0.227000
      3 N3         -2.3750    1.8430   -0.0870 n2        1 E27     -0.114000
      4 C4         -3.5030    1.6980    0.6560 c1        1 E27     -0.075500
      5 C5         -4.2610    2.6170    1.4160 c1        1 E27      0.026000
      6 N6         -5.3750    2.1960    2.0850 n1        1 E27     -0.148000
      7 C7         -5.7640    0.8670    2.0210 c1        1 E27     -0.023000
      8 C8         -5.0290   -0.0300    1.2820 c1        1 E27     -0.023000
      9 C9         -3.8810    0.4020    0.5920 c1        1 E27     -0.075500
     10 C10        -6.9130    0.4350    2.7110 c1        1 E27     -0.104500
     11 C11        -7.3020   -0.8970    2.6460 c1        1 E27     -0.122500
     12 C12        -6.5580   -1.8040    1.8990 c1        1 E27     -0.122500
     13 C13        -5.4240   -1.3790    1.2170 c1        1 E27     -0.104500
     14 S14        -0.7020    0.6230   -1.7510 s         1 E27      0.296000
     15 C15         0.8280    0.6340   -0.8530 c3        1 E27     -0.365000
     16 C16         1.9840    0.7280   -1.8270 c2        1 E27      0.272000
     17 O17         1.7710    0.9360   -3.0050 o         1 E27     -0.266000
     18 C18         3.4080    0.6100   -1.3250 c2        1 E27     -0.174000
     19 C19         4.0920   -0.5890   -1.4540 c2        1 E27      0.027000
     20 C20         5.4060   -0.6870   -1.0250 c1        1 E27     -0.809000
     21 C21         6.0370    0.4140   -0.4670 c1        1 E27      0.067000
     22 C22         5.3530    1.6130   -0.3380 c1        1 E27     -0.161000
     23 C23         4.0380    1.7110   -0.7670 c1        1 E27     -0.030000
     24 S24         6.2470   -2.2470   -1.0970 s4        1 E27      2.077800
     25 O25         6.8770   -2.5570    0.1560 o         1 E27     -0.533900
     26 CL26        7.6840    0.2860    0.0900 cl        1 E27      0.008000
     27 O27         5.3170   -3.3350   -1.2180 o         1 E27     -0.533900
     28 N28         7.3340   -2.2510   -2.3280 n2        1 E27     -0.953000
     29 H5         -3.9950    3.5540    1.4540 ha        1 E27      0.176000
     30 H10        -7.4350    1.0710    3.2350 ha        1 E27      0.141000
     31 H11        -8.0990   -1.1960    3.1250 ha        1 E27      0.138000
     32 H12        -6.8320   -2.7400    1.8540 ha        1 E27      0.138000
     33 H13        -4.9030   -2.0160    0.6930 ha        1 E27      0.141000
     34 H15         0.9060   -0.1900   -0.3320 h1        1 E27      0.152500
     35 H15A        0.8460    1.4050   -0.2510 h1        1 E27      0.152500
     36 H19         3.6480   -1.3650   -1.8480 ha        1 E27      0.193000
     37 H22         5.7970    2.3880    0.0550 ha        1 E27      0.160000
     38 H23         3.5570    2.5550   -0.6760 ha        1 E27      0.148000
     39 HN28        7.0440   -2.2740   -3.1940 hn        1 E27      0.248500
     40 HN2A        8.2300   -2.2620   -2.1460 hn        1 E27      0.248500
     41 HN1        -3.0080   -1.1440   -0.3990 DU        1 E27      0.269000
@<TRIPOS>BOND
     1    1    2 1   
     2    1    9 1   
     3    2    3 1   
     4    3    4 1   
     5    4    9 1   
     6    5    6 1   
     7    5   29 1   
     8    7    8 1   
     9    7   10 1   
    10    8   13 1   
    11   10   30 1   
    12   11   12 1   
    13   11   31 1   
    14   12   32 1   
    15   13   33 1   
    16   14   15 1   
    17   15   16 1   
    18   15   34 1   
    19   15   35 1   
    20   16   17 1   
    21   16   18 1   
    22   18   19 1   
    23   18   23 1   
    24   19   20 1   
    25   19   36 1   
    26   20   24 1   
    27   21   22 1   
    28   21   26 1   
    29   22   37 1   
    30   23   38 1   
    31   24   25 1   
    32   24   27 1   
    33   28   39 1   
    34   28   40 1   
@<TRIPOS>SUBSTRUCTURE
     1 E27         1 TEMP              0 ****  ****    0 ROOT
