@<TRIPOS>MOLECULE
E27
   42    45     1     0     0
SMALL
bcc


@<TRIPOS>ATOM
      1 N1          0.0680    0.1530   -0.0070 na        1 E27     -0.221300
      2 C2          1.4720    0.2890    0.0330 cc        1 E27      0.342700
      3 N3          1.9540    0.2710    1.3050 nd        1 E27     -0.573100
      4 C4          0.8350    0.1190    2.1220 ca        1 E27     -0.057900
      5 C5          0.6830    0.0310    3.5450 ca        1 E27      0.476200
      6 N6         -0.4880   -0.1130    4.1200 nb        1 E27     -0.659000
      7 C7         -1.6420   -0.1850    3.3430 ca        1 E27      0.402600
      8 C8         -1.6360   -0.1100    1.9130 ca        1 E27     -0.122300
      9 C9         -0.3540    0.0450    1.3130 ca        1 E27     -0.045200
     10 C10        -2.9030   -0.3400    3.9940 ca        1 E27     -0.156300
     11 C11        -4.0650   -0.4150    3.2590 ca        1 E27     -0.118000
     12 C12        -4.0410   -0.3400    1.8520 ca        1 E27     -0.114000
     13 C13        -2.8430   -0.1900    1.1870 ca        1 E27     -0.120000
     14 S14         2.3850    0.4560   -1.3930 ss        1 E27     -0.047300
     15 C15         4.0220    0.5540   -0.7250 c3        1 E27     -0.147300
     16 C16         5.0590    0.6580   -1.7910 c         1 E27      0.592700
     17 O17         4.8370    0.9220   -2.9740 o         1 E27     -0.477100
     18 C18         6.4630    0.4220   -1.3390 ca        1 E27     -0.184600
     19 C19         7.4260    0.1240   -2.3020 ca        1 E27      0.051000
     20 C20         8.7790   -0.1140   -1.9670 ca        1 E27     -0.536500
     21 C21         9.1290    0.0170   -0.6000 ca        1 E27      0.144400
     22 C22         8.1760    0.3070    0.3710 ca        1 E27     -0.143000
     23 C23         6.8400    0.5020    0.0070 ca        1 E27      0.035000
     24 S24         9.7620   -0.5960   -3.1580 sy        1 E27      1.481200
     25 O25        10.6520   -1.6020   -2.8650 o         1 E27     -0.553800
     26 Cl26       10.7460   -0.1580   -0.1290 cl        1 E27     -0.030400
     27 O27         9.2100   -0.4860   -4.4160 o         1 E27     -0.553800
     28 N28        10.9330    0.9060   -3.1620 nz        1 E27     -0.789500
     29 H5          1.5690    0.0840    4.2030 h4        1 E27      0.035100
     30 H10        -2.9330   -0.4000    5.0940 ha        1 E27      0.158000
     31 H11        -5.0330   -0.5350    3.7710 ha        1 E27      0.145000
     32 H12        -4.9860   -0.4030    1.2910 ha        1 E27      0.143000
     33 H13        -2.8180   -0.1310    0.0890 ha        1 E27      0.127000
     34 H15         4.2240   -0.3500   -0.0910 h1        1 E27      0.113700
     35 H15A        4.1020    1.4540   -0.0570 h1        1 E27      0.113700
     36 H19         7.1030    0.0700   -3.3670 ha        1 E27      0.203000
     37 H22         8.4700    0.3840    1.4340 ha        1 E27      0.193000
     38 H23         6.0930    0.7270    0.7930 ha        1 E27      0.187000
     39 HN28       10.6870    1.6020   -2.4630 hn        1 E27      0.461133
     40 HN2A       10.9170    1.3640   -4.0740 hn        1 E27      0.461133
     41 HN1        -0.4990    0.1470   -0.8140 hn        1 E27      0.321700
     42 H283       11.8920    0.6100   -2.9810 hn        1 E27      0.461133
@<TRIPOS>BOND
     1    1    2 1   
     2    1    9 1   
     3    1   41 1   
     4    2    3 2   
     5    2   14 1   
     6    3    4 1   
     7    4    5 ar  
     8    4    9 ar  
     9    5    6 ar  
    10    5   29 1   
    11    6    7 ar  
    12    7    8 ar  
    13    7   10 ar  
    14    8    9 ar  
    15    8   13 ar  
    16   10   11 ar  
    17   10   30 1   
    18   11   12 ar  
    19   11   31 1   
    20   12   13 ar  
    21   12   32 1   
    22   13   33 1   
    23   14   15 1   
    24   15   16 1   
    25   15   34 1   
    26   15   35 1   
    27   16   17 2   
    28   16   18 1   
    29   18   19 ar  
    30   18   23 ar  
    31   19   20 ar  
    32   19   36 1   
    33   20   21 ar  
    34   20   24 1   
    35   21   22 ar  
    36   21   26 1   
    37   22   23 ar  
    38   22   37 1   
    39   23   38 1   
    40   24   25 2   
    41   24   27 2   
    42   24   28 1   
    43   28   39 1   
    44   28   40 1   
    45   28   42 1   
@<TRIPOS>SUBSTRUCTURE
     1 E27         1 TEMP              0 ****  ****    0 ROOT
