@<TRIPOS>MOLECULE
E27
   42    45     1     0     0
SMALL
bcc


@<TRIPOS>ATOM
      1 N1          0.0690    0.1460   -0.0110 na        1 E27     -0.221300
      2 C2          1.4720    0.2890    0.0290 cc        1 E27      0.342700
      3 N3          1.9520    0.2860    1.3020 nd        1 E27     -0.572100
      4 C4          0.8330    0.1370    2.1190 ca        1 E27     -0.057900
      5 C5          0.6780    0.0620    3.5430 ca        1 E27      0.476200
      6 N6         -0.4930   -0.0820    4.1170 nb        1 E27     -0.659000
      7 C7         -1.6450   -0.1670    3.3390 ca        1 E27      0.402600
      8 C8         -1.6370   -0.1070    1.9080 ca        1 E27     -0.122300
      9 C9         -0.3550    0.0490    1.3090 ca        1 E27     -0.045200
     10 C10        -2.9060   -0.3230    3.9890 ca        1 E27     -0.156300
     11 C11        -4.0670   -0.4100    3.2530 ca        1 E27     -0.118000
     12 C12        -4.0410   -0.3490    1.8450 ca        1 E27     -0.114000
     13 C13        -2.8420   -0.1990    1.1810 ca        1 E27     -0.120000
     14 S14         2.3860    0.4460   -1.3970 ss        1 E27     -0.047300
     15 C15         4.0220    0.5540   -0.7270 c3        1 E27     -0.147300
     16 C16         5.0610    0.6500   -1.7930 c         1 E27      0.592700
     17 O17         4.8390    0.9030   -2.9790 o         1 E27     -0.477100
     18 C18         6.4650    0.4200   -1.3370 ca        1 E27     -0.184600
     19 C19         7.4280    0.1110   -2.2960 ca        1 E27      0.051000
     20 C20         8.7800   -0.1230   -1.9580 ca        1 E27     -0.536500
     21 C21         9.1300    0.0230   -0.5920 ca        1 E27      0.144400
     22 C22         8.1750    0.3240    0.3760 ca        1 E27     -0.143000
     23 C23         6.8400    0.5140    0.0090 ca        1 E27      0.035000
     24 S24         9.7650   -0.6180   -3.1410 sy        1 E27      1.481200
     25 O25        10.6550   -1.6200   -2.8370 o         1 E27     -0.553800
     26 CL26       10.7460   -0.1460   -0.1170 cl        1 E27     -0.030400
     27 O27         9.2140   -0.5210   -4.4020 o         1 E27     -0.553800
     28 N28        10.9360    0.8850   -3.1620 n4        1 E27     -0.789500
     29 H5          1.5630    0.1250    4.2010 h4        1 E27      0.035100
     30 H10        -2.9380   -0.3720    5.0900 ha        1 E27      0.158000
     31 H11        -5.0350   -0.5300    3.7650 ha        1 E27      0.145000
     32 H12        -4.9850   -0.4220    1.2840 ha        1 E27      0.143000
     33 H13        -2.8170   -0.1510    0.0830 ha        1 E27      0.127000
     34 H15         4.2260   -0.3420   -0.0840 h1        1 E27      0.113700
     35 H15A        4.0990    1.4620   -0.0690 h1        1 E27      0.113700
     36 H19         7.1060    0.0450   -3.3600 ha        1 E27      0.203000
     37 H22         8.4680    0.4130    1.4380 ha        1 E27      0.193000
     38 H23         6.0920    0.7470    0.7900 ha        1 E27      0.187000
     39 HN28       10.6880    1.5880   -2.4700 hn        1 E27      0.461133
     40 HN2A       10.9210    1.3320   -4.0790 hn        1 E27      0.461133
     41 HN1        -0.4970    0.1300   -0.8190 hn        1 E27      0.321700
     42 H283       11.8950    0.5910   -2.9750 hn        1 E27      0.461133
@<TRIPOS>BOND
     1    1    2 1   
     2    1    9 1   
     3    1   41 1   
     4    2    3 2   
     5    2   14 1   
     6    3    4 1   
     7    4    5 ar  
     8    4    9 ar  
     9    5    6 ar  
    10    5   29 1   
    11    6    7 ar  
    12    7    8 ar  
    13    7   10 ar  
    14    8    9 ar  
    15    8   13 ar  
    16   10   11 ar  
    17   10   30 1   
    18   11   12 ar  
    19   11   31 1   
    20   12   13 ar  
    21   12   32 1   
    22   13   33 1   
    23   14   15 1   
    24   15   16 1   
    25   15   34 1   
    26   15   35 1   
    27   16   17 2   
    28   16   18 1   
    29   18   19 ar  
    30   18   23 ar  
    31   19   20 ar  
    32   19   36 1   
    33   20   21 ar  
    34   20   24 1   
    35   21   22 ar  
    36   21   26 1   
    37   22   23 ar  
    38   22   37 1   
    39   23   38 1   
    40   24   25 2   
    41   24   27 2   
    42   24   28 1   
    43   28   39 1   
    44   28   40 1   
    45   28   42 1   
@<TRIPOS>SUBSTRUCTURE
     1 E27         1 TEMP              0 ****  ****    0 ROOT
