@<TRIPOS>MOLECULE
E27
   42    45     1     0     0
SMALL
bcc


@<TRIPOS>ATOM
      1 N1          0.0670    0.1490   -0.0060 na        1 E27     -0.221300
      2 C2          1.4710    0.2830    0.0320 cc        1 E27      0.342700
      3 N3          1.9540    0.2710    1.3040 nd        1 E27     -0.573100
      4 C4          0.8350    0.1270    2.1220 ca        1 E27     -0.057900
      5 C5          0.6830    0.0470    3.5460 ca        1 E27      0.476200
      6 N6         -0.4880   -0.0910    4.1220 nb        1 E27     -0.659000
      7 C7         -1.6420   -0.1660    3.3460 ca        1 E27      0.402600
      8 C8         -1.6360   -0.1000    1.9150 ca        1 E27     -0.122300
      9 C9         -0.3550    0.0500    1.3150 ca        1 E27     -0.045200
     10 C10        -2.9030   -0.3150    3.9980 ca        1 E27     -0.156300
     11 C11        -4.0660   -0.3920    3.2640 ca        1 E27     -0.118000
     12 C12        -4.0420   -0.3250    1.8570 ca        1 E27     -0.114000
     13 C13        -2.8440   -0.1810    1.1910 ca        1 E27     -0.120000
     14 S14         2.3840    0.4390   -1.3950 ss        1 E27     -0.047300
     15 C15         4.0210    0.5410   -0.7280 c3        1 E27     -0.147300
     16 C16         5.0580    0.6410   -1.7950 c         1 E27      0.592700
     17 O17         4.8340    0.8960   -2.9800 o         1 E27     -0.477100
     18 C18         6.4630    0.4130   -1.3410 ca        1 E27     -0.184600
     19 C19         7.4270    0.1150   -2.3040 ca        1 E27      0.051000
     20 C20         8.7810   -0.1150   -1.9680 ca        1 E27     -0.536500
     21 C21         9.1300    0.0220   -0.6010 ca        1 E27      0.144400
     22 C22         8.1760    0.3120    0.3690 ca        1 E27     -0.143000
     23 C23         6.8390    0.5000    0.0040 ca        1 E27      0.035000
     24 S24         9.7670   -0.5980   -3.1560 sy        1 E27      1.481200
     25 O25        10.6610   -1.5980   -2.8600 o         1 E27     -0.553800
     26 CL26       10.7480   -0.1430   -0.1290 cl        1 E27     -0.030400
     27 O27         9.2140   -0.4940   -4.4150 o         1 E27     -0.553800
     28 N28        10.9310    0.9100   -3.1660 n4        1 E27     -0.789500
     29 H5          1.5700    0.1020    4.2030 h4        1 E27      0.035100
     30 H10        -2.9330   -0.3680    5.0990 ha        1 E27      0.158000
     31 H11        -5.0330   -0.5070    3.7780 ha        1 E27      0.145000
     32 H12        -4.9870   -0.3890    1.2970 ha        1 E27      0.143000
     33 H13        -2.8200   -0.1280    0.0930 ha        1 E27      0.127000
     34 H15         4.1010    1.4450   -0.0650 h1        1 E27      0.113700
     35 H15A        4.2240   -0.3590   -0.0900 h1        1 E27      0.113700
     36 H19         7.1050    0.0560   -3.3680 ha        1 E27      0.203000
     37 H22         8.4690    0.3940    1.4320 ha        1 E27      0.193000
     38 H23         6.0910    0.7230    0.7890 ha        1 E27      0.187000
     39 HN28       10.9140    1.3640   -4.0800 hn        1 E27      0.461133
     40 HN2A       11.8920    0.6190   -2.9830 hn        1 E27      0.461133
     41 HN1        -0.5000    0.1390   -0.8130 hn        1 E27      0.321700
     42 H283       10.6820    1.6070   -2.4700 hn        1 E27      0.461133
@<TRIPOS>BOND
     1    1    2 1   
     2    1    9 1   
     3    1   41 1   
     4    2    3 2   
     5    2   14 1   
     6    3    4 1   
     7    4    5 ar  
     8    4    9 ar  
     9    5    6 ar  
    10    5   29 1   
    11    6    7 ar  
    12    7    8 ar  
    13    7   10 ar  
    14    8    9 ar  
    15    8   13 ar  
    16   10   11 ar  
    17   10   30 1   
    18   11   12 ar  
    19   11   31 1   
    20   12   13 ar  
    21   12   32 1   
    22   13   33 1   
    23   14   15 1   
    24   15   16 1   
    25   15   34 1   
    26   15   35 1   
    27   16   17 2   
    28   16   18 1   
    29   18   19 ar  
    30   18   23 ar  
    31   19   20 ar  
    32   19   36 1   
    33   20   21 ar  
    34   20   24 1   
    35   21   22 ar  
    36   21   26 1   
    37   22   23 ar  
    38   22   37 1   
    39   23   38 1   
    40   24   25 2   
    41   24   27 2   
    42   24   28 1   
    43   28   39 1   
    44   28   40 1   
    45   28   42 1   
@<TRIPOS>SUBSTRUCTURE
     1 E27         1 TEMP              0 ****  ****    0 ROOT
