@<TRIPOS>MOLECULE
E27
   41    44     1     0     0
SMALL
bcc


@<TRIPOS>ATOM
      1 N1          4.0820    1.2690   -0.1850 na        1 E27     -0.230300
      2 C2          2.8050    0.6920   -0.3720 cc        1 E27      0.360700
      3 N3          2.8540   -0.6670   -0.3800 nd        1 E27     -0.566100
      4 C4          4.1980   -0.9900   -0.1940 ca        1 E27     -0.053900
      5 C5          4.8860   -2.2440   -0.1110 ca        1 E27      0.480200
      6 N6          6.1840   -2.3260    0.0690 nb        1 E27     -0.672000
      7 C7          6.9450   -1.1660    0.1850 ca        1 E27      0.400600
      8 C8          6.3870    0.1520    0.1210 ca        1 E27     -0.118300
      9 C9          4.9800    0.2130   -0.0730 ca        1 E27     -0.057200
     10 C10         8.3540   -1.2800    0.3800 ca        1 E27     -0.159300
     11 C11         9.1390   -0.1560    0.5000 ca        1 E27     -0.126000
     12 C12         8.5740    1.1340    0.4340 ca        1 E27     -0.122000
     13 C13         7.2180    1.2860    0.2480 ca        1 E27     -0.118000
     14 S14         1.4310    1.6720   -0.5620 ss        1 E27     -0.059300
     15 C15         0.1390    0.4630   -0.6280 c3        1 E27     -0.144300
     16 C16        -1.2100    1.1090   -0.7320 c         1 E27      0.595700
     17 O17        -1.3670    2.2990   -1.0240 o         1 E27     -0.502100
     18 C18        -2.3620    0.2180   -0.4640 ca        1 E27     -0.198600
     19 C19        -3.5950    0.7950   -0.1380 ca        1 E27      0.030000
     20 C20        -4.7250    0.0140    0.1320 ca        1 E27     -0.365500
     21 C21        -4.5900   -1.3790    0.0420 ca        1 E27      0.147400
     22 C22        -3.3680   -1.9730   -0.2870 ca        1 E27     -0.162000
     23 C23        -2.2550   -1.1750   -0.5350 ca        1 E27     -0.030000
     24 S24        -6.1630    0.8330    0.5930 sy        1 E27      1.522200
     25 O25        -6.5500    0.3790    1.8650 o         1 E27     -0.646800
     26 CL26       -5.9210   -2.3960    0.3260 cl        1 E27     -0.069400
     27 O27        -5.9130    2.2150    0.4570 o         1 E27     -0.646800
     28 N28        -7.2170    0.3680   -0.5090 n3        1 E27     -1.026700
     29 H5          4.3230   -3.1920   -0.1980 h4        1 E27      0.036100
     30 H10         8.8060   -2.2840    0.4330 ha        1 E27      0.153000
     31 H11        10.2250   -0.2560    0.6500 ha        1 E27      0.137000
     32 H12         9.2260    2.0150    0.5330 ha        1 E27      0.136000
     33 H13         6.7710    2.2890    0.1960 ha        1 E27      0.126000
     34 H15         0.2860   -0.2050   -1.5170 h1        1 E27      0.109200
     35 H15A        0.1740   -0.1840    0.2870 h1        1 E27      0.109200
     36 H19        -3.6720    1.9030   -0.0950 ha        1 E27      0.193000
     37 H22        -3.2830   -3.0700   -0.3480 ha        1 E27      0.161000
     38 H23        -1.2960   -1.6550   -0.7930 ha        1 E27      0.151000
     39 HN28       -7.7980   -0.4270   -0.4140 hn        1 E27      0.453300
     40 HN2A       -7.3740    0.8580   -1.3550 hn        1 E27      0.453300
     41 HN1         4.2900    2.2320   -0.1530 hn        1 E27      0.317700
@<TRIPOS>BOND
     1    1    2 1   
     2    1    9 1   
     3    1   41 1   
     4    2    3 2   
     5    2   14 1   
     6    3    4 1   
     7    4    5 ar  
     8    4    9 ar  
     9    5    6 ar  
    10    5   29 1   
    11    6    7 ar  
    12    7    8 ar  
    13    7   10 ar  
    14    8    9 ar  
    15    8   13 ar  
    16   10   11 ar  
    17   10   30 1   
    18   11   12 ar  
    19   11   31 1   
    20   12   13 ar  
    21   12   32 1   
    22   13   33 1   
    23   14   15 1   
    24   15   16 1   
    25   15   34 1   
    26   15   35 1   
    27   16   17 2   
    28   16   18 1   
    29   18   19 ar  
    30   18   23 ar  
    31   19   20 ar  
    32   19   36 1   
    33   20   21 ar  
    34   20   24 1   
    35   21   22 ar  
    36   21   26 1   
    37   22   23 ar  
    38   22   37 1   
    39   23   38 1   
    40   24   25 2   
    41   24   27 2   
    42   24   28 1   
    43   28   39 1   
    44   28   40 1   
@<TRIPOS>SUBSTRUCTURE
     1 E27         1 TEMP              0 ****  ****    0 ROOT
