@<TRIPOS>MOLECULE
E28
   59    63     1     0     0
SMALL
bcc


@<TRIPOS>ATOM
      1 O1          0.4380   -1.1610    0.7720 o         1 E28     -0.424100
      2 C16         1.5980   -0.8890    0.4860 c         1 E28      0.586700
      3 N5          2.5280   -0.5750    1.6340 ny        1 E28     -0.683800
      4 C17         1.8000   -0.3090    2.9350 c3        1 E28      0.197100
      5 C18         2.7700    0.0480    3.9970 ca        1 E28     -0.258300
      6 C25         3.1950    1.3790    4.1270 ca        1 E28     -0.061000
      7 C24         4.0660    1.7680    5.1420 ca        1 E28     -0.154000
      8 C23         4.4890    0.7790    6.0290 ca        1 E28      0.186100
      9 O2          5.3360    0.9870    7.0860 os        1 E28     -0.288900
     10 C22         5.5070   -0.2920    7.7830 c3        1 E28      0.115400
     11 C21         4.6790   -1.3530    7.0320 c3        1 E28     -0.061100
     12 C20         4.0610   -0.5760    5.9180 ca        1 E28     -0.156300
     13 C19         3.2030   -0.9420    4.9040 ca        1 E28     -0.047000
     14 C14         2.1510   -0.7990   -0.8430 cc        1 E28     -0.288900
     15 C13         1.3710   -0.6170   -2.0160 cd        1 E28     -0.003000
     16 N4          3.5100   -0.8180   -1.2160 na        1 E28     -0.156100
     17 C15         3.5890   -0.6770   -2.5820 cc        1 E28     -0.033300
     18 C12         2.2780   -0.5300   -3.1120 cd        1 E28     -0.122000
     19 C11         1.9630   -0.2500   -4.4830 cd        1 E28     -0.010300
     20 N3          2.6150    0.7700   -5.1970 na        1 E28      0.002400
     21 N2          2.1490    0.9120   -6.4330 nd        1 E28     -0.451800
     22 C10         1.1690   -0.0070   -6.5970 cc        1 E28      0.322200
     23 C9          1.0090   -0.7890   -5.3800 cc        1 E28     -0.232300
     24 C4          0.0730   -1.8720   -5.2530 ca        1 E28      0.068000
     25 C3         -1.2140   -1.7260   -5.8110 ca        1 E28     -0.077000
     26 C5          0.4110   -3.0910   -4.6520 ca        1 E28     -0.106000
     27 C6         -0.5000   -4.1470   -4.6350 ca        1 E28     -0.092000
     28 C7         -1.7700   -4.0090   -5.2030 ca        1 E28     -0.152300
     29 C8         -2.7230   -5.1560   -5.1300 c3        1 E28      0.158100
     30 N1         -2.7460   -5.9540   -6.3970 nz        1 E28     -0.847600
     31 C2         -2.1240   -2.7770   -5.7810 ca        1 E28     -0.134300
     32 C1         -3.5180   -2.5470   -6.3740 c3        1 E28      0.684200
     33 F1         -3.7010   -1.3380   -6.9820 f         1 E28     -0.224967
     34 F2         -3.8560   -3.4720   -7.3430 f         1 E28     -0.224967
     35 F3         -4.5380   -2.6480   -5.4610 f         1 E28     -0.224967
     36 H14         3.0870    0.2540    1.4050 hn        1 E28      0.452300
     37 H16         1.2170   -1.2400    3.1900 hx        1 E28      0.114200
     38 H15         1.0700    0.5280    2.7370 hx        1 E28      0.114200
     39 H23         2.8200    2.1430    3.4280 ha        1 E28      0.136000
     40 H22         4.3970    2.8110    5.2550 ha        1 E28      0.181000
     41 H20         5.1470   -0.1180    8.8270 h1        1 E28      0.087200
     42 H21         6.6040   -0.5010    7.7650 h1        1 E28      0.087200
     43 H18         5.3330   -2.1770    6.6520 hc        1 E28      0.082200
     44 H19         3.9030   -1.8020    7.7010 hc        1 E28      0.082200
     45 H17         2.8440   -1.9780    4.8160 ha        1 E28      0.142000
     46 H12         0.2830   -0.5380   -2.0480 ha        1 E28      0.196000
     47 H5          4.2720   -1.0360   -0.6230 hn        1 E28      0.312700
     48 H13         4.5500   -0.6870   -3.1100 h4        1 E28      0.210000
     49 H4          3.3190    1.3840   -4.8500 hn        1 E28      0.338700
     50 H11         0.6180   -0.1140   -7.5340 h4        1 E28      0.064100
     51 H6         -1.4940   -0.7620   -6.2740 ha        1 E28      0.185000
     52 H7          1.4110   -3.2240   -4.2070 ha        1 E28      0.160000
     53 H8         -0.2090   -5.1000   -4.1610 ha        1 E28      0.149000
     54 H9         -2.4350   -5.8560   -4.2920 hx        1 E28      0.123200
     55 H10        -3.7770   -4.7860   -4.9440 hx        1 E28      0.123200
     56 H1         -3.3770   -6.7550   -6.2940 hn        1 E28      0.466800
     57 H2         -1.8060   -6.2910   -6.6250 hn        1 E28      0.466800
     58 H52         3.1680   -1.3630    1.7760 hn        1 E28      0.452300
     59 H131       -3.0810   -5.3620   -7.1750 hn        1 E28      0.466800
@<TRIPOS>BOND
     1    1    2 2   
     2    2    3 1   
     3    2   14 1   
     4    3    4 1   
     5    3   36 1   
     6    3   58 1   
     7    4    5 1   
     8    4   37 1   
     9    4   38 1   
    10    5    6 ar  
    11    5   13 ar  
    12    6    7 ar  
    13    6   39 1   
    14    7    8 ar  
    15    7   40 1   
    16    8    9 1   
    17    8   12 ar  
    18    9   10 1   
    19   10   11 1   
    20   10   41 1   
    21   10   42 1   
    22   11   12 1   
    23   11   43 1   
    24   11   44 1   
    25   12   13 ar  
    26   13   45 1   
    27   14   15 2   
    28   14   16 1   
    29   15   18 1   
    30   15   46 1   
    31   16   17 1   
    32   16   47 1   
    33   17   18 2   
    34   17   48 1   
    35   18   19 1   
    36   19   20 1   
    37   19   23 2   
    38   20   21 1   
    39   20   49 1   
    40   21   22 2   
    41   22   23 1   
    42   22   50 1   
    43   23   24 1   
    44   24   25 ar  
    45   24   26 ar  
    46   25   31 ar  
    47   25   51 1   
    48   26   27 ar  
    49   26   52 1   
    50   27   28 ar  
    51   27   53 1   
    52   28   29 1   
    53   28   31 ar  
    54   29   30 1   
    55   29   54 1   
    56   29   55 1   
    57   30   56 1   
    58   30   57 1   
    59   30   59 1   
    60   31   32 1   
    61   32   33 1   
    62   32   34 1   
    63   32   35 1   
@<TRIPOS>SUBSTRUCTURE
     1 E28         1 TEMP              0 ****  ****    0 ROOT
