@<TRIPOS>MOLECULE
E28
   59    63     1     0     0
SMALL
bcc


@<TRIPOS>ATOM
      1 O1          0.4330   -1.1460    0.7690 o         1 E28     -0.424100
      2 C16         1.5950   -0.8800    0.4840 c         1 E28      0.586700
      3 N5          2.5230   -0.5650    1.6330 n4        1 E28     -0.683800
      4 C17         1.7940   -0.2890    2.9300 c3        1 E28      0.197100
      5 C18         2.7630    0.0680    3.9940 ca        1 E28     -0.258300
      6 C25         3.1940    1.3970    4.1170 ca        1 E28     -0.061000
      7 C24         4.0660    1.7870    5.1330 ca        1 E28     -0.154000
      8 C23         4.4800    0.8000    6.0270 ca        1 E28      0.186100
      9 O2          5.3240    1.0080    7.0850 os        1 E28     -0.288900
     10 C22         5.4860   -0.2670    7.7890 c3        1 E28      0.115400
     11 C21         4.6550   -1.3280    7.0420 c3        1 E28     -0.061100
     12 C20         4.0440   -0.5530    5.9210 ca        1 E28     -0.156300
     13 C19         3.1870   -0.9190    4.9070 ca        1 E28     -0.047000
     14 C14         2.1520   -0.7990   -0.8440 cc        1 E28     -0.288900
     15 C13         1.3760   -0.6200   -2.0200 cd        1 E28     -0.003000
     16 N4          3.5120   -0.8260   -1.2130 na        1 E28     -0.156100
     17 C15         3.5940   -0.6910   -2.5800 cc        1 E28     -0.033300
     18 C12         2.2860   -0.5410   -3.1140 cd        1 E28     -0.122000
     19 C11         1.9750   -0.2670   -4.4870 cd        1 E28     -0.010300
     20 N3          2.6320    0.7480   -5.2040 na        1 E28      0.002400
     21 N2          2.1690    0.8860   -6.4420 nd        1 E28     -0.451800
     22 C10         1.1870   -0.0320   -6.6040 cc        1 E28      0.322200
     23 C9          1.0220   -0.8080   -5.3840 cc        1 E28     -0.232300
     24 C4          0.0830   -1.8880   -5.2540 ca        1 E28      0.068000
     25 C3         -1.2030   -1.7410   -5.8160 ca        1 E28     -0.077000
     26 C5          0.4170   -3.1050   -4.6470 ca        1 E28     -0.106000
     27 C6         -0.4970   -4.1590   -4.6280 ca        1 E28     -0.092000
     28 C7         -1.7660   -4.0200   -5.2000 ca        1 E28     -0.152300
     29 C8         -2.7220   -5.1640   -5.1230 c3        1 E28      0.158100
     30 N1         -2.7450   -5.9670   -6.3880 n4        1 E28     -0.847600
     31 C2         -2.1160   -2.7890   -5.7840 ca        1 E28     -0.134300
     32 C1         -3.5080   -2.5580   -6.3800 c3        1 E28      0.684200
     33 F1         -3.6860   -1.3510   -6.9940 f         1 E28     -0.224967
     34 F2         -3.8450   -3.4860   -7.3460 f         1 E28     -0.224967
     35 F3         -4.5300   -2.6530   -5.4690 f         1 E28     -0.224967
     36 H14         3.1600   -1.3550    1.7810 hn        1 E28      0.452300
     37 H16         1.0690    0.5510    2.7260 hx        1 E28      0.114200
     38 H15         1.2050   -1.2160    3.1890 hx        1 E28      0.114200
     39 H23         2.8260    2.1600    3.4130 ha        1 E28      0.136000
     40 H22         4.4020    2.8280    5.2420 ha        1 E28      0.181000
     41 H20         6.5820   -0.4830    7.7750 h1        1 E28      0.087200
     42 H21         5.1240   -0.0860    8.8310 h1        1 E28      0.087200
     43 H18         5.3040   -2.1570    6.6670 hc        1 E28      0.082200
     44 H19         3.8740   -1.7700    7.7110 hc        1 E28      0.082200
     45 H17         2.8230   -1.9540    4.8230 ha        1 E28      0.142000
     46 H12         0.2880   -0.5370   -2.0550 ha        1 E28      0.196000
     47 H5          4.2710   -1.0430   -0.6180 hn        1 E28      0.312700
     48 H13         4.5570   -0.7070   -3.1050 h4        1 E28      0.210000
     49 H4          3.3360    1.3610   -4.8580 hn        1 E28      0.338700
     50 H11         0.6380   -0.1410   -7.5420 h4        1 E28      0.064100
     51 H6         -1.4790   -0.7780   -6.2840 ha        1 E28      0.185000
     52 H7          1.4140   -3.2380   -4.1990 ha        1 E28      0.160000
     53 H8         -0.2100   -5.1100   -4.1500 ha        1 E28      0.149000
     54 H9         -3.7760   -4.7900   -4.9420 hx        1 E28      0.123200
     55 H10        -2.4380   -5.8610   -4.2820 hx        1 E28      0.123200
     56 H1         -1.8050   -6.3080   -6.6120 hn        1 E28      0.466800
     57 H2         -3.3770   -6.7660   -6.2820 hn        1 E28      0.466800
     58 H52         3.0870    0.2600    1.4010 hn        1 E28      0.452300
     59 H131       -3.0760   -5.3780   -7.1690 hn        1 E28      0.466800
@<TRIPOS>BOND
     1    1    2 2   
     2    2    3 1   
     3    2   14 1   
     4    3    4 1   
     5    3   36 1   
     6    3   58 1   
     7    4    5 1   
     8    4   37 1   
     9    4   38 1   
    10    5    6 ar  
    11    5   13 ar  
    12    6    7 ar  
    13    6   39 1   
    14    7    8 ar  
    15    7   40 1   
    16    8    9 1   
    17    8   12 ar  
    18    9   10 1   
    19   10   11 1   
    20   10   41 1   
    21   10   42 1   
    22   11   12 1   
    23   11   43 1   
    24   11   44 1   
    25   12   13 ar  
    26   13   45 1   
    27   14   15 2   
    28   14   16 1   
    29   15   18 1   
    30   15   46 1   
    31   16   17 1   
    32   16   47 1   
    33   17   18 2   
    34   17   48 1   
    35   18   19 1   
    36   19   20 1   
    37   19   23 2   
    38   20   21 1   
    39   20   49 1   
    40   21   22 2   
    41   22   23 1   
    42   22   50 1   
    43   23   24 1   
    44   24   25 ar  
    45   24   26 ar  
    46   25   31 ar  
    47   25   51 1   
    48   26   27 ar  
    49   26   52 1   
    50   27   28 ar  
    51   27   53 1   
    52   28   29 1   
    53   28   31 ar  
    54   29   30 1   
    55   29   54 1   
    56   29   55 1   
    57   30   56 1   
    58   30   57 1   
    59   30   59 1   
    60   31   32 1   
    61   32   33 1   
    62   32   34 1   
    63   32   35 1   
@<TRIPOS>SUBSTRUCTURE
     1 E28         1 TEMP              0 ****  ****    0 ROOT
