@<TRIPOS>MOLECULE
E28
   57    61     1     0     0
SMALL
bcc


@<TRIPOS>ATOM
      1 O1          1.5650   -0.4140    2.1220 o         1 E28     -0.583100
      2 C16         1.8900    0.3060    1.1580 c         1 E28      0.691700
      3 N5          3.1320    0.1880    0.5560 n         1 E28     -0.572900
      4 C17         4.0470   -0.8510    0.9690 c3        1 E28      0.139300
      5 C18         5.4570   -0.5820    0.5330 ca        1 E28     -0.150300
      6 C25         6.1890    0.4380    1.1460 ca        1 E28     -0.079000
      7 C24         7.5160    0.7040    0.7870 ca        1 E28     -0.156000
      8 C23         8.0710   -0.0930   -0.2040 ca        1 E28      0.127100
      9 O2          9.3650    0.0250   -0.6830 os        1 E28     -0.318900
     10 C22         9.5500   -0.9990   -1.7040 c3        1 E28      0.119400
     11 C21         8.2350   -1.7900   -1.8390 c3        1 E28     -0.053100
     12 C20         7.3440   -1.1360   -0.8370 ca        1 E28     -0.162300
     13 C19         6.0360   -1.3800   -0.4700 ca        1 E28     -0.068000
     14 C14         0.9680    1.3380    0.6390 cc        1 E28     -0.195900
     15 C13        -0.4320    1.3330    0.7670 cd        1 E28     -0.083000
     16 N4          1.3470    2.4950   -0.0550 na        1 E28     -0.157100
     17 C15         0.2120    3.2260   -0.3500 cc        1 E28     -0.119300
     18 C12        -0.9170    2.5260    0.1330 cd        1 E28     -0.124000
     19 C11        -2.2780    2.9550    0.0250 cd        1 E28      0.010700
     20 N3         -2.6440    4.3110    0.1160 na        1 E28     -0.021600
     21 N2         -3.9580    4.4980    0.0110 nd        1 E28     -0.505800
     22 C10        -4.5150    3.2760   -0.1660 cc        1 E28      0.310200
     23 C9         -3.4890    2.2470   -0.1690 cc        1 E28     -0.205300
     24 C4         -3.7280    0.8420   -0.3550 ca        1 E28      0.011000
     25 C3         -4.9550    0.2850    0.0350 ca        1 E28     -0.085000
     26 C5         -2.7680    0.0030   -0.9420 ca        1 E28     -0.099000
     27 C6         -3.0340   -1.3480   -1.1290 ca        1 E28     -0.135000
     28 C7         -4.2610   -1.9070   -0.7460 ca        1 E28     -0.026300
     29 C8         -4.4720   -3.3800   -0.9550 c3        1 E28      0.193100
     30 N1         -4.4130   -3.7730   -2.3440 n3        1 E28     -0.908800
     31 C2         -5.2210   -1.0730   -0.1590 ca        1 E28     -0.149300
     32 C1         -6.5800   -1.6040    0.2930 c3        1 E28      0.688200
     33 F1         -7.4100   -0.6610    0.8530 f         1 E28     -0.237633
     34 F2         -7.3480   -2.1570   -0.7020 f         1 E28     -0.237633
     35 F3         -6.5180   -2.5850    1.2560 f         1 E28     -0.237633
     36 H14         3.2800    0.5770   -0.3430 hn        1 E28      0.304500
     37 H16         4.0050   -0.9260    2.0950 h1        1 E28      0.061200
     38 H15         3.7060   -1.8460    0.5550 h1        1 E28      0.061200
     39 H23         5.7160    1.0450    1.9350 ha        1 E28      0.142000
     40 H22         8.0940    1.5020    1.2690 ha        1 E28      0.154000
     41 H20         9.8220   -0.4550   -2.6410 h1        1 E28      0.062200
     42 H21        10.3990   -1.6350   -1.3530 h1        1 E28      0.062200
     43 H18         7.8220   -1.7090   -2.8740 hc        1 E28      0.066200
     44 H19         8.3910   -2.8720   -1.6070 hc        1 E28      0.066200
     45 H17         5.4560   -2.1840   -0.9460 ha        1 E28      0.139000
     46 H12        -1.0270    0.5680    1.2630 ha        1 E28      0.184000
     47 H5          2.2760    2.7870   -0.2140 hn        1 E28      0.304700
     48 H13         0.2640    4.1730   -0.8910 h4        1 E28      0.174000
     49 H4         -2.0360    5.0710    0.3100 hn        1 E28      0.320700
     50 H11        -5.5890    3.1380   -0.2960 h4        1 E28      0.048100
     51 H6         -5.7160    0.9310    0.5050 ha        1 E28      0.155000
     52 H7         -1.7980    0.4240   -1.2520 ha        1 E28      0.147000
     53 H8         -2.2640   -1.9910   -1.5830 ha        1 E28      0.134000
     54 H9         -3.7010   -3.9130   -0.3160 h1        1 E28      0.044700
     55 H10        -5.4860   -3.6910   -0.5700 h1        1 E28      0.044700
     56 H1         -3.5730   -3.4510   -2.7810 hn        1 E28      0.352300
     57 H2         -4.4710   -4.7690   -2.4230 hn        1 E28      0.352300
@<TRIPOS>BOND
     1    1    2 2   
     2    2    3 1   
     3    2   14 1   
     4    3    4 1   
     5    3   36 1   
     6    4    5 1   
     7    4   37 1   
     8    4   38 1   
     9    5    6 ar  
    10    5   13 ar  
    11    6    7 ar  
    12    6   39 1   
    13    7    8 ar  
    14    7   40 1   
    15    8    9 1   
    16    8   12 ar  
    17    9   10 1   
    18   10   11 1   
    19   10   41 1   
    20   10   42 1   
    21   11   12 1   
    22   11   43 1   
    23   11   44 1   
    24   12   13 ar  
    25   13   45 1   
    26   14   15 2   
    27   14   16 1   
    28   15   18 1   
    29   15   46 1   
    30   16   17 1   
    31   16   47 1   
    32   17   18 2   
    33   17   48 1   
    34   18   19 1   
    35   19   20 1   
    36   19   23 2   
    37   20   21 1   
    38   20   49 1   
    39   21   22 2   
    40   22   23 1   
    41   22   50 1   
    42   23   24 1   
    43   24   25 ar  
    44   24   26 ar  
    45   25   31 ar  
    46   25   51 1   
    47   26   27 ar  
    48   26   52 1   
    49   27   28 ar  
    50   27   53 1   
    51   28   29 1   
    52   28   31 ar  
    53   29   30 1   
    54   29   54 1   
    55   29   55 1   
    56   30   56 1   
    57   30   57 1   
    58   31   32 1   
    59   32   33 1   
    60   32   34 1   
    61   32   35 1   
@<TRIPOS>SUBSTRUCTURE
     1 E28         1 TEMP              0 ****  ****    0 ROOT
