@<TRIPOS>MOLECULE
E28
   59    63     1     0     0
SMALL
bcc


@<TRIPOS>ATOM
      1 O1          0.4510   -1.1770    0.7740 o         1 E28     -0.424100
      2 C16         1.6070   -0.8920    0.4820 c         1 E28      0.586700
      3 N5          2.5400   -0.5740    1.6250 n4        1 E28     -0.683800
      4 C17         1.8180   -0.3190    2.9310 c3        1 E28      0.197100
      5 C18         2.7900    0.0440    3.9890 ca        1 E28     -0.258300
      6 C25         3.2020    1.3780    4.1210 ca        1 E28     -0.061000
      7 C24         4.0750    1.7740    5.1330 ca        1 E28     -0.154000
      8 C23         4.5130    0.7860    6.0140 ca        1 E28      0.186100
      9 O2          5.3630    0.9980    7.0670 os        1 E28     -0.288900
     10 C22         5.5510   -0.2810    7.7580 c3        1 E28      0.115400
     11 C21         4.7300   -1.3480    7.0090 c3        1 E28     -0.061100
     12 C20         4.0970   -0.5740    5.9010 ca        1 E28     -0.156300
     13 C19         3.2380   -0.9450    4.8910 ca        1 E28     -0.047000
     14 C14         2.1520   -0.7930   -0.8500 cc        1 E28     -0.288900
     15 C13         1.3630   -0.6150   -2.0180 cd        1 E28     -0.003000
     16 N4          3.5090   -0.7980   -1.2300 na        1 E28     -0.156100
     17 C15         3.5780   -0.6510   -2.5970 cc        1 E28     -0.033300
     18 C12         2.2630   -0.5160   -3.1190 cd        1 E28     -0.122000
     19 C11         1.9370   -0.2350   -4.4880 cd        1 E28     -0.010300
     20 N3          2.5760    0.7930   -5.2030 na        1 E28      0.002400
     21 N2          2.1010    0.9340   -6.4360 nd        1 E28     -0.451800
     22 C10         1.1280    0.0060   -6.5950 cc        1 E28      0.322200
     23 C9          0.9820   -0.7800   -5.3800 cc        1 E28     -0.232300
     24 C4          0.0570   -1.8720   -5.2500 ca        1 E28      0.068000
     25 C3         -1.2360   -1.7340   -5.7980 ca        1 E28     -0.077000
     26 C5          0.4090   -3.0900   -4.6550 ca        1 E28     -0.106000
     27 C6         -0.4930   -4.1530   -4.6350 ca        1 E28     -0.092000
     28 C7         -1.7680   -4.0240   -5.1940 ca        1 E28     -0.152300
     29 C8         -2.7100   -5.1790   -5.1180 c3        1 E28      0.158100
     30 N1         -2.7360   -5.9730   -6.3880 n4        1 E28     -0.847600
     31 C2         -2.1370   -2.7930   -5.7660 ca        1 E28     -0.134300
     32 C1         -3.5370   -2.5730   -6.3480 c3        1 E28      0.684200
     33 F1         -3.7340   -1.3640   -6.9510 f         1 E28     -0.224967
     34 F2         -3.8730   -3.4980   -7.3170 f         1 E28     -0.224967
     35 F3         -4.5490   -2.6860   -5.4280 f         1 E28     -0.224967
     36 H14         3.0900    0.2620    1.3960 hn        1 E28      0.452300
     37 H16         1.0780    0.5110    2.7400 hx        1 E28      0.114200
     38 H15         1.2460   -1.2570    3.1870 hx        1 E28      0.114200
     39 H23         2.8150    2.1420    3.4270 ha        1 E28      0.136000
     40 H22         4.3960    2.8190    5.2470 ha        1 E28      0.181000
     41 H20         5.1950   -0.1140    8.8050 h1        1 E28      0.087200
     42 H21         6.6500   -0.4790    7.7340 h1        1 E28      0.087200
     43 H18         3.9620   -1.8080    7.6800 hc        1 E28      0.082200
     44 H19         5.3900   -2.1630    6.6220 hc        1 E28      0.082200
     45 H17         2.8890   -1.9840    4.8000 ha        1 E28      0.142000
     46 H12         0.2750   -0.5470   -2.0430 ha        1 E28      0.196000
     47 H5          4.2760   -1.0090   -0.6430 hn        1 E28      0.312700
     48 H13         4.5370   -0.6500   -3.1300 h4        1 E28      0.210000
     49 H4          3.2770    1.4110   -4.8580 hn        1 E28      0.338700
     50 H11         0.5730   -0.1020   -7.5290 h4        1 E28      0.064100
     51 H6         -1.5270   -0.7710   -6.2570 ha        1 E28      0.185000
     52 H7          1.4130   -3.2150   -4.2170 ha        1 E28      0.160000
     53 H8         -0.1900   -5.1040   -4.1670 ha        1 E28      0.149000
     54 H9         -2.4110   -5.8800   -4.2840 hx        1 E28      0.123200
     55 H10        -3.7660   -4.8190   -4.9240 hx        1 E28      0.123200
     56 H1         -1.7950   -6.3010   -6.6230 hn        1 E28      0.466800
     57 H2         -3.3590   -6.7800   -6.2830 hn        1 E28      0.466800
     58 H52         3.1900   -1.3550    1.7610 hn        1 E28      0.452300
     59 H131       -3.0810   -5.3820   -7.1620 hn        1 E28      0.466800
@<TRIPOS>BOND
     1    1    2 2   
     2    2    3 1   
     3    2   14 1   
     4    3    4 1   
     5    3   36 1   
     6    3   58 1   
     7    4    5 1   
     8    4   37 1   
     9    4   38 1   
    10    5    6 ar  
    11    5   13 ar  
    12    6    7 ar  
    13    6   39 1   
    14    7    8 ar  
    15    7   40 1   
    16    8    9 1   
    17    8   12 ar  
    18    9   10 1   
    19   10   11 1   
    20   10   41 1   
    21   10   42 1   
    22   11   12 1   
    23   11   43 1   
    24   11   44 1   
    25   12   13 ar  
    26   13   45 1   
    27   14   15 2   
    28   14   16 1   
    29   15   18 1   
    30   15   46 1   
    31   16   17 1   
    32   16   47 1   
    33   17   18 2   
    34   17   48 1   
    35   18   19 1   
    36   19   20 1   
    37   19   23 2   
    38   20   21 1   
    39   20   49 1   
    40   21   22 2   
    41   22   23 1   
    42   22   50 1   
    43   23   24 1   
    44   24   25 ar  
    45   24   26 ar  
    46   25   31 ar  
    47   25   51 1   
    48   26   27 ar  
    49   26   52 1   
    50   27   28 ar  
    51   27   53 1   
    52   28   29 1   
    53   28   31 ar  
    54   29   30 1   
    55   29   54 1   
    56   29   55 1   
    57   30   56 1   
    58   30   57 1   
    59   30   59 1   
    60   31   32 1   
    61   32   33 1   
    62   32   34 1   
    63   32   35 1   
@<TRIPOS>SUBSTRUCTURE
     1 E28         1 TEMP              0 ****  ****    0 ROOT
