@<TRIPOS>MOLECULE
E28
   57    49     1     0     0
SMALL
bcc


@<TRIPOS>ATOM
      1 O1         -2.4920   -3.8120    1.6410 o         1 E28     -0.347000
      2 C16        -1.5250   -3.1290    1.5050 c1        1 E28      0.359000
      3 N5         -1.0970   -2.2970    2.5560 n2        1 E28     -0.356000
      4 C17        -2.0530   -1.8670    3.5890 c3        1 E28      0.000000
      5 C18        -1.4540   -0.6950    4.3600 c2        1 E28     -0.163000
      6 C25        -0.5690   -0.9470    5.4450 c2        1 E28     -0.087000
      7 C24        -0.0260    0.1200    6.1710 c1        1 E28     -0.158000
      8 C23        -0.3590    1.4620    5.8250 c1        1 E28      0.081000
      9 O2          0.0930    2.7670    6.3630 os        1 E28     -0.204000
     10 C22        -0.4350    3.7950    5.5290 c3        1 E28     -0.032000
     11 C21        -1.3280    3.1720    4.5720 c3        1 E28     -0.139000
     12 C20        -1.2350    1.7130    4.7530 c1        1 E28     -0.153000
     13 C19        -1.7860    0.6210    4.0150 c1        1 E28     -0.062000
     14 C14        -0.7390   -3.1550    0.1660 c2        1 E28     -0.149000
     15 C13        -1.2870   -3.0270   -1.0970 c1        1 E28     -0.103000
     16 N4          0.6150   -3.2330    0.0360 n2        1 E28     -0.154000
     17 C15         0.9150   -3.1550   -1.2960 c1        1 E28     -0.070000
     18 C12        -0.2750   -3.0270   -1.9950 c1        1 E28     -0.128000
     19 C11        -0.4230   -2.9560   -3.5260 c1        1 E28     -0.056500
     20 N3         -0.8270   -3.9640   -4.3330 n2        1 E28     -0.115000
     21 N2         -0.8870   -3.4690   -5.6530 n2        1 E28     -0.115000
     22 C10        -0.5200   -2.1710   -5.6290 c1        1 E28     -0.056500
     23 C9         -0.2270   -1.8320   -4.3110 c1        1 E28     -0.159000
     24 C4          0.2850   -0.4850   -3.8260 c1        1 E28      0.014000
     25 C3          1.6410   -0.1550   -3.9720 c2        1 E28     -0.086000
     26 C5         -0.6130    0.4430   -3.2370 c1        1 E28     -0.107000
     27 C6         -0.1440    1.6950   -2.8000 c1        1 E28     -0.139000
     28 C7          1.2020    2.0240   -2.9440 c1        1 E28     -0.023000
     29 C8          1.7390    3.3150   -2.3470 c2        1 E28     -0.049000
     30 N1          1.6420    4.4120   -3.3540 n3        1 E28     -0.341000
     31 C2          2.1090    1.0870   -3.5390 c2        1 E28     -0.140000
     32 C1          3.5830    1.4820   -3.7730 c3        1 E28      0.467000
     33 F1          4.2440    0.4410   -4.3590 f         1 E28     -0.165333
     34 F2          3.6360    2.5740   -4.5910 f         1 E28     -0.165333
     35 F3          4.1630    1.7760   -2.5980 f         1 E28     -0.165333
     36 H14        -0.1850   -2.0980    2.6520 hn        1 E28      0.208000
     37 H16        -2.2300   -2.6390    4.2280 h1        1 E28      0.111000
     38 H15        -2.9230   -1.5830    3.1540 h1        1 E28      0.111000
     39 H23        -0.3580   -1.8940    5.7100 ha        1 E28      0.131000
     40 H22         0.5880   -0.0590    6.9230 ha        1 E28      0.152000
     41 H20        -0.9480    4.4350    6.0840 h1        1 E28      0.100500
     42 H21         0.2990    4.2290    5.0480 h1        1 E28      0.100500
     43 H18        -1.0400    3.4030    3.6630 hc        1 E28      0.106500
     44 H19        -2.2230    3.4530    4.7510 hc        1 E28      0.106500
     45 H17        -2.4110    0.7960    3.2510 ha        1 E28      0.160000
     46 H12        -2.2890   -2.9510   -1.3160 DU        1 E28      0.215400
     47 H5          1.2200   -3.3250    0.7240 DU        1 E28      0.215400
     48 H13         1.7980   -3.1840   -1.6820 DU        1 E28      0.215400
     49 H4         -1.0310   -4.8390   -4.0620 DU        1 E28      0.215400
     50 H11        -0.4680   -1.5680   -6.4100 DU        1 E28      0.215400
     51 H6          2.2520   -0.7870   -4.3740 ha        1 E28      0.158000
     52 H7         -1.5730    0.2090   -3.1370 ha        1 E28      0.147000
     53 H8         -0.7770    2.3480   -2.3850 ha        1 E28      0.133000
     54 H9          1.2050    3.5550   -1.5420 h4        1 E28      0.082000
     55 H10         2.6700    3.1900   -2.0950 h4        1 E28      0.082000
     56 H1          0.7570    4.6300   -3.4880 hn        1 E28      0.149500
     57 H2          2.0990    5.1540   -3.0460 hn        1 E28      0.149500
@<TRIPOS>BOND
     1    1    2 1   
     2    2   14 1   
     3    3    4 1   
     4    3   36 1   
     5    4    5 1   
     6    4   37 1   
     7    4   38 1   
     8    5    6 1   
     9    5   13 1   
    10    6    7 1   
    11    6   39 1   
    12    7   40 1   
    13    8    9 1   
    14    8   12 1   
    15    9   10 1   
    16   10   11 1   
    17   10   41 1   
    18   10   42 1   
    19   11   12 1   
    20   11   43 1   
    21   11   44 1   
    22   13   45 1   
    23   14   15 1   
    24   14   16 1   
    25   15   18 1   
    26   16   17 1   
    27   17   18 1   
    28   19   20 1   
    29   19   23 1   
    30   20   21 1   
    31   21   22 1   
    32   22   23 1   
    33   24   25 1   
    34   24   26 1   
    35   25   31 1   
    36   25   51 1   
    37   26   52 1   
    38   27   28 1   
    39   27   53 1   
    40   28   31 1   
    41   29   30 1   
    42   29   54 1   
    43   29   55 1   
    44   30   56 1   
    45   30   57 1   
    46   31   32 1   
    47   32   33 1   
    48   32   34 1   
    49   32   35 1   
@<TRIPOS>SUBSTRUCTURE
     1 E28         1 TEMP              0 ****  ****    0 ROOT
