@<TRIPOS>MOLECULE
E29
   23    22     1     0     0
SMALL
bcc


@<TRIPOS>ATOM
      1 C24         2.4050   -1.3570    0.2010 c1        1 E29      0.912000
      2 O25         2.9770   -0.3140    0.1580 o         1 E29     -0.457500
      3 C26        -0.9250    0.9980    1.1290 c2        1 E29     -0.230100
      4 C27        -1.1250    0.7710    2.3870 c1        1 E29     -0.119800
      5 C28        -1.3700    0.5050    3.6620 ce        1 E29     -0.028700
      6 C29        -2.7310    0.7820    4.1430 ce        1 E29     -0.085000
      7 C30        -3.3780    0.0030    5.0140 c2        1 E29     -0.069600
      8 C31        -0.7910    0.1500    7.1600 c1        1 E29     -0.332500
      9 C32        -0.6210    0.0760    5.9710 cg        1 E29     -0.052200
     10 C33        -0.4080   -0.0110    4.5980 ce        1 E29     -0.094500
     11 N34         0.8180   -0.5620    4.1770 na        1 E29      0.147900
     12 C35         1.8460   -0.9750    5.0400 cc        1 E29      0.225700
     13 N36         2.8440   -1.4760    4.2350 nd        1 E29     -0.439700
     14 N37         2.4150   -1.3540    3.0010 nd        1 E29     -0.150000
     15 N38         1.2280   -0.8230    2.9240 nc        1 E29     -0.284400
     16 Cl         -4.9790    0.3270    5.5140 cl        1 E29     -0.181400
     17 H26        -1.0710    0.2290    0.3560 ha        1 E29      0.092500
     18 H27        -0.5700    1.9680    0.7530 ha        1 E29      0.092500
     19 H29        -3.2120    1.6700    3.6980 ha        1 E29      0.125000
     20 H31        -2.9540   -0.8850    5.4980 h4        1 E29      0.169000
     21 H32        -0.9590    0.2240    8.1980 ha        1 E29      0.141500
     22 H35         1.8150   -0.8970    6.1250 h5        1 E29      0.076800
     23 OXT         1.8520   -2.4100    0.1570 o         1 E29     -0.457500
@<TRIPOS>BOND
     1    1    2 2   
     2    1   23 2   
     3    3    4 2   
     4    3   17 1   
     5    3   18 1   
     6    4    5 2   
     7    5    6 1   
     8    5   10 1   
     9    6    7 2   
    10    6   19 1   
    11    7   16 1   
    12    7   20 1   
    13    8    9 3   
    14    8   21 1   
    15    9   10 1   
    16   10   11 2   
    17   11   12 1   
    18   11   15 1   
    19   12   13 2   
    20   12   22 1   
    21   13   14 1   
    22   14   15 2   
@<TRIPOS>SUBSTRUCTURE
     1 E29         1 TEMP              0 ****  ****    0 ROOT
