@<TRIPOS>MOLECULE
E2B
   61    65     1     0     0
SMALL
bcc


@<TRIPOS>ATOM
      1 N30        -7.7400    1.7810   -1.0120 n         1 E2B     -0.674000
      2 C9          1.8050    0.1270   -0.1500 c3        1 E2B     -0.046700
      3 C10         3.0100   -0.6640   -0.6910 c3        1 E2B     -0.009400
      4 C15         0.5540   -0.6560   -0.4760 c3        1 E2B     -0.066700
      5 C8          1.8000    1.5080   -0.7790 c3        1 E2B     -0.074400
      6 C14         0.5580   -2.0190    0.2520 c3        1 E2B     -0.044000
      7 C11         4.2810    0.0820   -0.4230 ca        1 E2B     -0.099300
      8 C13         1.7080   -2.8330   -0.3170 c3        1 E2B     -0.064400
      9 C16        -0.8140   -0.0690   -0.1660 c3        1 E2B     -0.065400
     10 C28        -6.5340    1.1780   -1.2780 c         1 E2B      0.670700
     11 C25        -5.3420    2.2160    0.6950 ca        1 E2B     -0.109000
     12 C6          4.2710    1.4840   -0.2980 ca        1 E2B     -0.037300
     13 C12         3.0310   -2.0960   -0.1650 c3        1 E2B     -0.071400
     14 C17        -1.7630   -1.2790   -0.1770 c3        1 E2B     -0.095700
     15 C18        -0.8580   -2.5420   -0.1040 c3        1 E2B      0.144100
     16 C20         0.6890   -1.9120    1.7610 c3        1 E2B     -0.077100
     17 C24        -5.5010    1.1570   -0.2040 ca        1 E2B     -0.138600
     18 C1          5.5030   -0.5960   -0.3500 ca        1 E2B     -0.091000
     19 C26        -4.3500    2.1480    1.6730 ca        1 E2B     -0.137000
     20 C21        -2.7870   -1.2260    0.9430 c3        1 E2B     -0.029100
     21 C23        -4.6590    0.0430   -0.1280 ca        1 E2B     -0.079000
     22 C27        -3.5190    1.0320    1.7570 ca        1 E2B     -0.106000
     23 C7          3.0170    2.2890   -0.3360 c3        1 E2B     -0.037100
     24 C3          6.6780    1.4800   -0.0320 ca        1 E2B      0.122100
     25 C22        -3.6650   -0.0280    0.8540 ca        1 E2B     -0.081300
     26 C5          5.4680    2.1810   -0.1040 ca        1 E2B     -0.162000
     27 C2          6.7010    0.0850   -0.1540 ca        1 E2B     -0.215000
     28 O4          7.8160    2.2310    0.1620 oh        1 E2B     -0.499100
     29 O29        -6.3350    0.6580   -2.3960 o         1 E2B     -0.612100
     30 O19        -1.2700   -3.4870    0.8640 oh        1 E2B     -0.589800
     31 HN30       -7.9450    2.1400   -0.1170 hn        1 E2B      0.312500
     32 HN3A       -8.4460    1.7800   -1.7040 hn        1 E2B      0.312500
     33 H10         2.8980   -0.7220   -1.8160 hc        1 E2B      0.054700
     34 H15         0.5720   -0.8630   -1.5880 hc        1 E2B      0.047700
     35 H8          1.7860    1.4160   -1.8970 hc        1 E2B      0.045700
     36 H8A         0.8700    2.0580   -0.4780 hc        1 E2B      0.045700
     37 H13         1.7720   -3.8190    0.2120 hc        1 E2B      0.044700
     38 H13A        1.5190   -3.0420   -1.4030 hc        1 E2B      0.044700
     39 H16        -0.8220    0.4350    0.8330 hc        1 E2B      0.049700
     40 H16A       -1.1180    0.6850   -0.9320 hc        1 E2B      0.049700
     41 H25        -5.9780    3.1110    0.6310 ha        1 E2B      0.133000
     42 H12         3.8060   -2.6800   -0.7290 hc        1 E2B      0.043200
     43 H12A        3.3370   -2.0880    0.9130 hc        1 E2B      0.043200
     44 H17        -2.3140   -1.2990   -1.1570 hc        1 E2B      0.054700
     45 H18        -0.8330   -3.0350   -1.1160 h1        1 E2B      0.034700
     46 H20        -0.1000   -1.2370    2.1720 hc        1 E2B      0.041033
     47 H20A        0.5590   -2.9240    2.2180 hc        1 E2B      0.041033
     48 H20B        1.6880   -1.5150    2.0580 hc        1 E2B      0.041033
     49 H1          5.5370   -1.6920   -0.4490 ha        1 E2B      0.134000
     50 H26        -4.2210    2.9810    2.3800 ha        1 E2B      0.136000
     51 H21        -3.4290   -2.1480    0.8940 hc        1 E2B      0.055200
     52 H21A       -2.2550   -1.2510    1.9320 hc        1 E2B      0.055200
     53 H23        -4.7790   -0.7740   -0.8590 ha        1 E2B      0.154000
     54 H27        -2.7390    0.9860    2.5320 ha        1 E2B      0.137000
     55 H7          3.1620    3.1700   -1.0200 hc        1 E2B      0.052200
     56 H7A         2.8390    2.7000    0.6960 hc        1 E2B      0.052200
     57 H5          5.4710    3.2760   -0.0060 ha        1 E2B      0.148000
     58 H2          7.6510   -0.4640   -0.0970 ha        1 E2B      0.132000
     59 HO4         8.5700    1.6240    0.1880 ho        1 E2B      0.418000
     60 HO19       -2.1170   -3.8360    0.5610 ho        1 E2B      0.399000
     61 H9          1.9050    0.2430    0.9640 hc        1 E2B      0.062700
@<TRIPOS>BOND
     1    1   10 1   
     2    1   31 1   
     3    1   32 1   
     4    2    3 1   
     5    2    4 1   
     6    2    5 1   
     7    2   61 1   
     8    3    7 1   
     9    3   13 1   
    10    3   33 1   
    11    4    6 1   
    12    4    9 1   
    13    4   34 1   
    14    5   23 1   
    15    5   35 1   
    16    5   36 1   
    17    6    8 1   
    18    6   15 1   
    19    6   16 1   
    20    7   12 ar  
    21    7   18 ar  
    22    8   13 1   
    23    8   37 1   
    24    8   38 1   
    25    9   14 1   
    26    9   39 1   
    27    9   40 1   
    28   10   17 1   
    29   10   29 2   
    30   11   17 ar  
    31   11   19 ar  
    32   11   41 1   
    33   12   23 1   
    34   12   26 ar  
    35   13   42 1   
    36   13   43 1   
    37   14   15 1   
    38   14   20 1   
    39   14   44 1   
    40   15   30 1   
    41   15   45 1   
    42   16   46 1   
    43   16   47 1   
    44   16   48 1   
    45   17   21 ar  
    46   18   27 ar  
    47   18   49 1   
    48   19   22 ar  
    49   19   50 1   
    50   20   25 1   
    51   20   51 1   
    52   20   52 1   
    53   21   25 ar  
    54   21   53 1   
    55   22   25 ar  
    56   22   54 1   
    57   23   55 1   
    58   23   56 1   
    59   24   26 ar  
    60   24   27 ar  
    61   24   28 1   
    62   26   57 1   
    63   27   58 1   
    64   28   59 1   
    65   30   60 1   
@<TRIPOS>SUBSTRUCTURE
     1 E2B         1 TEMP              0 ****  ****    0 ROOT
