@<TRIPOS>MOLECULE
E2B
   62    60     1     0     0
SMALL
bcc


@<TRIPOS>ATOM
      1 N30         1.8930    1.6110    3.3820 n9        1 E2B     -0.443000
      2 C9          6.2630    4.8540    4.9630 c3        1 E2B     -0.094000
      3 C10         7.5310    4.5630    5.7770 c3        1 E2B     -0.039000
      4 C15         6.4730    6.0610    4.0600 c3        1 E2B     -0.154000
      5 C8          5.0810    5.0990    5.8780 c3        1 E2B     -0.214000
      6 C14         7.6330    5.8810    3.0920 c3        1 E2B     -0.085000
      7 C11         7.4450    3.2420    6.4870 ca        1 E2B     -0.078000
      8 C13         8.8120    5.2570    3.7530 c2        1 E2B     -0.153000
      9 C16         3.6640   -1.7160    3.4240 c2        1 E2B     -0.207000
     10 C28         3.2930    1.0350    5.4650 c1        1 E2B      0.495000
     11 C25         5.3040    0.8870    4.2460 c1        1 E2B     -0.006000
     12 C6          7.4750    1.9960    5.8460 ca        1 E2B     -0.070000
     13 C12         8.7680    4.6660    4.9500 c2        1 E2B     -0.179000
     14 C17         4.4790   -2.7090    3.0310 c2        1 E2B     -0.108000
     15 C18        11.4990    5.2570    0.1260 c1        1 E2B      0.230000
     16 C24         4.2750    0.2730    4.8100 c2        1 E2B     -0.114000
     17 C1          7.3440    3.2740    7.8930 ca        1 E2B     -0.095000
     18 C26         6.3230    1.4760    3.6910 c2        1 E2B     -0.012000
     19 C23         4.0310   -1.2150    4.8030 c3        1 E2B      0.066000
     20 C27         5.9570   -1.9620    6.2840 c1        1 E2B      0.227000
     21 C7          7.5980    1.8380    4.3690 c3        1 E2B     -0.110000
     22 C3          7.2890    0.8730    7.9930 ca        1 E2B      0.093000
     23 C22         5.2540   -2.0250    5.1730 c2        1 E2B     -0.435000
     24 C5          7.4120    0.8160    6.6040 ca        1 E2B     -0.242000
     25 C2          7.2590    2.1180    8.6500 ca        1 E2B     -0.142000
     26 O4          7.1780   -0.2460    8.7770 oh        1 E2B     -0.243000
     27 O29         2.5280    1.6110    6.1210 o         1 E2B      0.053000
     28 O19        10.6320    4.8820    0.8220 o         1 E2B     -0.230000
     29 HN30        2.2610    2.3890    2.8720 hn        1 E2B      0.157333
     30 HN3A        1.8040    0.8330    2.7600 hn        1 E2B      0.157333
     31 H10         7.6100    5.3780    6.5610 hc        1 E2B      0.116000
     32 H15         2.8120   -1.2930    2.8910 ha        1 E2B      0.153000
     33 H8          4.9680    4.2560    6.6020 hc        1 E2B      0.076000
     34 H8A         5.2240    6.0420    6.4610 hc        1 E2B      0.076000
     35 H13         9.3050    3.2260    2.0820 ha        1 E2B      0.001000
     36 H13A        9.5500    2.7390    1.6790 ha        1 E2B      0.001000
     37 H16         5.5320    6.2590    3.4850 hc        1 E2B      0.091000
     38 H16A        6.6710    6.9610    4.7010 hc        1 E2B      0.091000
     39 H25         6.9590    2.0040    0.5110 ha        1 E2B      0.001000
     40 H12         9.6740    4.2400    5.4120 ha        1 E2B      0.138000
     41 H12A        7.9890    2.7850    3.8930 hc        1 E2B      0.148000
     42 H17         4.4340   -3.2790    2.0980 ha        1 E2B      0.171000
     43 H18         7.9420    6.9100    2.7390 hc        1 E2B      0.110000
     44 H1          7.3350    4.2500    8.4080 ha        1 E2B      0.150000
     45 H26         7.4380    2.4480    0.6930 ha        1 E2B      0.001000
     46 H23         3.1990   -1.4630    5.5230 hc        1 E2B      0.122000
     47 H27         6.2770    1.7400    2.6070 ha        1 E2B      0.202000
     48 H7          4.1430    5.1960    5.2820 hc        1 E2B      0.076000
     49 H7A         8.3470    1.0260    4.1360 hc        1 E2B      0.148000
     50 H5          7.4860   -0.1620    6.1030 ha        1 E2B      0.140000
     51 H2          7.1820    2.1510    9.7480 ha        1 E2B      0.167000
     52 HO4         7.2030   -1.0300    8.1990 ho        1 E2B      0.239000
     53 HO19        9.7520    5.3120    3.1760 ha        1 E2B      0.140000
     54 C21         5.5320   -3.0140    4.0570 c3        1 E2B     -0.069000
     55 C20         7.2290    5.0790    1.8690 c3        1 E2B     -0.204000
     56 H20         6.8630    4.0650    2.1650 hc        1 E2B      0.072667
     57 H20A        6.4150    5.6030    1.3140 hc        1 E2B      0.072667
     58 H20B        8.1070    4.9480    1.1880 hc        1 E2B      0.072667
     59 H21         5.4360   -4.0690    4.4260 hc        1 E2B      0.125500
     60 H21A        6.5600   -2.8740    3.6380 hc        1 E2B      0.125500
     61 H303        0.9840    1.8560    3.7230 hn        1 E2B      0.157333
     62 H9          6.0420    3.9580    4.3170 hc        1 E2B      0.060000
@<TRIPOS>BOND
     1    1   29 1   
     2    1   30 1   
     3    1   61 1   
     4    2    3 1   
     5    2    4 1   
     6    2    5 1   
     7    2   62 1   
     8    3    7 1   
     9    3   13 1   
    10    3   31 1   
    11    4    6 1   
    12    4   37 1   
    13    4   38 1   
    14    5   33 1   
    15    5   34 1   
    16    5   48 1   
    17    6    8 1   
    18    6   43 1   
    19    6   55 1   
    20    7   12 1   
    21    7   17 1   
    22    8   13 1   
    23    8   53 1   
    24    9   14 1   
    25    9   19 1   
    26    9   32 1   
    27   10   16 1   
    28   10   27 1   
    29   11   16 1   
    30   11   18 1   
    31   12   21 1   
    32   12   24 1   
    33   13   40 1   
    34   14   42 1   
    35   14   54 1   
    36   15   28 1   
    37   16   19 1   
    38   17   25 1   
    39   17   44 1   
    40   18   21 1   
    41   18   47 1   
    42   19   23 1   
    43   19   46 1   
    44   20   23 1   
    45   21   41 1   
    46   21   49 1   
    47   22   24 1   
    48   22   25 1   
    49   22   26 1   
    50   23   54 1   
    51   24   50 1   
    52   25   51 1   
    53   26   52 1   
    54   35   36 1   
    55   39   45 1   
    56   54   59 1   
    57   54   60 1   
    58   55   56 1   
    59   55   57 1   
    60   55   58 1   
@<TRIPOS>SUBSTRUCTURE
     1 E2B         1 TEMP              0 ****  ****    0 ROOT
