@<TRIPOS>MOLECULE
E2B
   61    60     1     0     0
SMALL
bcc


@<TRIPOS>ATOM
      1 N30        -5.0690   -3.2890   -6.2650 n         1 E2B     -0.434000
      2 C9          0.7410    1.3970    1.3990 c3        1 E2B     -0.087000
      3 C10         2.2560    1.7030    1.3650 c3        1 E2B     -0.055000
      4 C15         0.2440    0.6790    0.0100 c3        1 E2B     -0.099000
      5 C8         -0.1150    2.4940    1.7090 c3        1 E2B     -0.152000
      6 C14         1.1420   -0.6480   -0.3800 c3        1 E2B     -0.092000
      7 C11         2.8460    2.3830    2.6460 c2        1 E2B     -0.093000
      8 C13         2.6100   -0.3720   -0.4230 c3        1 E2B     -0.145000
      9 C16        -0.9190    0.1950    0.0620 c3        1 E2B     -0.150000
     10 C28        -3.8580   -2.8400   -5.6470 c2        1 E2B      0.344000
     11 C25        -4.9000   -3.1440   -3.4190 c1        1 E2B     -0.124000
     12 C6          1.8720    3.1740    3.5200 c1        1 E2B     -0.025000
     13 C12         3.1500    0.3750    0.9810 c3        1 E2B     -0.149000
     14 C17        -0.9380   -0.7970   -1.2790 c3        1 E2B     -0.093000
     15 C18         0.6190   -0.9860   -1.5540 c3        1 E2B      0.034000
     16 C20         0.8720   -1.7440    0.6200 c3        1 E2B     -0.197000
     17 C24        -3.7510   -2.7840   -4.0860 c1        1 E2B     -0.118000
     18 C1          4.1880    2.4900    2.8620 c2        1 E2B     -0.097000
     19 C26        -4.9630   -3.0350   -2.0150 c1        1 E2B     -0.124000
     20 C21        -1.5300   -1.9720   -1.0070 c3        1 E2B     -0.115000
     21 C23        -2.6350   -2.3050   -3.3630 c1        1 E2B     -0.080000
     22 C27        -3.8670   -2.5650   -1.3070 c1        1 E2B     -0.110000
     23 C7          0.2160    3.2570    2.9910 c2        1 E2B     -0.123000
     24 C3          3.7490    4.0870    4.7280 c1        1 E2B      0.079000
     25 C22        -2.6960   -2.1990   -1.9880 c1        1 E2B     -0.072000
     26 C5          2.3510    3.9820    4.5110 c2        1 E2B     -0.217000
     27 C2          4.6780    3.3360    3.8990 c1        1 E2B     -0.159000
     28 O4          4.1990    4.9500    5.7460 oh        1 E2B     -0.252000
     29 O29        -2.8640   -2.5290   -6.3580 o         1 E2B     -0.372000
     30 O19         0.9240   -2.3530   -1.8760 oh        1 E2B     -0.321000
     31 HN30       -5.8650   -3.1280   -5.8700 hn        1 E2B      0.225500
     32 HN3A       -5.0380   -3.7320   -7.0550 hn        1 E2B      0.225500
     33 H9          0.6120    0.7400    2.1110 hc        1 E2B      0.101000
     34 H10         2.3890    2.3610    0.6120 hc        1 E2B      0.095000
     35 H15         0.2920    1.3160   -0.7120 hc        1 E2B      0.088000
     36 H8         -1.0220    2.1570    1.7860 hc        1 E2B      0.086000
     37 H8A        -0.0840    3.1200    0.9670 hc        1 E2B      0.086000
     38 H13         2.8060    0.2120   -1.1950 hc        1 E2B      0.079000
     39 H13A        3.1110   -1.2590   -0.5400 hc        1 E2B      0.079000
     40 H16        -1.5800    0.8840   -0.0160 hc        1 E2B      0.089000
     41 H16A       -1.0450   -0.3170    0.8760 hc        1 E2B      0.089000
     42 H25        -5.6570   -3.4690   -3.9100 ha        1 E2B      0.133500
     43 H12         4.0850    0.6450    0.8590 hc        1 E2B      0.083500
     44 H12A        3.0980   -0.2790    1.7360 hc        1 E2B      0.083500
     45 H17        -1.3820   -0.3410   -2.0540 hc        1 E2B      0.098000
     46 H18         0.9240   -0.3840   -2.2590 h1        1 E2B      0.075000
     47 H20         0.8380   -2.6010    0.1590 hc        1 E2B      0.078333
     48 H20A        0.0090   -1.5780    1.0680 hc        1 E2B      0.078333
     49 H20B        1.5880   -1.7600    1.2870 hc        1 E2B      0.078333
     50 H1          4.8110    1.9900    2.3090 ha        1 E2B      0.134000
     51 H26        -5.7730   -3.2880   -1.5430 ha        1 E2B      0.133500
     52 H21        -1.8750   -1.9610   -0.0860 hc        1 E2B      0.104000
     53 H21A       -0.8610   -2.7140   -1.1040 hc        1 E2B      0.104000
     54 H23        -1.8090   -2.1040   -3.8260 ha        1 E2B      0.156000
     55 H27        -3.9090   -2.4910   -0.3510 ha        1 E2B      0.135000
     56 H7         -0.3460    2.8830    3.7120 ha        1 E2B      0.090500
     57 H7A        -0.0060    4.2300    2.8340 ha        1 E2B      0.090500
     58 H5          1.7170    4.4990    5.0840 ha        1 E2B      0.132000
     59 H2          5.6490    3.4130    4.0540 ha        1 E2B      0.149000
     60 HO4         4.0550    4.5820    6.5250 ho        1 E2B      0.217000
     61 HO19        1.7150   -2.5660   -1.5400 ho        1 E2B      0.202000
@<TRIPOS>BOND
     1    1   10 1   
     2    1   31 1   
     3    1   32 1   
     4    2    3 1   
     5    2    4 1   
     6    2    5 1   
     7    2   33 1   
     8    3    7 1   
     9    3   13 1   
    10    3   34 1   
    11    4    6 1   
    12    4    9 1   
    13    4   35 1   
    14    5   23 1   
    15    5   36 1   
    16    5   37 1   
    17    6    8 1   
    18    6   15 1   
    19    6   16 1   
    20    7   12 1   
    21    7   18 1   
    22    8   13 1   
    23    8   38 1   
    24    8   39 1   
    25    9   14 1   
    26    9   40 1   
    27    9   41 1   
    28   10   17 1   
    29   10   29 1   
    30   11   19 1   
    31   11   42 1   
    32   12   26 1   
    33   13   43 1   
    34   13   44 1   
    35   14   15 1   
    36   14   20 1   
    37   14   45 1   
    38   15   30 1   
    39   15   46 1   
    40   16   47 1   
    41   16   48 1   
    42   16   49 1   
    43   17   21 1   
    44   18   27 1   
    45   18   50 1   
    46   19   51 1   
    47   20   25 1   
    48   20   52 1   
    49   20   53 1   
    50   21   54 1   
    51   22   25 1   
    52   22   55 1   
    53   23   56 1   
    54   23   57 1   
    55   24   26 1   
    56   24   28 1   
    57   26   58 1   
    58   27   59 1   
    59   28   60 1   
    60   30   61 1   
@<TRIPOS>SUBSTRUCTURE
     1 E2B         1 TEMP              0 ****  ****    0 ROOT
