@<TRIPOS>MOLECULE
E2I
   44    45     1     0     0
SMALL
bcc


@<TRIPOS>ATOM
      1 N1          0.0890    1.5270   -0.1430 nb        1 E2I     -0.692500
      2 C2          1.2890    1.2880    0.4220 ca        1 E2I      0.437700
      3 C3          1.8390   -0.0070    0.5230 ca        1 E2I     -0.283900
      4 C4          1.0520   -1.0570   -0.0130 ca        1 E2I      0.437700
      5 N5         -0.1480   -0.8560   -0.5830 nb        1 E2I     -0.692500
      6 C6         -0.5860    0.4430   -0.6230 ca        1 E2I      0.705300
      7 C13         3.1470   -0.3090    1.1450 c3        1 E2I     -0.036100
      8 C15         3.9540    0.9140    1.5280 c3        1 E2I     -0.081400
      9 C17         5.3020    0.5150    2.0920 c3        1 E2I     -0.080400
     10 C19         6.1090    1.7230    2.4910 c3        1 E2I     -0.095100
     11 S21        -2.1390    0.6620   -1.3570 ss        1 E2I     -0.240400
     12 C23        -2.4390    2.4010   -1.2590 c3        1 E2I     -0.146300
     13 C25        -3.7390    2.7100   -1.9250 c         1 E2I      0.574700
     14 O27        -4.3770    3.7400   -1.7100 o         1 E2I     -0.456100
     15 C29        -4.2320    1.6950   -2.9060 ca        1 E2I     -0.024600
     16 C31        -4.6680    0.4370   -2.4640 ca        1 E2I     -0.116000
     17 C32        -5.1290   -0.4950   -3.3830 ca        1 E2I      0.011000
     18 C33        -5.1780   -0.2030   -4.7650 ca        1 E2I     -0.549500
     19 C34        -4.7290    1.0710   -5.1840 ca        1 E2I      0.011000
     20 C35        -4.2680    2.0080   -4.2720 ca        1 E2I     -0.116000
     21 S42        -5.6350   -1.3060   -5.8260 sy        1 E2I      1.494200
     22 O44        -5.3090   -1.0400   -7.1370 o         1 E2I     -0.564300
     23 O46        -5.7320   -2.5920   -5.3440 o         1 E2I     -0.564300
     24 N48        -7.5110   -0.8480   -5.8710 n4        1 E2I     -0.786500
     25 H2          1.8230    2.1770    0.8070 h4        1 E2I      0.042600
     26 H4          1.4040   -2.1050    0.0190 h4        1 E2I      0.042600
     27 H13         3.7500   -0.9390    0.4330 hc        1 E2I      0.063700
     28 H13A        2.9710   -0.9360    2.0640 hc        1 E2I      0.063700
     29 H15         3.3950    1.5150    2.2930 hc        1 E2I      0.044200
     30 H15A        4.1050    1.5690    0.6290 hc        1 E2I      0.044200
     31 H17         5.1530   -0.1500    2.9840 hc        1 E2I      0.043200
     32 H17A        5.8670   -0.0800    1.3270 hc        1 E2I      0.043200
     33 H19         7.0990    1.4070    2.9020 hc        1 E2I      0.038367
     34 H19A        5.5760    2.3140    3.2740 hc        1 E2I      0.038367
     35 H19B        6.2890    2.3870    1.6110 hc        1 E2I      0.038367
     36 H23        -1.6260    2.9870   -1.7650 h1        1 E2I      0.131200
     37 H23A       -2.4640    2.7550   -0.1940 h1        1 E2I      0.131200
     38 H31        -4.6370    0.1820   -1.3870 ha        1 E2I      0.189000
     39 H32        -5.4440   -1.4960   -3.0290 ha        1 E2I      0.172500
     40 H34        -4.7310    1.3170   -6.2630 ha        1 E2I      0.172500
     41 H35        -3.9290    3.0000   -4.6190 ha        1 E2I      0.189000
     42 HN48       -8.0760   -1.6470   -5.5890 hn        1 E2I      0.455467
     43 HN4A       -7.7880   -0.5910   -6.8170 hn        1 E2I      0.455467
     44 H483       -7.7370   -0.0720   -5.2570 hn        1 E2I      0.455467
@<TRIPOS>BOND
     1    1    2 ar  
     2    1    6 ar  
     3    2    3 ar  
     4    2   25 1   
     5    3    4 ar  
     6    3    7 1   
     7    4    5 ar  
     8    4   26 1   
     9    5    6 ar  
    10    6   11 1   
    11    7    8 1   
    12    7   27 1   
    13    7   28 1   
    14    8    9 1   
    15    8   29 1   
    16    8   30 1   
    17    9   10 1   
    18    9   31 1   
    19    9   32 1   
    20   10   33 1   
    21   10   34 1   
    22   10   35 1   
    23   11   12 1   
    24   12   13 1   
    25   12   36 1   
    26   12   37 1   
    27   13   14 2   
    28   13   15 1   
    29   15   16 ar  
    30   15   20 ar  
    31   16   17 ar  
    32   16   38 1   
    33   17   18 ar  
    34   17   39 1   
    35   18   19 ar  
    36   18   21 1   
    37   19   20 ar  
    38   19   40 1   
    39   20   41 1   
    40   21   22 2   
    41   21   23 2   
    42   21   24 1   
    43   24   42 1   
    44   24   43 1   
    45   24   44 1   
@<TRIPOS>SUBSTRUCTURE
     1 E2I         1 TEMP              0 ****  ****    0 ROOT
