@<TRIPOS>MOLECULE
E2I
   44    45     1     0     0
SMALL
bcc


@<TRIPOS>ATOM
      1 N1          0.0220    1.4800   -0.0050 nb        1 E2I     -0.692500
      2 C2          1.2180    1.2340    0.5640 ca        1 E2I      0.437700
      3 C3          1.7910   -0.0550    0.6060 ca        1 E2I     -0.283900
      4 C4          1.0300   -1.0890    0.0070 ca        1 E2I      0.437700
      5 N5         -0.1660   -0.8810   -0.5680 nb        1 E2I     -0.692500
      6 C6         -0.6280    0.4100   -0.5480 ca        1 E2I      0.706300
      7 C13         3.0920   -0.3590    1.2410 c3        1 E2I     -0.036100
      8 C15         3.9690    0.8550    1.4700 c3        1 E2I     -0.080400
      9 C17         5.3380    0.4450    1.9720 c3        1 E2I     -0.080400
     10 C19         6.2090    1.6470    2.2330 c3        1 E2I     -0.095100
     11 S21        -2.1750    0.6380   -1.2910 ss        1 E2I     -0.240400
     12 C23        -2.5080    2.3650   -1.1090 c3        1 E2I     -0.146300
     13 C25        -3.8050    2.6840   -1.7770 c         1 E2I      0.574700
     14 O27        -4.4650    3.6900   -1.5180 o         1 E2I     -0.456100
     15 C29        -4.2650    1.7130   -2.8160 ca        1 E2I     -0.024600
     16 C31        -4.6840    0.4260   -2.4460 ca        1 E2I     -0.116000
     17 C32        -5.1150   -0.4650   -3.4190 ca        1 E2I      0.011000
     18 C33        -5.1500   -0.1020   -4.7850 ca        1 E2I     -0.549500
     19 C34        -4.7190    1.1990   -5.1310 ca        1 E2I      0.011000
     20 C35        -4.2880    2.0960   -4.1650 ca        1 E2I     -0.116000
     21 S42        -5.5720   -1.1560   -5.9070 sy        1 E2I      1.494200
     22 O44        -5.2330   -0.8170   -7.1990 o         1 E2I     -0.564300
     23 O46        -5.6520   -2.4670   -5.4940 o         1 E2I     -0.564300
     24 N48        -7.4550   -0.7300   -5.9570 nz        1 E2I     -0.786500
     25 H2          1.7330    2.1110    0.9990 h4        1 E2I      0.042600
     26 H4          1.4010   -2.1310   -0.0100 h4        1 E2I      0.042600
     27 H13         2.9000   -0.8670    2.2280 hc        1 E2I      0.063700
     28 H13A        3.6480   -1.0980    0.5990 hc        1 E2I      0.063700
     29 H15         4.0770    1.4330    0.5140 hc        1 E2I      0.044700
     30 H15A        3.4880    1.5360    2.2210 hc        1 E2I      0.044700
     31 H17         5.8310   -0.2200    1.2150 hc        1 E2I      0.043200
     32 H17A        5.2260   -0.1520    2.9150 hc        1 E2I      0.043200
     33 H19         7.2130    1.3230    2.5980 hc        1 E2I      0.038367
     34 H19A        6.3490    2.2440    1.3000 hc        1 E2I      0.038367
     35 H19B        5.7500    2.3080    3.0070 hc        1 E2I      0.038367
     36 H23        -2.5530    2.6640   -0.0280 h1        1 E2I      0.131200
     37 H23A       -1.6990    2.9900   -1.5740 h1        1 E2I      0.131200
     38 H31        -4.6630    0.1160   -1.3830 ha        1 E2I      0.189000
     39 H32        -5.4170   -1.4880   -3.1210 ha        1 E2I      0.172500
     40 H34        -4.7100    1.5010   -6.1960 ha        1 E2I      0.172500
     41 H35        -3.9620    3.1100   -4.4550 ha        1 E2I      0.189000
     42 HN48       -7.7040    0.0090   -5.3070 hn        1 E2I      0.455467
     43 HN4A       -7.7240   -0.4280   -6.8920 hn        1 E2I      0.455467
     44 H483       -8.0090   -1.5520   -5.7250 hn        1 E2I      0.455467
@<TRIPOS>BOND
     1    1    2 ar  
     2    1    6 ar  
     3    2    3 ar  
     4    2   25 1   
     5    3    4 ar  
     6    3    7 1   
     7    4    5 ar  
     8    4   26 1   
     9    5    6 ar  
    10    6   11 1   
    11    7    8 1   
    12    7   27 1   
    13    7   28 1   
    14    8    9 1   
    15    8   29 1   
    16    8   30 1   
    17    9   10 1   
    18    9   31 1   
    19    9   32 1   
    20   10   33 1   
    21   10   34 1   
    22   10   35 1   
    23   11   12 1   
    24   12   13 1   
    25   12   36 1   
    26   12   37 1   
    27   13   14 2   
    28   13   15 1   
    29   15   16 ar  
    30   15   20 ar  
    31   16   17 ar  
    32   16   38 1   
    33   17   18 ar  
    34   17   39 1   
    35   18   19 ar  
    36   18   21 1   
    37   19   20 ar  
    38   19   40 1   
    39   20   41 1   
    40   21   22 2   
    41   21   23 2   
    42   21   24 1   
    43   24   42 1   
    44   24   43 1   
    45   24   44 1   
@<TRIPOS>SUBSTRUCTURE
     1 E2I         1 TEMP              0 ****  ****    0 ROOT
