@<TRIPOS>MOLECULE
E2I
   44    45     1     0     0
SMALL
bcc


@<TRIPOS>ATOM
      1 N1         -0.3090    1.4670    0.4740 nb        1 E2I     -0.694000
      2 C2          0.8700    1.2860    1.0970 ca        1 E2I      0.441700
      3 C3          1.6040    0.0830    1.0070 ca        1 E2I     -0.287900
      4 C4          1.0280   -0.9390    0.2170 ca        1 E2I      0.441700
      5 N5         -0.1490   -0.7940   -0.4190 nb        1 E2I     -0.694000
      6 C6         -0.7760    0.4140   -0.2620 ca        1 E2I      0.708300
      7 C13         2.8940   -0.1010    1.7090 c3        1 E2I     -0.036100
      8 C15         3.9910    0.7670    1.1190 c3        1 E2I     -0.076400
      9 C17         5.2880    0.5910    1.8800 c3        1 E2I     -0.081400
     10 C19         6.3850    1.4460    1.3000 c3        1 E2I     -0.094100
     11 S21        -2.2910    0.5600   -1.0880 ss        1 E2I     -0.240400
     12 C23        -2.8590    2.1880   -0.6990 c3        1 E2I     -0.146300
     13 C25        -4.1430    2.4400   -1.4180 c         1 E2I      0.574700
     14 O27        -4.9440    3.3100   -1.0790 o         1 E2I     -0.456100
     15 C29        -4.4070    1.5800   -2.6130 ca        1 E2I     -0.024600
     16 C31        -4.6750    0.2120   -2.4540 ca        1 E2I     -0.116000
     17 C32        -4.9240   -0.5750   -3.5690 ca        1 E2I      0.011000
     18 C33        -4.9240   -0.0260   -4.8720 ca        1 E2I     -0.549500
     19 C34        -4.6470    1.3550   -5.0040 ca        1 E2I      0.011000
     20 C35        -4.3980    2.1480   -3.8940 ca        1 E2I     -0.116000
     21 S42        -5.1340   -0.9510   -6.1570 sy        1 E2I      1.494200
     22 O44        -4.7640   -0.3890   -7.3590 o         1 E2I     -0.564300
     23 O46        -5.0650   -2.3080   -5.9330 o         1 E2I     -0.564300
     24 N48        -7.0500   -0.7550   -6.2970 n4        1 E2I     -0.786500
     25 H2          1.2440    2.1400    1.6930 h4        1 E2I      0.042100
     26 H4          1.5290   -1.9160    0.0890 h4        1 E2I      0.042100
     27 H13         2.7620    0.1560    2.7960 hc        1 E2I      0.060700
     28 H13A        3.2070   -1.1790    1.6600 hc        1 E2I      0.060700
     29 H15         4.1470    0.4980    0.0410 hc        1 E2I      0.044200
     30 H15A        3.6770    1.8440    1.1520 hc        1 E2I      0.044200
     31 H17         5.5960   -0.4880    1.8510 hc        1 E2I      0.043200
     32 H17A        5.1300    0.8610    2.9580 hc        1 E2I      0.043200
     33 H19         7.3320    1.3020    1.8750 hc        1 E2I      0.037700
     34 H19A        6.5750    1.1750    0.2330 hc        1 E2I      0.037700
     35 H19B        6.1080    2.5270    1.3430 hc        1 E2I      0.037700
     36 H23        -3.0100    2.3180    0.4050 h1        1 E2I      0.131200
     37 H23A       -2.1120    2.9680   -1.0080 h1        1 E2I      0.131200
     38 H31        -4.6780   -0.2430   -1.4450 ha        1 E2I      0.189000
     39 H32        -5.1060   -1.6590   -3.4380 ha        1 E2I      0.172500
     40 H34        -4.6140    1.8060   -6.0140 ha        1 E2I      0.172500
     41 H35        -4.1920    3.2260   -4.0170 ha        1 E2I      0.189000
     42 HN48       -7.4340   -0.1540   -5.5740 hn        1 E2I      0.455467
     43 HN4A       -7.2990   -0.3570   -7.2010 hn        1 E2I      0.455467
     44 H483       -7.5030   -1.6640   -6.2230 hn        1 E2I      0.455467
@<TRIPOS>BOND
     1    1    2 ar  
     2    1    6 ar  
     3    2    3 ar  
     4    2   25 1   
     5    3    4 ar  
     6    3    7 1   
     7    4    5 ar  
     8    4   26 1   
     9    5    6 ar  
    10    6   11 1   
    11    7    8 1   
    12    7   27 1   
    13    7   28 1   
    14    8    9 1   
    15    8   29 1   
    16    8   30 1   
    17    9   10 1   
    18    9   31 1   
    19    9   32 1   
    20   10   33 1   
    21   10   34 1   
    22   10   35 1   
    23   11   12 1   
    24   12   13 1   
    25   12   36 1   
    26   12   37 1   
    27   13   14 2   
    28   13   15 1   
    29   15   16 ar  
    30   15   20 ar  
    31   16   17 ar  
    32   16   38 1   
    33   17   18 ar  
    34   17   39 1   
    35   18   19 ar  
    36   18   21 1   
    37   19   20 ar  
    38   19   40 1   
    39   20   41 1   
    40   21   22 2   
    41   21   23 2   
    42   21   24 1   
    43   24   42 1   
    44   24   43 1   
    45   24   44 1   
@<TRIPOS>SUBSTRUCTURE
     1 E2I         1 TEMP              0 ****  ****    0 ROOT
