@<TRIPOS>MOLECULE
E2I
   43    38     1     0     0
SMALL
bcc


@<TRIPOS>ATOM
      1 N1          0.5850    0.5650   -0.5640 n1        1 E2I     -0.193000
      2 C2          1.9230    0.5010   -0.6400 c1        1 E2I     -0.021000
      3 C3          2.6030    1.3690   -1.4440 c1        1 E2I     -0.178000
      4 C4          1.9200    2.3010   -2.1710 c1        1 E2I     -0.023000
      5 N5          0.5830    2.3630   -2.0940 n1        1 E2I     -0.150000
      6 C6         -0.0950    1.4960   -1.2910 c1        1 E2I     -0.147000
      7 C13         4.1140    1.3780   -1.4360 c3        1 E2I     -0.113000
      8 C15         4.6260    1.3400   -2.8580 c3        1 E2I     -0.156000
      9 C17         6.0360    0.7920   -2.8710 c3        1 E2I     -0.159000
     10 C19         6.7930    1.3770   -4.0430 c3        1 E2I     -0.211000
     11 S21        -1.8520    1.6450   -1.1130 ss        1 E2I      0.349000
     12 C23        -2.5870    0.0320   -1.1390 c3        1 E2I     -0.367000
     13 C25        -3.9130    0.0700   -0.4100 c2        1 E2I      0.274000
     14 O27        -4.8640    0.6360   -0.9100 o         1 E2I     -0.256000
     15 C29        -4.0550   -0.6040    0.9370 c2        1 E2I     -0.095000
     16 C31        -4.4160   -1.9400    1.0080 c2        1 E2I     -0.104000
     17 C32        -4.5810   -2.5480    2.2420 c1        1 E2I     -0.033000
     18 C33        -4.3860   -1.8200    3.4060 c1        1 E2I     -0.798000
     19 C34        -4.0250   -0.4840    3.3340 c1        1 E2I     -0.031000
     20 C35        -3.8600    0.1240    2.1000 c1        1 E2I     -0.123000
     21 S42        -4.6780   -2.5760    4.9830 s4        1 E2I      2.079800
     22 O44        -5.5760   -1.7880    5.7800 o         1 E2I     -0.540900
     23 O46        -5.4230   -3.7970    4.8460 o         1 E2I     -0.540900
     24 N48        -3.2550   -2.8300    5.7630 n2        1 E2I     -0.954000
     25 H2          2.4100   -0.1660   -0.1190 ha        1 E2I      0.168000
     26 H4          2.4050    2.9220   -2.7460 ha        1 E2I      0.171000
     27 H13         4.4330    2.1920   -0.9960 hc        1 E2I      0.092500
     28 H13A        4.4420    0.5960   -0.9500 hc        1 E2I      0.092500
     29 H15         4.0470    0.7640   -3.3970 hc        1 E2I      0.085000
     30 H15A        4.6240    2.2450   -3.2300 hc        1 E2I      0.085000
     31 H17         6.0070   -0.1820   -2.9550 hc        1 E2I      0.079500
     32 H17A        6.4870    1.0340   -2.0380 hc        1 E2I      0.079500
     33 H19         6.6960    2.3530   -4.0410 hc        1 E2I      0.075000
     34 H19A        7.7410    1.1430   -3.9690 hc        1 E2I      0.075000
     35 H19B        6.4310    1.0150   -4.8790 hc        1 E2I      0.075000
     36 H23        -1.9900   -0.6050   -0.6970 h1        1 E2I      0.145500
     37 H23A       -2.7320   -0.2450   -2.0650 h1        1 E2I      0.145500
     38 H31        -4.5530   -2.4530    0.1890 ha        1 E2I      0.161000
     39 H32        -4.8350   -3.4900    2.2930 ha        1 E2I      0.158000
     40 H34        -3.8870    0.0290    4.1530 ha        1 E2I      0.159000
     41 H35        -3.6060    1.0660    2.0500 ha        1 E2I      0.160000
     42 HN48       -3.0070   -2.2810    6.4500 hn        1 E2I      0.244000
     43 HN4A       -2.7270   -3.5390    5.5310 hn        1 E2I      0.244000
@<TRIPOS>BOND
     1    1    6 1   
     2    2    3 1   
     3    2   25 1   
     4    3    7 1   
     5    4    5 1   
     6    4   26 1   
     7    6   11 1   
     8    7    8 1   
     9    7   27 1   
    10    7   28 1   
    11    8    9 1   
    12    8   29 1   
    13    8   30 1   
    14    9   10 1   
    15    9   31 1   
    16    9   32 1   
    17   10   33 1   
    18   10   34 1   
    19   10   35 1   
    20   11   12 1   
    21   12   13 1   
    22   12   36 1   
    23   12   37 1   
    24   13   14 1   
    25   13   15 1   
    26   15   16 1   
    27   15   20 1   
    28   16   17 1   
    29   16   38 1   
    30   17   39 1   
    31   18   19 1   
    32   18   21 1   
    33   19   40 1   
    34   20   41 1   
    35   21   22 1   
    36   21   23 1   
    37   24   42 1   
    38   24   43 1   
@<TRIPOS>SUBSTRUCTURE
     1 E2I         1 TEMP              0 ****  ****    0 ROOT
