@<TRIPOS>MOLECULE
E2I
   43    44     1     0     0
SMALL
bcc


@<TRIPOS>ATOM
      1 N1         -2.7960   -0.0950    0.0130 nb        1 E2I     -0.703000
      2 C2         -3.9130   -0.7830   -0.2820 ca        1 E2I      0.444200
      3 C3         -5.1140   -0.1590   -0.6780 ca        1 E2I     -0.319900
      4 C4         -5.0810    1.2530   -0.7510 ca        1 E2I      0.444200
      5 N5         -3.9860    1.9760   -0.4670 nb        1 E2I     -0.703000
      6 C6         -2.8680    1.2700   -0.0880 ca        1 E2I      0.701300
      7 C13        -6.3300   -0.9350   -1.0070 c3        1 E2I     -0.026100
      8 C15        -6.9510   -1.5670    0.2260 c3        1 E2I     -0.077400
      9 C17        -8.1710   -2.3850   -0.1400 c3        1 E2I     -0.080400
     10 C19        -8.7960   -3.0150    1.0790 c3        1 E2I     -0.093100
     11 S21        -1.4950    2.2390    0.2790 ss        1 E2I     -0.124400
     12 C23        -0.2340    1.0550    0.6430 c3        1 E2I     -0.164300
     13 C25         1.0740    1.7340    0.9170 c         1 E2I      0.587700
     14 O27         1.1690    2.8570    1.4200 o         1 E2I     -0.496100
     15 C29         2.2800    0.9450    0.5570 ca        1 E2I     -0.110600
     16 C31         3.4210    1.6170    0.1050 ca        1 E2I     -0.115000
     17 C32         4.5630    0.8950   -0.2350 ca        1 E2I     -0.029500
     18 C33         4.5920   -0.4990   -0.1180 ca        1 E2I     -0.355500
     19 C34         3.4450   -1.1590    0.3350 ca        1 E2I     -0.029500
     20 C35         2.2940   -0.4500    0.6700 ca        1 E2I     -0.115000
     21 S42         5.9810   -1.3760   -0.5500 sy        1 E2I      1.524200
     22 O44         5.5840   -2.6890   -0.8770 o         1 E2I     -0.653800
     23 O46         6.6820   -0.6350   -1.5230 o         1 E2I     -0.653800
     24 N48         6.8270   -1.4010    0.8080 n3        1 E2I     -1.027700
     25 H2         -3.8430   -1.8830   -0.1980 h4        1 E2I      0.030600
     26 H4         -5.9750    1.8300   -1.0540 h4        1 E2I      0.030600
     27 H13        -7.0870   -0.2690   -1.5030 hc        1 E2I      0.052700
     28 H13A       -6.0660   -1.7420   -1.7440 hc        1 E2I      0.052700
     29 H15        -6.1940   -2.2220    0.7330 hc        1 E2I      0.044700
     30 H15A       -7.2390   -0.7660    0.9560 hc        1 E2I      0.044700
     31 H17        -8.9230   -1.7280   -0.6520 hc        1 E2I      0.040200
     32 H17A       -7.8800   -3.1860   -0.8700 hc        1 E2I      0.040200
     33 H19        -8.0700   -3.6930    1.5890 hc        1 E2I      0.034700
     34 H19A       -9.1160   -2.2310    1.8080 hc        1 E2I      0.034700
     35 H19B       -9.6930   -3.6130    0.7880 hc        1 E2I      0.034700
     36 H23        -0.5070    0.4500    1.5470 h1        1 E2I      0.105700
     37 H23A       -0.1160    0.3380   -0.2100 h1        1 E2I      0.105700
     38 H31         3.4090    2.7160    0.0250 ha        1 E2I      0.153500
     39 H32         5.4530    1.4260   -0.6180 ha        1 E2I      0.158000
     40 H34         3.4490   -2.2620    0.4080 ha        1 E2I      0.158000
     41 H35         1.4020   -0.9890    1.0240 ha        1 E2I      0.153500
     42 HN48        6.7520   -2.1160    1.4870 hn        1 E2I      0.449800
     43 HN4A        7.5000   -0.7170    1.0470 hn        1 E2I      0.449800
@<TRIPOS>BOND
     1    1    2 ar  
     2    1    6 ar  
     3    2    3 ar  
     4    2   25 1   
     5    3    4 ar  
     6    3    7 1   
     7    4    5 ar  
     8    4   26 1   
     9    5    6 ar  
    10    6   11 1   
    11    7    8 1   
    12    7   27 1   
    13    7   28 1   
    14    8    9 1   
    15    8   29 1   
    16    8   30 1   
    17    9   10 1   
    18    9   31 1   
    19    9   32 1   
    20   10   33 1   
    21   10   34 1   
    22   10   35 1   
    23   11   12 1   
    24   12   13 1   
    25   12   36 1   
    26   12   37 1   
    27   13   14 2   
    28   13   15 1   
    29   15   16 ar  
    30   15   20 ar  
    31   16   17 ar  
    32   16   38 1   
    33   17   18 ar  
    34   17   39 1   
    35   18   19 ar  
    36   18   21 1   
    37   19   20 ar  
    38   19   40 1   
    39   20   41 1   
    40   21   22 2   
    41   21   23 2   
    42   21   24 1   
    43   24   42 1   
    44   24   43 1   
@<TRIPOS>SUBSTRUCTURE
     1 E2I         1 TEMP              0 ****  ****    0 ROOT
