@<TRIPOS>MOLECULE
E2M
   70    67     1     0     0
SMALL
bcc


@<TRIPOS>ATOM
      1 O1         -2.0390    3.8480   -1.1960 os        1 E2M     -0.226000
      2 C1          1.3410    0.6760    1.2330 c3        1 E2M      0.465000
      3 C2          0.9010   -0.1850    0.0430 c2        1 E2M     -0.133000
      4 C3          1.1250    0.2630   -1.2580 c1        1 E2M     -0.197000
      5 C4          0.3150    3.0580   -1.5640 c1        1 E2M     -0.380000
      6 C5         -0.7410    3.9380   -1.7880 c1        1 E2M      0.162000
      7 C6         -2.3210    4.8890   -0.2570 c3        1 E2M     -0.021000
      8 F6          2.1550    1.6550    0.8010 f         1 E2M     -0.158000
      9 F1          1.9940   -0.0890    2.1200 f         1 E2M     -0.158000
     10 F2          0.2620    1.2170    1.8170 f         1 E2M     -0.158000
     11 S           0.0410    1.5450   -0.6410 ss        1 E2M      0.449000
     12 C17         1.5960    3.3850   -2.0000 c1        1 E2M     -0.049000
     13 C16         1.8220    4.5890   -2.6580 c1        1 E2M     -0.110250
     14 C15         0.7640    5.4690   -2.8820 c1        1 E2M     -0.110250
     15 C14        -0.5160    5.1430   -2.4470 c1        1 E2M     -0.210000
     16 C7         -3.6910    4.4570    0.6810 c3        1 E2M     -0.116000
     17 C12        -3.6460    3.0960    0.8990 c3        1 E2M     -0.152500
     18 C11        -2.5290    2.6420    1.8270 c3        1 E2M     -0.144500
     19 C10        -2.5170    3.3520    3.3130 c3        1 E2M     -0.178000
     20 C13        -1.4330    3.0220    3.9870 c2        1 E2M      0.334000
     21 O3         -1.2050    1.8110    4.2620 o         1 E2M     -0.576500
     22 O2         -0.6470    3.9250    4.4030 o         1 E2M     -0.576500
     23 C9         -2.5900    4.9410    2.8040 c3        1 E2M     -0.144500
     24 C8         -3.6950    5.2500    1.8320 c3        1 E2M     -0.152500
     25 C18         0.8450   -0.5690   -2.3390 c1        1 E2M     -0.110250
     26 C19         0.3400   -1.8500   -2.1220 c1        1 E2M     -0.110250
     27 C20         0.1160   -2.3000   -0.8230 c1        1 E2M     -0.057000
     28 C28         0.3960   -1.4670    0.2610 c2        1 E2M     -0.086000
     29 C29         0.0200   -1.9080    1.6810 c3        1 E2M      0.461000
     30 F5         -0.7190   -0.9520    2.2660 f         1 E2M     -0.163333
     31 F4          1.1370   -2.1110    2.3970 f         1 E2M     -0.163333
     32 F3         -0.6890   -3.0480    1.6230 f         1 E2M     -0.163333
     33 C21        -0.5880   -3.6360   -0.5920 c2        1 E2M     -0.086000
     34 C22         0.1490   -4.7810   -0.4400 c1        1 E2M     -0.176000
     35 C23         1.6740   -4.7220   -0.5010 c1        1 E2M      0.338000
     36 O5          2.2670   -3.7810    0.0020 o         1 E2M     -0.364000
     37 N           2.4170   -5.8240   -1.0680 n3        1 E2M     -0.326000
     38 C27         3.8260   -5.8800   -1.0750 c3        1 E2M     -0.060500
     39 C26         4.3520   -7.1880   -0.5030 c3        1 E2M     -0.044000
     40 O4          3.7430   -8.3280   -1.1100 os        1 E2M     -0.271000
     41 C25         2.3160   -8.2560   -1.0950 c3        1 E2M     -0.044000
     42 C24         1.8000   -6.9430   -1.6650 c3        1 E2M     -0.060500
     43 H6         -2.5060    5.7280   -0.7420 h1        1 E2M      0.111500
     44 H6A        -1.5480    5.0150    0.3320 h1        1 E2M      0.111500
     45 H17         2.3390    2.7670   -1.8430 ha        1 E2M      0.138000
     46 H16         2.7300    4.8350   -2.9340 ha        1 E2M      0.156500
     47 H15         0.9240    6.3200   -3.3470 ha        1 E2M      0.156500
     48 H14        -1.2680    5.7480   -2.6370 ha        1 E2M      0.180000
     49 H7         -4.5030    4.6620    0.1600 hc        1 E2M      0.079000
     50 H12        -4.5080    2.8140    1.2870 hc        1 E2M      0.065250
     51 H12A       -3.5320    2.6470    0.0330 hc        1 E2M      0.065250
     52 H11        -2.6070    1.6720    1.9510 hc        1 E2M      0.083500
     53 H11A       -1.6720    2.8290    1.3910 hc        1 E2M      0.083500
     54 H10        -3.2330    3.1260    3.9500 hc        1 E2M      0.078000
     55 H9         -1.7360    5.1680    2.3820 hc        1 E2M      0.083500
     56 H9A        -2.7060    5.5140    3.5980 hc        1 E2M      0.083500
     57 H8         -4.5590    5.1280    2.2930 hc        1 E2M      0.065250
     58 H8A        -3.6150    6.1920    1.5610 hc        1 E2M      0.065250
     59 H18         1.0040   -0.2520   -3.2590 ha        1 E2M      0.156500
     60 H19         0.1420   -2.4380   -2.8870 ha        1 E2M      0.156500
     61 H21        -1.5690   -3.6750   -0.5530 ha        1 E2M      0.146000
     62 H22        -0.3030   -5.6380   -0.2920 ha        1 E2M      0.153000
     63 H27         4.1440   -5.7860   -2.0030 h1        1 E2M      0.105750
     64 H27A        4.1770   -5.1330   -0.5400 h1        1 E2M      0.105750
     65 H26         4.1720   -7.2070    0.4630 h1        1 E2M      0.097500
     66 H26A        5.3270   -7.2310   -0.6470 h1        1 E2M      0.097500
     67 H25         1.9540   -8.9990   -1.6280 h1        1 E2M      0.097500
     68 H25A        2.0020   -8.3460   -0.1670 h1        1 E2M      0.097500
     69 H24         1.9740   -6.9250   -2.6330 h1        1 E2M      0.105750
     70 H24A        0.8310   -6.8900   -1.5150 h1        1 E2M      0.105750
@<TRIPOS>BOND
     1    1    6 1   
     2    1    7 1   
     3    2    3 1   
     4    2    8 1   
     5    2    9 1   
     6    2   10 1   
     7    3    4 1   
     8    3   28 1   
     9    4   11 1   
    10    5   11 1   
    11    5   12 1   
    12    6   15 1   
    13    7   16 1   
    14    7   43 1   
    15    7   44 1   
    16   12   45 1   
    17   13   14 1   
    18   13   46 1   
    19   14   47 1   
    20   15   48 1   
    21   16   17 1   
    22   16   24 1   
    23   16   49 1   
    24   17   18 1   
    25   17   50 1   
    26   17   51 1   
    27   18   19 1   
    28   18   52 1   
    29   18   53 1   
    30   19   20 1   
    31   19   23 1   
    32   19   54 1   
    33   20   21 1   
    34   20   22 1   
    35   23   24 1   
    36   23   55 1   
    37   23   56 1   
    38   24   57 1   
    39   24   58 1   
    40   25   26 1   
    41   25   59 1   
    42   26   60 1   
    43   27   28 1   
    44   27   33 1   
    45   28   29 1   
    46   29   30 1   
    47   29   31 1   
    48   29   32 1   
    49   33   34 1   
    50   33   61 1   
    51   34   62 1   
    52   35   36 1   
    53   35   37 1   
    54   37   38 1   
    55   37   42 1   
    56   38   39 1   
    57   38   63 1   
    58   38   64 1   
    59   39   40 1   
    60   39   65 1   
    61   39   66 1   
    62   40   41 1   
    63   41   42 1   
    64   41   67 1   
    65   41   68 1   
    66   42   69 1   
    67   42   70 1   
@<TRIPOS>SUBSTRUCTURE
     1 E2M         1 TEMP              0 ****  ****    0 ROOT
