@<TRIPOS>MOLECULE
E2M
   70    70     1     0     0
SMALL
bcc


@<TRIPOS>ATOM
      1 O1         -2.0120   -2.7910   -2.1640 oh        1 E2M     -0.288000
      2 C2         -2.5150    3.9920    0.1760 ca        1 E2M     -0.173000
      3 C3         -2.4990    2.7130    0.7490 ca        1 E2M     -0.287000
      4 C4         -3.0470   -1.3530   -3.7930 c2        1 E2M     -0.276000
      5 C5         -2.5620   -1.5800   -2.5390 c2        1 E2M      0.186000
      6 C6         -2.3120   -0.6870   -0.1510 cv        1 E2M     -0.388000
      7 F6         -2.2640    3.8920   -2.2640 f         1 E2M     -0.178333
      8 F1         -4.2230    3.3970   -1.4820 f         1 E2M     -0.178333
      9 F2         -3.5820    5.4280   -1.5090 f         1 E2M     -0.178333
     10 C17        -3.0590   -2.2920   -4.8240 c1        1 E2M     -0.079000
     11 C16        -3.0830   -3.0810   -5.7280 c1        1 E2M     -0.300000
     12 C15        -2.8840    0.8490   -1.6670 cy        1 E2M     -0.248000
     13 C14        -2.5570   -0.6090   -1.4840 cv        1 E2M     -0.231000
     14 C7          2.6320   -3.4900   -3.9470 c1        1 E2M     -0.226000
     15 C12         2.0190    0.4610   -0.3230 c3        1 E2M     -0.207000
     16 C11         1.1920   -0.7790   -0.1070 c3        1 E2M     -0.174000
     17 C10         1.7220   -1.9670   -0.9010 c3        1 E2M     -0.139000
     18 C13         1.2650   -3.2520   -0.2530 c2        1 E2M      0.305000
     19 O3         -0.0590   -3.5330   -0.1230 oh        1 E2M     -0.295000
     20 O2          2.0030   -4.1190    0.2240 o         1 E2M     -0.338000
     21 C9          1.2730   -1.8950   -2.3590 c3        1 E2M     -0.066000
     22 C8          2.0190   -2.7700   -3.2140 c1        1 E2M     -0.155000
     23 C18        -2.1970    2.6370    2.1340 ca        1 E2M     -0.124000
     24 C19        -1.8760    3.7490    2.8720 ca        1 E2M     -0.116000
     25 C20        -1.7690    5.0200    2.2550 ca        1 E2M     -0.047000
     26 C28        -2.0390    5.1180    0.8880 ca        1 E2M     -0.078000
     27 C29        -1.7660    6.4390    0.1640 c3        1 E2M      0.458000
     28 F5         -2.8260    7.3160    0.1320 f         1 E2M     -0.174000
     29 F4         -0.7410    7.2050    0.6740 f         1 E2M     -0.174000
     30 F3         -1.3900    6.3170   -1.1540 f         1 E2M     -0.174000
     31 C21        -1.4040    6.1310    3.1060 c2        1 E2M     -0.154000
     32 C22        -2.3160    7.3080    3.3590 c3        1 E2M     -0.144000
     33 C23        -1.5190    8.1390    4.3710 c2        1 E2M      0.303000
     34 O5         -1.8410    9.2220    4.8890 o         1 E2M     -0.393000
     35 N          -0.3260    7.4590    4.6400 ns        1 E2M     -0.342000
     36 C27         0.8600   10.5630    6.1190 c3        1 E2M     -0.348000
     37 C26         1.3100    9.2340    6.5570 c1        1 E2M     -0.004000
     38 O4          1.6240    8.9960    7.7830 oh        1 E2M     -0.149000
     39 C25         0.8990    5.3700    3.9350 c3        1 E2M     -0.173000
     40 C24        -0.2690    6.2720    3.8690 c2        1 E2M      0.027000
     41 H6         -0.6000   -2.8270   -0.5220 ho        1 E2M      0.258000
     42 H6A        -2.1180   -3.4170   -2.8950 ho        1 E2M      0.223000
     43 H17        -3.4670   -0.3600   -4.0240 ha        1 E2M      0.158000
     44 H16        -3.9320    1.0470   -1.9630 h1        1 E2M      0.106500
     45 H15        -3.1050   -3.7720   -6.5270 ha        1 E2M      0.209000
     46 H14        -2.1840    1.4110   -2.3140 h1        1 E2M      0.106500
     47 H7         -2.0540   -1.5400    0.4600 h4        1 E2M      0.118000
     48 H12         2.0250    0.7580   -1.3990 hc        1 E2M      0.075667
     49 H12A        3.1720   -4.1340   -4.5910 ha        1 E2M      0.216000
     50 H11         1.5920    1.3070    0.2690 hc        1 E2M      0.075667
     51 H11A        3.0750    0.2970    0.0020 hc        1 E2M      0.075667
     52 H10         1.1980   -1.0400    0.9850 hc        1 E2M      0.107000
     53 H9          0.1210   -0.5760   -0.3930 hc        1 E2M      0.107000
     54 H9A         2.8480   -1.9610   -0.8640 hc        1 E2M      0.124000
     55 H8          1.3970   -0.8340   -2.7200 hc        1 E2M      0.123500
     56 H8A         0.1720   -2.1400   -2.4330 hc        1 E2M      0.123500
     57 H18        -2.2330    1.6480    2.6210 ha        1 E2M      0.132000
     58 H19        -1.6860    3.6750    3.9540 ha        1 E2M      0.120000
     59 H21        -2.4990    7.9010    2.4280 hc        1 E2M      0.136000
     60 H22        -3.2940    6.9960    3.7980 hc        1 E2M      0.136000
     61 H27        -0.1950   10.4520    5.7360 hc        1 E2M      0.120000
     62 H27A        0.4230    7.7950    5.2020 hn        1 E2M      0.276000
     63 H26         1.4940   10.8950    5.2580 hc        1 E2M      0.120000
     64 H26A        0.8800   11.3500    6.9140 hc        1 E2M      0.120000
     65 H25         1.1340    5.0940    4.9940 hc        1 E2M      0.095000
     66 H25A        1.5510    9.7560    8.4060 ho        1 E2M      0.150000
     67 H24         0.6800    4.4370    3.3580 hc        1 E2M      0.095000
     68 H24A        1.7990    5.8650    3.4910 hc        1 E2M      0.095000
     69 S          -2.5850    1.0890    0.1310 s4        1 E2M      0.451000
     70 C1         -3.1120    4.1650   -1.2160 c3        1 E2M      0.470000
@<TRIPOS>BOND
     1    1    5 1   
     2    1   42 1   
     3    2    3 1   
     4    2   26 1   
     5    2   70 1   
     6    3   23 1   
     7    3   69 1   
     8    4    5 1   
     9    4   10 1   
    10    4   43 1   
    11    5   13 1   
    12    6   13 1   
    13    6   47 1   
    14    6   69 1   
    15    7   70 1   
    16    8   70 1   
    17    9   70 1   
    18   10   11 1   
    19   11   45 1   
    20   12   13 1   
    21   12   44 1   
    22   12   46 1   
    23   12   69 1   
    24   14   22 1   
    25   14   49 1   
    26   15   16 1   
    27   15   48 1   
    28   15   50 1   
    29   15   51 1   
    30   16   17 1   
    31   16   52 1   
    32   16   53 1   
    33   17   18 1   
    34   17   21 1   
    35   17   54 1   
    36   18   19 1   
    37   18   20 1   
    38   19   41 1   
    39   21   22 1   
    40   21   55 1   
    41   21   56 1   
    42   23   24 1   
    43   23   57 1   
    44   24   25 1   
    45   24   58 1   
    46   25   26 1   
    47   25   31 1   
    48   26   27 1   
    49   27   28 1   
    50   27   29 1   
    51   27   30 1   
    52   31   32 1   
    53   31   40 1   
    54   32   33 1   
    55   32   59 1   
    56   32   60 1   
    57   33   34 1   
    58   33   35 1   
    59   35   40 1   
    60   35   62 1   
    61   36   37 1   
    62   36   61 1   
    63   36   63 1   
    64   36   64 1   
    65   37   38 1   
    66   38   66 1   
    67   39   40 1   
    68   39   65 1   
    69   39   67 1   
    70   39   68 1   
@<TRIPOS>SUBSTRUCTURE
     1 E2M         1 TEMP              0 ****  ****    0 ROOT
