@<TRIPOS>MOLECULE
E2M
   70    68     1     0     0
SMALL
bcc


@<TRIPOS>ATOM
      1 O1          0.9710    1.1050   -1.3200 oh        1 E2M     -0.423000
      2 C2          1.9320    2.9660    4.4200 c2        1 E2M      0.005000
      3 C3          2.0730    2.0590    3.2840 c2        1 E2M     -0.296000
      4 C4          0.0260   -0.4230    1.7740 c2        1 E2M      0.134000
      5 C5         -0.5430   -0.9540    0.6800 c1        1 E2M     -0.337000
      6 C6         -1.6260   -1.9840   -1.4070 c2        1 E2M     -0.196000
      7 F6          0.9770    1.8370    6.3750 f         1 E2M     -0.156333
      8 F1          3.0730    1.4110    5.9530 f         1 E2M     -0.156333
      9 F2          2.5160    3.2980    6.7840 f         1 E2M     -0.156333
     10 C17         1.3890   -0.2350    2.0080 c2        1 E2M     -0.543000
     11 C16         2.3610   -0.6810    1.0510 c2        1 E2M     -0.042000
     12 C15         3.6820   -0.4640    1.0950 c2        1 E2M     -0.333000
     13 C14        -1.0940   -1.4760   -0.3070 c1        1 E2M     -0.055000
     14 C7         -4.0260    3.3550   -1.0580 c1        1 E2M     -0.243000
     15 C12        -2.4740    1.4570   -3.9950 c3        1 E2M     -0.211000
     16 C11        -2.3880    0.1950   -3.1750 c3        1 E2M     -0.153000
     17 C10        -3.5680    0.0550   -2.2260 c3        1 E2M     -0.117000
     18 C13        -3.8810   -1.3930   -1.9290 c2        1 E2M      0.293000
     19 O3         -2.9770   -2.3220   -1.4920 os        1 E2M     -0.180000
     20 O2         -5.0140   -1.8800   -2.0480 o         1 E2M     -0.359000
     21 C9         -3.3710    0.8110   -0.9110 c3        1 E2M     -0.058000
     22 C8         -3.7240    2.1970   -1.0090 c1        1 E2M     -0.167000
     23 C18         2.3770    2.5930    2.0770 c2        1 E2M     -0.143000
     24 C19         2.4420    4.0480    1.8290 c3        1 E2M     -0.103000
     25 C20         1.6360    4.8070    2.8440 c2        1 E2M      0.000000
     26 C28         1.6760    4.2850    4.2100 c2        1 E2M     -0.122000
     27 C29         1.4790    5.2890    5.3520 c3        1 E2M      0.461000
     28 F5          2.6460    5.6460    5.9870 f         1 E2M     -0.163000
     29 F4          0.9320    6.5000    5.0070 f         1 E2M     -0.163000
     30 F3          0.6510    4.8550    6.3590 f         1 E2M     -0.163000
     31 C21         0.9310    5.8350    2.4370 c1        1 E2M     -0.058000
     32 C22         0.2630    6.8420    1.9540 c2        1 E2M     -0.130000
     33 C23        -1.0690    6.7020    1.3220 c2        1 E2M      0.381000
     34 O5         -2.0320    7.4360    1.6120 o         1 E2M     -0.369000
     35 N          -1.2490    5.7160    0.3190 n         1 E2M     -0.246000
     36 C27        -6.0380    6.7550    0.9730 c3        1 E2M     -0.334000
     37 C26        -5.1300    6.3570   -0.1220 c1        1 E2M      0.004000
     38 O4         -3.9770    6.9170   -0.2610 oh        1 E2M     -0.177000
     39 C25        -0.3850    4.0460   -1.2440 c3        1 E2M     -0.284000
     40 C24        -0.2130    5.0520   -0.1860 c1        1 E2M     -0.093000
     41 H6          0.2460    0.4990   -1.1220 ho        1 E2M      0.209000
     42 H6A         1.5930    0.9390   -0.6030 ho        1 E2M      0.209000
     43 H17        -0.6730   -0.0890    2.5710 ha        1 E2M      0.125000
     44 H16         4.1660    0.0850    1.9110 ha        1 E2M      0.099500
     45 H15         1.9380   -1.2560    0.2020 ha        1 E2M      0.111000
     46 H14         4.3550   -0.8450    0.3200 ha        1 E2M      0.099500
     47 H7         -1.0580   -2.3250   -2.2790 h4        1 E2M      0.141000
     48 H12        -2.5420    2.3510   -3.3270 hc        1 E2M      0.072333
     49 H12A       -4.3210    4.3800   -1.0930 ha        1 E2M      0.243000
     50 H11        -3.3740    1.4430   -4.6560 hc        1 E2M      0.072333
     51 H11A       -1.5650    1.5590   -4.6360 hc        1 E2M      0.072333
     52 H10        -2.3610   -0.6960   -3.8590 hc        1 E2M      0.094000
     53 H9         -1.4270    0.1880   -2.5920 hc        1 E2M      0.094000
     54 H9A        -4.4880    0.4670   -2.7370 hc        1 E2M      0.117000
     55 H8         -2.3000    0.7060   -0.5720 hc        1 E2M      0.119500
     56 H8A        -4.0140    0.3350   -0.1150 hc        1 E2M      0.119500
     57 H18         2.5700    1.9390    1.2080 ha        1 E2M      0.164000
     58 H19         2.0380    4.2730    0.7980 hc        1 E2M      0.124500
     59 H21         3.5110    4.3960    1.8620 hc        1 E2M      0.124500
     60 H22         0.6390    7.8790    1.9910 ha        1 E2M      0.168000
     61 H27        -6.2250    5.8550    1.6120 hc        1 E2M      0.105333
     62 H27A       -2.2020    5.6010    0.0040 hn        1 E2M      0.200000
     63 H26        -5.6520    7.5830    1.6210 hc        1 E2M      0.105333
     64 H26A       -7.0150    7.0670    0.5260 hc        1 E2M      0.105333
     65 H25        -1.4380    3.8180   -1.5560 hc        1 E2M      0.115000
     66 H25A       -3.7320    7.6080    0.3990 ho        1 E2M      0.192000
     67 H24         0.0960    3.0910   -0.8930 hc        1 E2M      0.115000
     68 H24A        0.1900    4.3960   -2.1400 hc        1 E2M      0.115000
     69 S           1.8190    0.3870    3.4960 ss        1 E2M      0.368000
     70 C1          2.1140    2.3850    5.8350 c3        1 E2M      0.454000
@<TRIPOS>BOND
     1    1   41 1   
     2    1   42 1   
     3    2    3 1   
     4    2   26 1   
     5    2   70 1   
     6    3   23 1   
     7    3   69 1   
     8    4    5 1   
     9    4   10 1   
    10    4   43 1   
    11    5   13 1   
    12    6   13 1   
    13    6   19 1   
    14    6   47 1   
    15    7   70 1   
    16    8   70 1   
    17    9   70 1   
    18   10   11 1   
    19   10   69 1   
    20   11   12 1   
    21   11   45 1   
    22   12   44 1   
    23   12   46 1   
    24   14   22 1   
    25   14   49 1   
    26   15   16 1   
    27   15   48 1   
    28   15   50 1   
    29   15   51 1   
    30   16   17 1   
    31   16   52 1   
    32   16   53 1   
    33   17   18 1   
    34   17   21 1   
    35   17   54 1   
    36   18   19 1   
    37   18   20 1   
    38   21   22 1   
    39   21   55 1   
    40   21   56 1   
    41   23   24 1   
    42   23   57 1   
    43   24   25 1   
    44   24   58 1   
    45   24   59 1   
    46   25   26 1   
    47   25   31 1   
    48   26   27 1   
    49   27   28 1   
    50   27   29 1   
    51   27   30 1   
    52   31   32 1   
    53   32   33 1   
    54   32   60 1   
    55   33   34 1   
    56   33   35 1   
    57   35   40 1   
    58   35   62 1   
    59   36   37 1   
    60   36   61 1   
    61   36   63 1   
    62   36   64 1   
    63   37   38 1   
    64   38   66 1   
    65   39   40 1   
    66   39   65 1   
    67   39   67 1   
    68   39   68 1   
@<TRIPOS>SUBSTRUCTURE
     1 E2M         1 TEMP              0 ****  ****    0 ROOT
