@<TRIPOS>MOLECULE
E2M
   70    68     1     0     0
SMALL
bcc


@<TRIPOS>ATOM
      1 O1         -1.4700   -1.3760    0.3010 os        1 E2M     -0.125000
      2 C2          0.4510    3.0130    3.7220 c2        1 E2M     -0.018000
      3 C3         -0.1800    2.1600    2.7250 c2        1 E2M     -0.305000
      4 C4         -0.0070   -0.5090    1.9530 c3        1 E2M     -0.175000
      5 C5         -0.7950   -0.3200    0.6950 c1        1 E2M     -0.042000
      6 C6          0.9590    0.9770   -1.9440 c2        1 E2M     -0.197500
      7 F6          0.7410    3.4920    6.1150 f         1 E2M     -0.153667
      8 F1         -0.6690    1.9640    5.6430 f         1 E2M     -0.153667
      9 F2          1.4700    1.5740    5.4290 f         1 E2M     -0.153667
     10 C17         0.0250   -1.7860    2.5830 c1        1 E2M     -0.172000
     11 C16         0.0580   -2.8630    3.1040 c1        1 E2M     -0.171000
     12 C15         2.3880    3.1400   -1.7970 c2        1 E2M     -0.197500
     13 C14         1.6750    2.0560   -1.8740 c1        1 E2M     -0.163000
     14 C7         -2.6430   -0.0480   -1.3400 c2        1 E2M     -0.276000
     15 C12         0.2690   -2.4190   -2.7340 c3        1 E2M     -0.206000
     16 C11        -0.8300   -3.4330   -2.9210 c3        1 E2M     -0.152000
     17 C10        -2.2160   -2.8250   -2.8220 c3        1 E2M     -0.174000
     18 C13        -3.2560   -3.7210   -3.5580 c2        1 E2M      0.334000
     19 O3         -4.4290   -3.7820   -3.0900 o         1 E2M     -0.571000
     20 O2         -2.8840   -4.3080   -4.6110 o         1 E2M     -0.571000
     21 C9         -2.6450   -2.5890   -1.3830 c3        1 E2M     -0.128000
     22 C8         -2.2720   -1.2430   -0.8720 c2        1 E2M      0.051000
     23 C18        -0.2860    2.5940    1.4480 c2        1 E2M     -0.047000
     24 C19         0.1880    3.9010    0.9720 c3        1 E2M     -0.129000
     25 C20         0.7190    4.7910    2.0500 c2        1 E2M     -0.016000
     26 C28         0.9890    4.2090    3.3610 c2        1 E2M     -0.098000
     27 C29         1.9050    5.0260    4.2870 c3        1 E2M      0.460000
     28 F5          2.7960    5.8490    3.6410 f         1 E2M     -0.159667
     29 F4          1.2470    5.8620    5.1540 f         1 E2M     -0.159667
     30 F3          2.7280    4.2680    5.0840 f         1 E2M     -0.159667
     31 C21         0.8280    6.0740    1.7820 c1        1 E2M     -0.033000
     32 C22         0.9300    7.3320    1.4570 c2        1 E2M     -0.141000
     33 C23        -0.1920    8.2920    1.5480 c2        1 E2M      0.368000
     34 O5         -0.0150    9.5030    1.7700 o         1 E2M     -0.345000
     35 N          -1.5210    7.8240    1.3530 n         1 E2M     -0.247000
     36 C27        -2.6340   11.0800    2.9280 c3        1 E2M     -0.339000
     37 C26        -3.2850   10.2180    1.9330 c1        1 E2M     -0.010000
     38 O4         -4.1710   10.6680    1.1150 oh        1 E2M     -0.143000
     39 C25        -3.1110    6.0600    0.7580 c3        1 E2M     -0.259000
     40 C24        -1.7470    6.5790    0.9650 c1        1 E2M     -0.122000
     41 H6          0.1570    0.7430   -1.2190 ha        1 E2M      0.139250
     42 H6A        -2.3230    0.8950   -0.8800 ha        1 E2M      0.133500
     43 H17         1.0410   -0.1670    1.7140 h1        1 E2M      0.157000
     44 H16         3.3260    3.1870   -1.2280 ha        1 E2M      0.139250
     45 H15         0.0780   -3.8200    3.5580 ha        1 E2M      0.223000
     46 H14         2.0970    4.0710   -2.3050 ha        1 E2M      0.139250
     47 H7          1.1040    0.2190   -2.7310 ha        1 E2M      0.139250
     48 H12         0.1270   -1.8510   -1.7800 hc        1 E2M      0.053333
     49 H12A       -3.2880    0.0240   -2.2240 ha        1 E2M      0.133500
     50 H11         1.2660   -2.9200   -2.7010 hc        1 E2M      0.053333
     51 H11A        0.2720   -1.6850   -3.5770 hc        1 E2M      0.053333
     52 H10        -0.7340   -3.9120   -3.9340 hc        1 E2M      0.092000
     53 H9         -0.7210   -4.2500   -2.1600 hc        1 E2M      0.092000
     54 H9A        -2.2250   -1.8460   -3.3760 hc        1 E2M      0.076000
     55 H8         -3.7710   -2.6800   -1.3330 hc        1 E2M      0.123500
     56 H8A        -2.2150   -3.3820   -0.7150 hc        1 E2M      0.123500
     57 H18        -0.7310    1.9350    0.6690 ha        1 E2M      0.194000
     58 H19        -0.6760    4.4450    0.4730 hc        1 E2M      0.149000
     59 H21         0.9760    3.7390    0.1770 hc        1 E2M      0.149000
     60 H22         1.8770    7.7740    1.1020 ha        1 E2M      0.172000
     61 H27        -1.5250   11.0340    2.7390 hc        1 E2M      0.118333
     62 H27A       -2.2480    8.5210    1.5140 hn        1 E2M      0.240000
     63 H26        -2.8160   10.6550    3.9480 hc        1 E2M      0.118333
     64 H26A       -2.9670   12.1490    2.9140 hc        1 E2M      0.118333
     65 H25        -4.3950   11.6240    1.1980 ho        1 E2M      0.157000
     66 H25A       -3.9530    6.7770    0.9310 hc        1 E2M      0.099333
     67 H24        -3.1700    5.6860   -0.2960 hc        1 E2M      0.099333
     68 H24A       -3.2420    5.1830    1.4440 hc        1 E2M      0.099333
     69 S          -0.7760    0.6100    3.1360 ss        1 E2M      0.258000
     70 C1          0.5010    2.5120    5.1800 c3        1 E2M      0.460000
@<TRIPOS>BOND
     1    1    5 1   
     2    1   22 1   
     3    2    3 1   
     4    2   26 1   
     5    2   70 1   
     6    3   23 1   
     7    3   69 1   
     8    4    5 1   
     9    4   10 1   
    10    4   43 1   
    11    4   69 1   
    12    6   13 1   
    13    6   41 1   
    14    6   47 1   
    15    7   70 1   
    16    8   70 1   
    17    9   70 1   
    18   10   11 1   
    19   11   45 1   
    20   12   13 1   
    21   12   44 1   
    22   12   46 1   
    23   14   22 1   
    24   14   42 1   
    25   14   49 1   
    26   15   16 1   
    27   15   48 1   
    28   15   50 1   
    29   15   51 1   
    30   16   17 1   
    31   16   52 1   
    32   16   53 1   
    33   17   18 1   
    34   17   21 1   
    35   17   54 1   
    36   18   19 1   
    37   18   20 1   
    38   21   22 1   
    39   21   55 1   
    40   21   56 1   
    41   23   24 1   
    42   23   57 1   
    43   24   25 1   
    44   24   58 1   
    45   24   59 1   
    46   25   26 1   
    47   25   31 1   
    48   26   27 1   
    49   27   28 1   
    50   27   29 1   
    51   27   30 1   
    52   31   32 1   
    53   32   33 1   
    54   32   60 1   
    55   33   34 1   
    56   33   35 1   
    57   35   40 1   
    58   35   62 1   
    59   36   37 1   
    60   36   61 1   
    61   36   63 1   
    62   36   64 1   
    63   37   38 1   
    64   38   65 1   
    65   39   40 1   
    66   39   66 1   
    67   39   67 1   
    68   39   68 1   
@<TRIPOS>SUBSTRUCTURE
     1 E2M         1 TEMP              0 ****  ****    0 ROOT
