@<TRIPOS>MOLECULE
E2M
   70    73     1     0     0
SMALL
bcc


@<TRIPOS>ATOM
      1 O1          3.7430    1.0550   -0.2020 os        1 E2M     -0.331900
      2 C2         -1.0290    2.6110   -1.0510 ca        1 E2M     -0.123300
      3 C3          0.2830    2.1160   -1.1380 ca        1 E2M      0.011900
      4 C4          2.8750    2.4120   -1.9790 ca        1 E2M     -0.085100
      5 C5          3.8230    1.4780   -1.5140 ca        1 E2M      0.183100
      6 C6          3.8690   -0.3710   -0.0220 c3        1 E2M      0.127400
      7 F6         -1.1620    4.9340   -0.2640 f         1 E2M     -0.235967
      8 F1         -0.5400    4.6580   -2.3240 f         1 E2M     -0.235967
      9 F2         -2.5790    4.3540   -1.8010 f         1 E2M     -0.235967
     10 C17         3.0130    2.9040   -3.2850 ca        1 E2M     -0.053000
     11 C16         4.0540    2.4940   -4.1100 ca        1 E2M     -0.178000
     12 C15         4.9900    1.5730   -3.6350 ca        1 E2M     -0.076000
     13 C14         4.8810    1.0680   -2.3460 ca        1 E2M     -0.200000
     14 C7          3.9320   -0.6430    1.4770 c3        1 E2M     -0.056700
     15 C12         2.6990   -0.1560    2.2190 c3        1 E2M     -0.071900
     16 C11         1.4550   -0.9370    1.8640 c3        1 E2M     -0.068400
     17 C10         1.6210   -2.4420    1.9760 c3        1 E2M     -0.167700
     18 C13         0.4010   -3.1120    1.3140 c         1 E2M      0.909600
     19 O3         -0.3880   -3.7960    2.0230 o         1 E2M     -0.860800
     20 O2          0.2040   -2.9400    0.0680 o         1 E2M     -0.860800
     21 C9          2.8900   -2.9360    1.3060 c3        1 E2M     -0.068400
     22 C8          4.1140   -2.1380    1.7050 c3        1 E2M     -0.071900
     23 C18         0.4700    0.7250   -1.1720 ca        1 E2M     -0.112000
     24 C19        -0.5870   -0.1530   -1.0330 ca        1 E2M     -0.084000
     25 C20        -1.8850    0.3380   -0.7910 ca        1 E2M     -0.005800
     26 C28        -2.0880    1.7270   -0.7580 ca        1 E2M     -0.116300
     27 C29        -3.4730    2.2470   -0.3520 c3        1 E2M      0.685200
     28 F5         -4.3880    2.2840   -1.3770 f         1 E2M     -0.233300
     29 F4         -4.1000    1.5250    0.6340 f         1 E2M     -0.233300
     30 F3         -3.4930    3.5200    0.1690 f         1 E2M     -0.233300
     31 C21        -2.9710   -0.6190   -0.6200 ce        1 E2M     -0.115200
     32 C22        -2.8090   -1.8300   -0.0640 cf        1 E2M     -0.157200
     33 C23        -3.9710   -2.7550    0.0440 c         1 E2M      0.658300
     34 O5         -5.1250   -2.3060    0.2460 o         1 E2M     -0.643100
     35 N          -3.7890   -4.1160   -0.1470 n         1 E2M     -0.448800
     36 C27        -4.8980   -5.0220    0.0640 c3        1 E2M      0.043500
     37 C26        -4.6210   -6.0720    1.1500 c3        1 E2M      0.108400
     38 O4         -3.3940   -6.7490    0.9230 os        1 E2M     -0.438600
     39 C25        -2.2900   -5.8450    0.8380 c3        1 E2M      0.108400
     40 C24        -2.4990   -4.7660   -0.2320 c3        1 E2M      0.043500
     41 H6          2.9770   -0.8710   -0.4860 h1        1 E2M      0.047700
     42 H6A         4.8070   -0.7400   -0.5120 h1        1 E2M      0.047700
     43 H17         2.2720    3.6330   -3.6560 ha        1 E2M      0.151000
     44 H16         4.1390    2.8910   -5.1310 ha        1 E2M      0.133000
     45 H15         5.8190    1.2480   -4.2810 ha        1 E2M      0.129000
     46 H14         5.6300    0.3550   -1.9720 ha        1 E2M      0.143000
     47 H7          4.8280   -0.0970    1.8860 hc        1 E2M      0.038700
     48 H12         2.8940   -0.2450    3.3210 hc        1 E2M      0.033450
     49 H12A        2.5380    0.9300    1.9870 hc        1 E2M      0.033450
     50 H11         0.6170   -0.6150    2.5370 hc        1 E2M      0.045200
     51 H11A        1.1470   -0.6910    0.8100 hc        1 E2M      0.045200
     52 H10         1.6420   -2.7310    3.0610 hc        1 E2M      0.045700
     53 H9          3.0500   -4.0120    1.5790 hc        1 E2M      0.045200
     54 H9A         2.7490   -2.8950    0.1930 hc        1 E2M      0.045200
     55 H8          5.0050   -2.5020    1.1300 hc        1 E2M      0.033450
     56 H8A         4.3260   -2.3020    2.7950 hc        1 E2M      0.033450
     57 H18         1.4930    0.3260   -1.2880 ha        1 E2M      0.153000
     58 H19        -0.4040   -1.2510   -1.0450 ha        1 E2M      0.223000
     59 H21        -3.9640   -0.2930   -0.9820 ha        1 E2M      0.147000
     60 H22        -1.8390   -2.1780    0.3540 ha        1 E2M      0.214000
     61 H27        -5.8240   -4.4460    0.3420 h1        1 E2M      0.073950
     62 H27A       -5.0880   -5.5580   -0.9100 h1        1 E2M      0.073950
     63 H26        -4.6080   -5.5970    2.1670 h1        1 E2M      0.060200
     64 H26A       -5.4020   -6.8750    1.1120 h1        1 E2M      0.060200
     65 H25        -2.0980   -5.3710    1.8390 h1        1 E2M      0.060200
     66 H25A       -1.4210   -6.4930    0.5540 h1        1 E2M      0.060200
     67 H24        -2.4410   -5.2470   -1.2510 h1        1 E2M      0.073950
     68 H24A       -1.6380   -4.0350   -0.1280 h1        1 E2M      0.073950
     69 S           1.6400    3.1390   -1.0460 ss        1 E2M     -0.086800
     70 C1         -1.3110    4.0900   -1.3370 c3        1 E2M      0.688200
@<TRIPOS>BOND
     1    1    5 1   
     2    1    6 1   
     3    2    3 ar  
     4    2   26 ar  
     5    2   70 1   
     6    3   23 ar  
     7    3   69 1   
     8    4    5 ar  
     9    4   10 ar  
    10    4   69 1   
    11    5   13 ar  
    12    6   14 1   
    13    6   41 1   
    14    6   42 1   
    15    7   70 1   
    16    8   70 1   
    17    9   70 1   
    18   10   11 ar  
    19   10   43 1   
    20   11   12 ar  
    21   11   44 1   
    22   12   13 ar  
    23   12   45 1   
    24   13   46 1   
    25   14   15 1   
    26   14   22 1   
    27   14   47 1   
    28   15   16 1   
    29   15   48 1   
    30   15   49 1   
    31   16   17 1   
    32   16   50 1   
    33   16   51 1   
    34   17   18 1   
    35   17   21 1   
    36   17   52 1   
    37   18   19 1   
    38   18   20 1   
    39   21   22 1   
    40   21   53 1   
    41   21   54 1   
    42   22   55 1   
    43   22   56 1   
    44   23   24 ar  
    45   23   57 1   
    46   24   25 ar  
    47   24   58 1   
    48   25   26 ar  
    49   25   31 1   
    50   26   27 1   
    51   27   28 1   
    52   27   29 1   
    53   27   30 1   
    54   31   32 2   
    55   31   59 1   
    56   32   33 1   
    57   32   60 1   
    58   33   34 2   
    59   33   35 1   
    60   35   36 1   
    61   35   40 1   
    62   36   37 1   
    63   36   61 1   
    64   36   62 1   
    65   37   38 1   
    66   37   63 1   
    67   37   64 1   
    68   38   39 1   
    69   39   40 1   
    70   39   65 1   
    71   39   66 1   
    72   40   67 1   
    73   40   68 1   
@<TRIPOS>SUBSTRUCTURE
     1 E2M         1 TEMP              0 ****  ****    0 ROOT
