@<TRIPOS>MOLECULE
E2P
   53    51     1     0     0
SMALL
bcc


@<TRIPOS>ATOM
      1 C1         -4.3700   -4.9160   -4.2610 c3        1 E2P     -0.208000
      2 C2         -3.7770   -3.5250   -4.2380 c3        1 E2P     -0.158000
      3 C3         -3.9250   -2.9350   -2.8530 c3        1 E2P     -0.159000
      4 C4         -3.1470   -1.6410   -2.7700 c3        1 E2P     -0.150000
      5 C5         -3.2000   -1.1100   -1.3540 c3        1 E2P     -0.202000
      6 C6         -2.4660    0.2090   -1.2820 c3        1 E2P      0.074000
      7 O6         -3.1030    1.1470   -2.1170 oh        1 E2P     -0.361000
      8 C7         -2.4750    0.7150    0.1430 c2        1 E2P     -0.117000
      9 C8         -1.5510    1.6080    0.5470 c1        1 E2P     -0.199000
     10 C9         -0.5030    2.1040   -0.4240 c1        1 E2P      0.030000
     11 C10        -0.8820    3.0040   -1.5090 c3        1 E2P     -0.146000
     12 C11         0.6380    3.5550   -2.0040 c3        1 E2P     -0.223000
     13 C12         1.5950    2.9880   -0.8220 c2        1 E2P      0.261000
     14 O12         2.8100    2.9910   -0.8230 o         1 E2P     -0.318000
     15 C13         0.7740    2.1450   -0.0610 c2        1 E2P     -0.206000
     16 C14         1.3800    0.9880    0.7040 c3        1 E2P     -0.063000
     17 C15         2.3200    1.5210    1.7630 c2        1 E2P     -0.186000
     18 C16         3.1480    0.6810    2.4130 c1        1 E2P     -0.141000
     19 C17         4.0880    1.2130    3.4720 c2        1 E2P     -0.134000
     20 C18         4.7340    0.0560    4.2010 c3        1 E2P     -0.151000
     21 C19         5.4900    0.5770    5.4040 c3        1 E2P     -0.221000
     22 C20         6.0610   -0.5870    6.1840 c2        1 E2P      0.335000
     23 O21         7.2760   -0.8910    6.0620 o         1 E2P     -0.596500
     24 O20         5.3210   -1.2480    6.9600 o         1 E2P     -0.596500
     25 H13        -4.0010   -5.4410   -3.5200 hc        1 E2P      0.066333
     26 H11        -4.1500   -5.3520   -5.1110 hc        1 E2P      0.066333
     27 H12        -5.3440   -4.8580   -4.1660 hc        1 E2P      0.066333
     28 H21        -2.8290   -3.5710   -4.4740 hc        1 E2P      0.072500
     29 H22        -4.2460   -2.9600   -4.8850 hc        1 E2P      0.072500
     30 H31        -3.5780   -3.5670   -2.1910 hc        1 E2P      0.083000
     31 H32        -4.8700   -2.7600   -2.6720 hc        1 E2P      0.083000
     32 H41        -3.5400   -0.9840   -3.3790 hc        1 E2P      0.075500
     33 H42        -2.2160   -1.8030   -3.0230 hc        1 E2P      0.075500
     34 H51        -4.1320   -0.9790   -1.0890 hc        1 E2P      0.113000
     35 H52        -2.7770   -1.7520   -0.7490 hc        1 E2P      0.113000
     36 H6         -1.5420    0.0850   -1.5780 h1        1 E2P      0.082000
     37 HO6        -3.9350    1.2790   -1.8330 ho        1 E2P      0.258000
     38 H7         -3.1510    0.3940    0.7700 ha        1 E2P      0.195000
     39 H8         -1.5570    1.9340    1.4670 ha        1 E2P      0.130000
     40 H101       -1.6220    3.6170   -1.3270 hc        1 E2P      0.105000
     41 H102       -1.2500    2.4890   -2.2550 hc        1 E2P      0.105000
     42 H78         0.7770    4.5130   -2.1520 hc        1 E2P      0.107000
     43 H79         0.8420    3.1870   -2.8870 hc        1 E2P      0.107000
     44 H141        0.6680    0.4710    1.1300 hc        1 E2P      0.089000
     45 H142        1.8760    0.4140    0.0870 hc        1 E2P      0.089000
     46 H15         2.3310    2.4750    1.9710 ha        1 E2P      0.117000
     47 H16         3.1460   -0.2710    2.1960 ha        1 E2P      0.113000
     48 H171        3.5860    1.7610    4.1080 ha        1 E2P      0.072500
     49 H172        4.7810    1.7590    3.0480 ha        1 E2P      0.072500
     50 H181        5.3540   -0.4030    3.6000 hc        1 E2P      0.087000
     51 H182        4.0430   -0.5700    4.4970 hc        1 E2P      0.087000
     52 H191        4.8820    1.0860    5.9760 hc        1 E2P      0.065000
     53 H192        6.2190    1.1570    5.1050 hc        1 E2P      0.065000
@<TRIPOS>BOND
     1    1    2 1   
     2    1   25 1   
     3    1   26 1   
     4    1   27 1   
     5    2    3 1   
     6    2   28 1   
     7    2   29 1   
     8    3    4 1   
     9    3   30 1   
    10    3   31 1   
    11    4    5 1   
    12    4   32 1   
    13    4   33 1   
    14    5    6 1   
    15    5   34 1   
    16    5   35 1   
    17    6    7 1   
    18    6    8 1   
    19    6   36 1   
    20    7   37 1   
    21    8    9 1   
    22    8   38 1   
    23    9   39 1   
    24   10   11 1   
    25   10   15 1   
    26   11   12 1   
    27   11   40 1   
    28   11   41 1   
    29   12   13 1   
    30   12   42 1   
    31   12   43 1   
    32   13   14 1   
    33   13   15 1   
    34   15   16 1   
    35   16   17 1   
    36   16   44 1   
    37   16   45 1   
    38   17   18 1   
    39   17   46 1   
    40   18   47 1   
    41   19   20 1   
    42   19   48 1   
    43   19   49 1   
    44   20   21 1   
    45   20   50 1   
    46   20   51 1   
    47   21   22 1   
    48   21   52 1   
    49   21   53 1   
    50   22   23 1   
    51   22   24 1   
@<TRIPOS>SUBSTRUCTURE
     1 E2P         1 TEMP              0 ****  ****    0 ROOT
