@<TRIPOS>MOLECULE
E2P
   53    53     1     0     0
SMALL
bcc


@<TRIPOS>ATOM
      1 C1          2.0440   -2.1720   -0.4860 c3        1 E2P     -0.087100
      2 C2          3.4290   -2.3420    0.0840 c3        1 E2P     -0.088400
      3 C3          3.6550   -1.4440    1.2810 c3        1 E2P     -0.064400
      4 C4          5.0280   -1.6720    1.8750 c3        1 E2P     -0.112400
      5 C5          5.2610   -0.7760    3.0710 c3        1 E2P     -0.060400
      6 C6          6.5540   -1.1640    3.7940 c3        1 E2P      0.163300
      7 O6          7.0710    0.0350    4.3640 oh        1 E2P     -0.623800
      8 C7          6.3080   -2.2710    4.7630 c2        1 E2P     -0.145200
      9 C8          6.6300   -2.3700    6.0550 ce        1 E2P     -0.194000
     10 C9          7.2880   -1.4140    6.9140 ce        1 E2P      0.014800
     11 C10         6.5990   -0.1520    7.3640 c3        1 E2P     -0.070200
     12 C11         7.5930    0.5340    8.3050 c3        1 E2P     -0.193400
     13 C12         8.7960   -0.3930    8.3700 c         1 E2P      0.571300
     14 O12         9.8010   -0.1970    9.0570 o         1 E2P     -0.554100
     15 C13         8.5180   -1.5460    7.4810 cf        1 E2P     -0.232400
     16 C14         9.4730   -2.6620    7.3170 c3        1 E2P      0.019000
     17 C15        10.3490   -2.4900    6.1290 c2        1 E2P     -0.187200
     18 C16        10.4670   -3.3200    5.0900 c2        1 E2P     -0.148200
     19 C17         9.7400   -4.5900    4.8550 c3        1 E2P     -0.054200
     20 C18         8.8310   -4.4820    3.6420 c3        1 E2P     -0.061400
     21 C19         8.0050   -5.7300    3.4380 c3        1 E2P     -0.193400
     22 C20         6.8470   -5.4600    2.4650 c         1 E2P      0.912600
     23 O21         6.8700   -6.0120    1.3300 o         1 E2P     -0.856800
     24 O20         5.9040   -4.7000    2.8490 o         1 E2P     -0.856800
     25 H13         1.9040   -2.8380   -1.3710 hc        1 E2P      0.021033
     26 H11         1.8750   -1.1160   -0.8090 hc        1 E2P      0.021033
     27 H12         1.2700   -2.4310    0.2760 hc        1 E2P      0.021033
     28 H21         3.5880   -3.4120    0.3900 hc        1 E2P      0.056200
     29 H22         4.1920   -2.1110   -0.7050 hc        1 E2P      0.056200
     30 H31         3.5410   -0.3700    0.9770 hc        1 E2P      0.021700
     31 H32         2.8710   -1.6520    2.0570 hc        1 E2P      0.021700
     32 H41         5.1410   -2.7570    2.1710 hc        1 E2P      0.082200
     33 H42         5.8100   -1.4680    1.0970 hc        1 E2P      0.082200
     34 H51         4.4000   -0.8490    3.7840 hc        1 E2P      0.038700
     35 H52         5.3390    0.2950    2.7470 hc        1 E2P      0.038700
     36 H6          7.3060   -1.5480    3.0370 h1        1 E2P      0.062700
     37 HO6         7.8760   -0.2100    4.8350 ho        1 E2P      0.401000
     38 H7          5.8390   -3.1560    4.2590 ha        1 E2P      0.219000
     39 H8          6.4130   -3.3270    6.5730 ha        1 E2P      0.138000
     40 H101        5.6450   -0.4020    7.8910 hc        1 E2P      0.075700
     41 H102        6.3500    0.4920    6.4820 hc        1 E2P      0.075700
     42 H78         7.9050    1.5330    7.9140 hc        1 E2P      0.067700
     43 H79         7.1650    0.6760    9.3270 hc        1 E2P      0.067700
     44 H141        8.8950   -3.6250    7.2570 hc        1 E2P      0.055700
     45 H142       10.1280   -2.7140    8.2330 hc        1 E2P      0.055700
     46 H15        10.9550   -1.5670    6.1580 ha        1 E2P      0.110000
     47 H16        11.1690   -3.0580    4.2770 ha        1 E2P      0.108000
     48 H171        9.1280   -4.8860    5.7470 hc        1 E2P      0.037200
     49 H172       10.4890   -5.4110    4.6870 hc        1 E2P      0.037200
     50 H181        9.4470   -4.2820    2.7280 hc        1 E2P      0.041200
     51 H182        8.1360   -3.6090    3.7770 hc        1 E2P      0.041200
     52 H191        7.5690   -6.0670    4.4130 hc        1 E2P      0.025200
     53 H192        8.6450   -6.5560    3.0380 hc        1 E2P      0.025200
@<TRIPOS>BOND
     1    1    2 1   
     2    1   25 1   
     3    1   26 1   
     4    1   27 1   
     5    2    3 1   
     6    2   28 1   
     7    2   29 1   
     8    3    4 1   
     9    3   30 1   
    10    3   31 1   
    11    4    5 1   
    12    4   32 1   
    13    4   33 1   
    14    5    6 1   
    15    5   34 1   
    16    5   35 1   
    17    6    7 1   
    18    6    8 1   
    19    6   36 1   
    20    7   37 1   
    21    8    9 2   
    22    8   38 1   
    23    9   10 1   
    24    9   39 1   
    25   10   11 1   
    26   10   15 2   
    27   11   12 1   
    28   11   40 1   
    29   11   41 1   
    30   12   13 1   
    31   12   42 1   
    32   12   43 1   
    33   13   14 2   
    34   13   15 1   
    35   15   16 1   
    36   16   17 1   
    37   16   44 1   
    38   16   45 1   
    39   17   18 2   
    40   17   46 1   
    41   18   19 1   
    42   18   47 1   
    43   19   20 1   
    44   19   48 1   
    45   19   49 1   
    46   20   21 1   
    47   20   50 1   
    48   20   51 1   
    49   21   22 1   
    50   21   52 1   
    51   21   53 1   
    52   22   23 1   
    53   22   24 1   
@<TRIPOS>SUBSTRUCTURE
     1 E2P         1 TEMP              0 ****  ****    0 ROOT
