@<TRIPOS>MOLECULE
E2P
   53    53     1     0     0
SMALL
bcc


@<TRIPOS>ATOM
      1 C1          1.6070   -1.7960   -0.1620 c3        1 E2P     -0.088100
      2 C2          3.0320   -2.1040    0.2190 c3        1 E2P     -0.085400
      3 C3          3.4710   -1.3100    1.4310 c3        1 E2P     -0.068400
      4 C4          4.8880   -1.6630    1.8260 c3        1 E2P     -0.105400
      5 C5          5.3480   -0.8420    3.0120 c3        1 E2P     -0.058400
      6 C6          6.6310   -1.4290    3.6070 c3        1 E2P      0.153300
      7 O6          7.4250   -0.3210    4.0260 oh        1 E2P     -0.627800
      8 C7          6.3160   -2.4170    4.6790 c2        1 E2P     -0.120200
      9 C8          6.6200   -2.4060    5.9800 ce        1 E2P     -0.207000
     10 C9          7.3090   -1.3960    6.7480 ce        1 E2P      0.022800
     11 C10         6.7250   -0.0230    6.9550 c3        1 E2P     -0.070200
     12 C11         7.7100    0.6980    7.8770 c3        1 E2P     -0.192400
     13 C12         8.8080   -0.3120    8.1680 c         1 E2P      0.573300
     14 O12         9.7760   -0.1090    8.9040 o         1 E2P     -0.557100
     15 C13         8.4790   -1.5510    7.4250 cf        1 E2P     -0.236400
     16 C14         9.3400   -2.7520    7.4720 c3        1 E2P      0.020000
     17 C15        10.4140   -2.7090    6.4460 c2        1 E2P     -0.185200
     18 C16        10.6050   -3.5720    5.4460 c2        1 E2P     -0.149200
     19 C17         9.7930   -4.7630    5.1060 c3        1 E2P     -0.053200
     20 C18         9.0400   -4.5600    3.8020 c3        1 E2P     -0.062400
     21 C19         8.2140   -5.7680    3.4320 c3        1 E2P     -0.193400
     22 C20         7.1860   -5.4300    2.3400 c         1 E2P      0.913600
     23 O21         6.4560   -4.4020    2.4950 o         1 E2P     -0.859300
     24 O20         7.0950   -6.1990    1.3440 o         1 E2P     -0.859300
     25 H13         1.3070   -2.3880   -1.0600 hc        1 E2P      0.022033
     26 H11         0.9120   -2.0490    0.6750 hc        1 E2P      0.022033
     27 H12         1.4860   -0.7110   -0.3980 hc        1 E2P      0.022033
     28 H21         3.7110   -1.8730   -0.6440 hc        1 E2P      0.050700
     29 H22         3.1400   -3.2000    0.4360 hc        1 E2P      0.050700
     30 H31         3.3980   -0.2120    1.2090 hc        1 E2P      0.022200
     31 H32         2.7770   -1.5200    2.2870 hc        1 E2P      0.022200
     32 H41         4.9650   -2.7630    2.0670 hc        1 E2P      0.081200
     33 H42         5.5770   -1.4830    0.9600 hc        1 E2P      0.081200
     34 H51         4.5490   -0.8110    3.7960 hc        1 E2P      0.035200
     35 H52         5.5470    0.2160    2.6970 hc        1 E2P      0.035200
     36 H6          7.1960   -2.0000    2.8030 h1        1 E2P      0.099700
     37 HO6         8.2060   -0.6920    4.4550 ho        1 E2P      0.403000
     38 H7          5.8140   -3.3150    4.2450 ha        1 E2P      0.199000
     39 H8          6.3550   -3.2950    6.5870 ha        1 E2P      0.130000
     40 H101        6.6200    0.5000    5.9680 hc        1 E2P      0.076200
     41 H102        5.7110   -0.0980    7.4190 hc        1 E2P      0.076200
     42 H78         8.1470    1.6010    7.3840 hc        1 E2P      0.066700
     43 H79         7.2260    1.0210    8.8300 hc        1 E2P      0.066700
     44 H141        8.6980   -3.6670    7.3500 hc        1 E2P      0.053700
     45 H142        9.8260   -2.8080    8.4880 hc        1 E2P      0.053700
     46 H15        11.1030   -1.8540    6.5670 ha        1 E2P      0.112000
     47 H16        11.4540   -3.4060    4.7560 ha        1 E2P      0.107000
     48 H171        9.0600   -5.0080    5.9200 hc        1 E2P      0.035700
     49 H172       10.4760   -5.6510    5.0050 hc        1 E2P      0.035700
     50 H181        8.3550   -3.6730    3.9000 hc        1 E2P      0.043200
     51 H182        9.7670   -4.3330    2.9800 hc        1 E2P      0.043200
     52 H191        8.8730   -6.5980    3.0760 hc        1 E2P      0.024200
     53 H192        7.6490   -6.1360    4.3260 hc        1 E2P      0.024200
@<TRIPOS>BOND
     1    1    2 1   
     2    1   25 1   
     3    1   26 1   
     4    1   27 1   
     5    2    3 1   
     6    2   28 1   
     7    2   29 1   
     8    3    4 1   
     9    3   30 1   
    10    3   31 1   
    11    4    5 1   
    12    4   32 1   
    13    4   33 1   
    14    5    6 1   
    15    5   34 1   
    16    5   35 1   
    17    6    7 1   
    18    6    8 1   
    19    6   36 1   
    20    7   37 1   
    21    8    9 2   
    22    8   38 1   
    23    9   10 1   
    24    9   39 1   
    25   10   11 1   
    26   10   15 2   
    27   11   12 1   
    28   11   40 1   
    29   11   41 1   
    30   12   13 1   
    31   12   42 1   
    32   12   43 1   
    33   13   14 2   
    34   13   15 1   
    35   15   16 1   
    36   16   17 1   
    37   16   44 1   
    38   16   45 1   
    39   17   18 2   
    40   17   46 1   
    41   18   19 1   
    42   18   47 1   
    43   19   20 1   
    44   19   48 1   
    45   19   49 1   
    46   20   21 1   
    47   20   50 1   
    48   20   51 1   
    49   21   22 1   
    50   21   52 1   
    51   21   53 1   
    52   22   23 1   
    53   22   24 1   
@<TRIPOS>SUBSTRUCTURE
     1 E2P         1 TEMP              0 ****  ****    0 ROOT
