@<TRIPOS>MOLECULE
E2P
   53    53     1     0     0
SMALL
bcc


@<TRIPOS>ATOM
      1 C1          3.7560    5.2520    1.1210 c3        1 E2P     -0.107100
      2 C2          4.1030    4.0850    0.2330 c3        1 E2P     -0.058400
      3 C3          3.2640    2.8730    0.5830 c3        1 E2P     -0.103400
      4 C4          3.4860    1.7540   -0.4100 c3        1 E2P     -0.072400
      5 C5          2.7790    0.4850    0.0170 c3        1 E2P     -0.107400
      6 C6          3.0610   -0.6580   -0.9540 c3        1 E2P      0.161300
      7 O6          4.4580   -0.8770   -1.1300 oh        1 E2P     -0.604800
      8 C7          2.4130   -1.9380   -0.5310 c2        1 E2P     -0.162200
      9 C8          1.0930   -2.0950   -0.3620 ce        1 E2P     -0.144000
     10 C9          0.4780   -3.3520   -0.0150 ce        1 E2P     -0.017200
     11 C10         1.2810   -4.6260    0.0560 c3        1 E2P     -0.060200
     12 C11         0.2760   -5.7200    0.4200 c3        1 E2P     -0.192400
     13 C12        -1.0600   -5.0120    0.5520 c         1 E2P      0.567300
     14 O12        -2.1240   -5.5590    0.8450 o         1 E2P     -0.541100
     15 C13        -0.8360   -3.5710    0.2660 cf        1 E2P     -0.193400
     16 C14        -1.9470   -2.6020    0.3470 c3        1 E2P      0.006000
     17 C15        -2.1340   -1.8170   -0.9000 c2        1 E2P     -0.207200
     18 C16        -2.0730   -0.4860   -0.9970 c2        1 E2P     -0.140200
     19 C17        -1.7770    0.4550    0.1080 c3        1 E2P     -0.064200
     20 C18        -1.2030    1.7670   -0.3940 c3        1 E2P     -0.066400
     21 C19        -0.8190    2.6720    0.7500 c3        1 E2P     -0.198400
     22 C20        -0.4510    4.0820    0.2580 c         1 E2P      0.909600
     23 O21        -1.1530    4.6150   -0.6460 o         1 E2P     -0.850300
     24 O20         0.5410    4.6480    0.8050 o         1 E2P     -0.850300
     25 H13         4.3190    6.1630    0.8060 hc        1 E2P      0.042367
     26 H11         2.6540    5.4610    1.0600 hc        1 E2P      0.042367
     27 H12         4.0130    5.0270    2.1840 hc        1 E2P      0.042367
     28 H21         3.9170    4.3650   -0.8380 hc        1 E2P      0.017200
     29 H22         5.1930    3.8360    0.3260 hc        1 E2P      0.017200
     30 H31         3.5260    2.5230    1.6150 hc        1 E2P      0.072200
     31 H32         2.1740    3.1760    0.5960 hc        1 E2P      0.072200
     32 H41         3.1080    2.0690   -1.4190 hc        1 E2P      0.035200
     33 H42         4.5840    1.5480   -0.5190 hc        1 E2P      0.035200
     34 H51         3.1140    0.1910    1.0460 hc        1 E2P      0.056700
     35 H52         1.6710    0.6660    0.0600 hc        1 E2P      0.056700
     36 H6          2.7030   -0.3790   -1.9890 h1        1 E2P      0.086700
     37 HO6         4.8690   -0.8150   -0.2600 ho        1 E2P      0.396000
     38 H7          3.1150   -2.7800   -0.4000 ha        1 E2P      0.121000
     39 H8          0.3930   -1.2460   -0.4920 ha        1 E2P      0.161000
     40 H101        1.7720   -4.8340   -0.9270 hc        1 E2P      0.059700
     41 H102        2.0830   -4.5380    0.8310 hc        1 E2P      0.059700
     42 H78         0.5400   -6.2190    1.3840 hc        1 E2P      0.070700
     43 H79         0.2150   -6.5040   -0.3730 hc        1 E2P      0.070700
     44 H141       -2.9020   -3.1630    0.5600 hc        1 E2P      0.063200
     45 H142       -1.7670   -1.9190    1.2240 hc        1 E2P      0.063200
     46 H15        -2.3550   -2.4280   -1.7910 ha        1 E2P      0.112000
     47 H16        -2.2580   -0.0040   -1.9740 ha        1 E2P      0.124000
     48 H171       -2.7260    0.6580    0.6750 hc        1 E2P      0.041700
     49 H172       -1.0540   -0.0030    0.8360 hc        1 E2P      0.041700
     50 H181       -0.3000    1.5610   -1.0270 hc        1 E2P      0.046700
     51 H182       -1.9490    2.2980   -1.0420 hc        1 E2P      0.046700
     52 H191       -1.6760    2.7750    1.4630 hc        1 E2P      0.021700
     53 H192        0.0470    2.2400    1.3140 hc        1 E2P      0.021700
@<TRIPOS>BOND
     1    1    2 1   
     2    1   25 1   
     3    1   26 1   
     4    1   27 1   
     5    2    3 1   
     6    2   28 1   
     7    2   29 1   
     8    3    4 1   
     9    3   30 1   
    10    3   31 1   
    11    4    5 1   
    12    4   32 1   
    13    4   33 1   
    14    5    6 1   
    15    5   34 1   
    16    5   35 1   
    17    6    7 1   
    18    6    8 1   
    19    6   36 1   
    20    7   37 1   
    21    8    9 2   
    22    8   38 1   
    23    9   10 1   
    24    9   39 1   
    25   10   11 1   
    26   10   15 2   
    27   11   12 1   
    28   11   40 1   
    29   11   41 1   
    30   12   13 1   
    31   12   42 1   
    32   12   43 1   
    33   13   14 2   
    34   13   15 1   
    35   15   16 1   
    36   16   17 1   
    37   16   44 1   
    38   16   45 1   
    39   17   18 2   
    40   17   46 1   
    41   18   19 1   
    42   18   47 1   
    43   19   20 1   
    44   19   48 1   
    45   19   49 1   
    46   20   21 1   
    47   20   50 1   
    48   20   51 1   
    49   21   22 1   
    50   21   52 1   
    51   21   53 1   
    52   22   23 1   
    53   22   24 1   
@<TRIPOS>SUBSTRUCTURE
     1 E2P         1 TEMP              0 ****  ****    0 ROOT
