@<TRIPOS>MOLECULE
E2Z
   42    44     1     0     0
SMALL
bcc


@<TRIPOS>ATOM
      1 N01         0.2700   -1.8540    0.3890 nc        1 E2Z     -0.638000
      2 C02         1.5700   -1.5530    0.4160 cd        1 E2Z      0.427400
      3 N03         1.8330   -0.5160    1.3570 na        1 E2Z     -0.269700
      4 C04         0.5860   -0.1780    1.9340 cd        1 E2Z     -0.200600
      5 C05        -0.3550   -1.0100    1.3250 cc        1 E2Z      0.310200
      6 C1'         8.0610   -3.4970   -4.6380 ca        1 E2Z     -0.101300
      7 N11         3.1230    1.0500    2.6310 nb        1 E2Z     -0.690000
      8 C12         3.0790    0.0570    1.6550 ca        1 E2Z      0.786500
      9 N13         4.1810   -0.4070    0.9540 nb        1 E2Z     -0.763000
     10 C14         5.3720    0.1610    1.2580 ca        1 E2Z      0.451600
     11 C15         5.5070    1.1690    2.2280 ca        1 E2Z     -0.384600
     12 C16         4.3260    1.5730    2.8890 ca        1 E2Z      0.481200
     13 C17         6.6190   -0.3070    0.5580 c3        1 E2Z     -0.157700
     14 C18         6.3070   -1.1250   -0.6910 c3        1 E2Z      0.111800
     15 N19         7.5450   -1.5330   -1.4250 ny        1 E2Z     -0.766000
     16 C2'         7.6110   -2.7810   -5.7510 ca        1 E2Z     -0.168000
     17 C20         7.2230   -2.3280   -2.6490 c3        1 E2Z      0.101800
     18 C21         8.4750   -2.7600   -3.4120 c3        1 E2Z     -0.051100
     19 C3'         7.2390   -3.4750   -6.9160 ca        1 E2Z      0.146900
     20 C4'         7.3210   -4.8810   -6.9630 ca        1 E2Z     -0.136000
     21 C5'         7.7750   -5.5740   -5.8460 ca        1 E2Z     -0.091000
     22 C6'         8.1440   -4.8910   -4.6860 ca        1 E2Z     -0.129000
     23 F7'         6.8010   -2.7860   -7.9930 f         1 E2Z     -0.119900
     24 H02         2.3590   -2.0170   -0.1830 h5        1 E2Z      0.066100
     25 H04         0.4860    0.5950    2.6970 h4        1 E2Z      0.207000
     26 H05        -1.4320   -1.0600    1.4940 h4        1 E2Z      0.063100
     27 H15         6.4750    1.6230    2.4690 ha        1 E2Z      0.167000
     28 H16         4.3480    2.3620    3.6680 h4        1 E2Z      0.056100
     29 H17         7.2270    0.6000    0.2920 hc        1 E2Z      0.080700
     30 H17A        7.2100   -0.9210    1.2920 hc        1 E2Z      0.080700
     31 H18         5.7490   -2.0670   -0.4140 hx        1 E2Z      0.123200
     32 H18A        5.6660   -0.5260   -1.4000 hx        1 E2Z      0.123200
     33 HN19        8.1410   -2.0930   -0.8050 hn        1 E2Z      0.447300
     34 H2'         7.5580   -1.6830   -5.7370 ha        1 E2Z      0.145000
     35 H20         6.6330   -3.2350   -2.3290 hx        1 E2Z      0.114200
     36 H20A        6.5690   -1.6930   -3.3160 hx        1 E2Z      0.114200
     37 H21         9.1170   -3.4180   -2.7660 hc        1 E2Z      0.072200
     38 H21A        9.0860   -1.8630   -3.7030 hc        1 E2Z      0.072200
     39 H4'         7.0300   -5.4130   -7.8830 ha        1 E2Z      0.171000
     40 H5'         7.8480   -6.6730   -5.8800 ha        1 E2Z      0.159000
     41 H6'         8.5100   -5.4570   -3.8160 ha        1 E2Z      0.140000
     42 H192        8.0740   -0.6960   -1.6940 hn        1 E2Z      0.447300
@<TRIPOS>BOND
     1    1    2 2   
     2    1    5 1   
     3    2    3 1   
     4    2   24 1   
     5    3    4 1   
     6    3    8 1   
     7    4    5 2   
     8    4   25 1   
     9    5   26 1   
    10    6   16 ar  
    11    6   18 1   
    12    6   22 ar  
    13    7    8 ar  
    14    7   12 ar  
    15    8    9 ar  
    16    9   10 ar  
    17   10   11 ar  
    18   10   13 1   
    19   11   12 ar  
    20   11   27 1   
    21   12   28 1   
    22   13   14 1   
    23   13   29 1   
    24   13   30 1   
    25   14   15 1   
    26   14   31 1   
    27   14   32 1   
    28   15   17 1   
    29   15   33 1   
    30   15   42 1   
    31   16   19 ar  
    32   16   34 1   
    33   17   18 1   
    34   17   35 1   
    35   17   36 1   
    36   18   37 1   
    37   18   38 1   
    38   19   20 ar  
    39   19   23 1   
    40   20   21 ar  
    41   20   39 1   
    42   21   22 ar  
    43   21   40 1   
    44   22   41 1   
@<TRIPOS>SUBSTRUCTURE
     1 E2Z         1 TEMP              0 ****  ****    0 ROOT
