@<TRIPOS>MOLECULE
E2Z
   42    44     1     0     0
SMALL
bcc


@<TRIPOS>ATOM
      1 N01         0.2680   -1.8310    0.3570 nc        1 E2Z     -0.638000
      2 C02         1.5680   -1.5300    0.3880 cd        1 E2Z      0.427400
      3 N03         1.8330   -0.5100    1.3470 na        1 E2Z     -0.269700
      4 C04         0.5860   -0.1820    1.9320 cd        1 E2Z     -0.200600
      5 C05        -0.3550   -1.0030    1.3090 cc        1 E2Z      0.310200
      6 C1'         8.0610   -3.4990   -4.6360 ca        1 E2Z     -0.101300
      7 N11         3.1240    1.0350    2.6440 nb        1 E2Z     -0.690000
      8 C12         3.0790    0.0580    1.6530 ca        1 E2Z      0.786500
      9 N13         4.1800   -0.3960    0.9450 nb        1 E2Z     -0.763000
     10 C14         5.3720    0.1670    1.2570 ca        1 E2Z      0.452600
     11 C15         5.5080    1.1590    2.2430 ca        1 E2Z     -0.384600
     12 C16         4.3270    1.5540    2.9100 ca        1 E2Z      0.481200
     13 C17         6.6180   -0.2890    0.5480 c3        1 E2Z     -0.157700
     14 C18         6.3070   -1.1170   -0.6940 c3        1 E2Z      0.111800
     15 N19         7.5450   -1.5160   -1.4330 n4        1 E2Z     -0.767000
     16 C2'         7.5940   -2.7980   -5.7510 ca        1 E2Z     -0.168000
     17 C20         7.2230   -2.3240   -2.6500 c3        1 E2Z      0.101800
     18 C21         8.4760   -2.7470   -3.4180 c3        1 E2Z     -0.051100
     19 C3'         7.2210   -3.5060   -6.9070 ca        1 E2Z      0.146900
     20 C4'         7.3210   -4.9120   -6.9430 ca        1 E2Z     -0.136000
     21 C5'         7.7920   -5.5890   -5.8240 ca        1 E2Z     -0.091000
     22 C6'         8.1610   -4.8920   -4.6720 ca        1 E2Z     -0.129000
     23 F7'         6.7660   -2.8310   -7.9860 f         1 E2Z     -0.119900
     24 H02         2.3560   -1.9830   -0.2210 h5        1 E2Z      0.066100
     25 H04         0.4880    0.5770    2.7080 h4        1 E2Z      0.207000
     26 H05        -1.4320   -1.0570    1.4790 h4        1 E2Z      0.063100
     27 H15         6.4760    1.6090    2.4900 ha        1 E2Z      0.167000
     28 H16         4.3500    2.3300    3.7010 h4        1 E2Z      0.056100
     29 H17         7.2120    0.6260    0.2720 hc        1 E2Z      0.080700
     30 H17A        7.2240   -0.8910    1.2790 hc        1 E2Z      0.080700
     31 H18         5.7600   -2.0630   -0.4080 hx        1 E2Z      0.123200
     32 H18A        5.6560   -0.5280   -1.4030 hx        1 E2Z      0.123200
     33 HN19        8.1510   -2.0650   -0.8130 hn        1 E2Z      0.446800
     34 H2'         7.5270   -1.7000   -5.7450 ha        1 E2Z      0.145000
     35 H20         6.6480   -3.2360   -2.3190 hx        1 E2Z      0.113700
     36 H20A        6.5580   -1.7020   -3.3160 hx        1 E2Z      0.113700
     37 H21         9.0720   -1.8440   -3.7210 hc        1 E2Z      0.072200
     38 H21A        9.1300   -3.3910   -2.7720 hc        1 E2Z      0.072200
     39 H4'         7.0290   -5.4550   -7.8560 ha        1 E2Z      0.171000
     40 H5'         7.8790   -6.6880   -5.8490 ha        1 E2Z      0.159000
     41 H6'         8.5410   -5.4460   -3.8000 ha        1 E2Z      0.140000
     42 H192        8.0630   -0.6760   -1.7120 hn        1 E2Z      0.446800
@<TRIPOS>BOND
     1    1    2 2   
     2    1    5 1   
     3    2    3 1   
     4    2   24 1   
     5    3    4 1   
     6    3    8 1   
     7    4    5 2   
     8    4   25 1   
     9    5   26 1   
    10    6   16 ar  
    11    6   18 1   
    12    6   22 ar  
    13    7    8 ar  
    14    7   12 ar  
    15    8    9 ar  
    16    9   10 ar  
    17   10   11 ar  
    18   10   13 1   
    19   11   12 ar  
    20   11   27 1   
    21   12   28 1   
    22   13   14 1   
    23   13   29 1   
    24   13   30 1   
    25   14   15 1   
    26   14   31 1   
    27   14   32 1   
    28   15   17 1   
    29   15   33 1   
    30   15   42 1   
    31   16   19 ar  
    32   16   34 1   
    33   17   18 1   
    34   17   35 1   
    35   17   36 1   
    36   18   37 1   
    37   18   38 1   
    38   19   20 ar  
    39   19   23 1   
    40   20   21 ar  
    41   20   39 1   
    42   21   22 ar  
    43   21   40 1   
    44   22   41 1   
@<TRIPOS>SUBSTRUCTURE
     1 E2Z         1 TEMP              0 ****  ****    0 ROOT
