@<TRIPOS>MOLECULE
E30
   19    20     1     0     0
SMALL
bcc


@<TRIPOS>ATOM
      1 N11        -0.0370   -0.1180   -0.0290 nh        1 E30     -0.834200
      2 C12         1.3470   -0.0200   -0.0050 ca        1 E30      0.184600
      3 C13         2.0730   -0.2570    1.1900 ca        1 E30     -0.207000
      4 C14         3.4590   -0.2430    1.1900 ca        1 E30     -0.048500
      5 C15         4.1710    0.0100    0.0060 ca        1 E30     -0.202500
      6 C16         3.4630    0.2570   -1.1780 ca        1 E30     -0.048500
      7 C17         2.0770    0.2470   -1.1910 ca        1 E30     -0.207000
      8 C18         5.6200    0.0210    0.0340 cc        1 E30      0.471000
      9 N19         6.4730   -0.1370   -1.0800 na        1 E30     -0.189400
     10 N20         7.7410   -0.0740   -0.6480 nc        1 E30     -0.200800
     11 N21         7.7100    0.1050    0.6220 nd        1 E30     -0.048000
     12 N22         6.4710    0.1720    1.1030 nd        1 E30     -0.383000
     13 H11        -0.4950    0.3230   -0.7910 hn        1 E30      0.407300
     14 H13         1.5370   -0.4600    2.1300 ha        1 E30      0.139500
     15 H17         1.5440    0.4440   -2.1330 ha        1 E30      0.139500
     16 H14         4.0040   -0.4300    2.1300 ha        1 E30      0.143000
     17 H16         3.9980    0.4770   -2.1150 ha        1 E30      0.143000
     18 H19         6.2360   -0.2810   -2.0330 hn        1 E30      0.330700
     19 H2         -0.4970   -0.0320    0.8470 hn        1 E30      0.407300
@<TRIPOS>BOND
     1    1    2 1   
     2    1   13 1   
     3    1   19 1   
     4    2    3 ar  
     5    2    7 ar  
     6    3    4 ar  
     7    3   14 1   
     8    4    5 ar  
     9    4   16 1   
    10    5    6 ar  
    11    5    8 1   
    12    6    7 ar  
    13    6   17 1   
    14    7   15 1   
    15    8    9 1   
    16    8   12 2   
    17    9   10 1   
    18    9   18 1   
    19   10   11 2   
    20   11   12 1   
@<TRIPOS>SUBSTRUCTURE
     1 E30         1 TEMP              0 ****  ****    0 ROOT
