@<TRIPOS>MOLECULE
E34
   25    25     1     0     0
SMALL
bcc


@<TRIPOS>ATOM
      1 O8         -0.1160    0.2310    0.0660 o         1 E34     -0.555000
      2 C4          1.1090    0.1000   -0.0390 c         1 E34      0.652700
      3 O7          1.8410    0.0090    1.1160 os        1 E34     -0.442900
      4 C11         1.0970    0.0750    2.3460 c3        1 E34      0.140400
      5 C13         2.1110   -0.0460    3.4580 c3        1 E34     -0.100100
      6 C1          1.9070    0.0280   -1.2680 ca        1 E34     -0.152600
      7 C3          3.2980   -0.1000   -1.2340 ca        1 E34     -0.057000
      8 C6          4.0160   -0.1730   -2.4190 ca        1 E34     -0.197000
      9 C9          3.3730   -0.1170   -3.6750 ca        1 E34      0.147600
     10 N12         4.1270   -0.1140   -4.8530 nv        1 E34     -0.815200
     11 C5          1.9430    0.0280   -3.7100 ca        1 E34      0.043600
     12 N10         1.2560    0.0160   -4.9440 nv        1 E34     -0.800200
     13 C2          1.2420    0.0970   -2.4960 ca        1 E34     -0.098000
     14 H1          0.5480    1.0520    2.3830 h1        1 E34      0.051700
     15 H2          0.3530   -0.7640    2.3620 h1        1 E34      0.051700
     16 H3          2.8530    0.7850    3.4050 hc        1 E34      0.047367
     17 H4          1.5800   -0.0010    4.4390 hc        1 E34      0.047367
     18 H5          2.6610   -1.0140    3.3850 hc        1 E34      0.047367
     19 H6          3.8200   -0.1470   -0.2650 ha        1 E34      0.154000
     20 H7          5.1110   -0.2760   -2.3720 ha        1 E34      0.136000
     21 H8          3.6910   -0.5630   -5.6300 hn        1 E34      0.395300
     22 H9          5.0730   -0.4010   -4.7250 hn        1 E34      0.395300
     23 H10         1.6150    0.6990   -5.5810 hn        1 E34      0.376800
     24 H11         0.2700    0.1300   -4.8250 hn        1 E34      0.376800
     25 H12         0.1420    0.2010   -2.4900 ha        1 E34      0.155000
@<TRIPOS>BOND
     1    1    2 2   
     2    2    3 1   
     3    2    6 1   
     4    3    4 1   
     5    4    5 1   
     6    4   14 1   
     7    4   15 1   
     8    5   16 1   
     9    5   17 1   
    10    5   18 1   
    11    6    7 ar  
    12    6   13 ar  
    13    7    8 ar  
    14    7   19 1   
    15    8    9 ar  
    16    8   20 1   
    17    9   10 1   
    18    9   11 ar  
    19   10   21 1   
    20   10   22 1   
    21   11   12 1   
    22   11   13 ar  
    23   12   23 1   
    24   12   24 1   
    25   13   25 1   
@<TRIPOS>SUBSTRUCTURE
     1 E34         1 TEMP              0 ****  ****    0 ROOT
