@<TRIPOS>MOLECULE
E34
   25    25     1     0     0
SMALL
bcc


@<TRIPOS>ATOM
      1 O8         -1.8110   -1.8670   -0.0300 o         1 E34     -0.555000
      2 C4         -1.4460   -0.6860   -0.0110 c         1 E34      0.652700
      3 O7         -2.4170    0.2810    0.0010 os        1 E34     -0.442900
      4 C11        -3.7790   -0.1860   -0.0110 c3        1 E34      0.140400
      5 C13        -4.6470    1.0480    0.0040 c3        1 E34     -0.100100
      6 C1         -0.0740   -0.1660    0.0030 ca        1 E34     -0.152600
      7 C3          0.1910    1.2050    0.0480 ca        1 E34     -0.057000
      8 C6          1.5020    1.6570    0.0510 ca        1 E34     -0.197000
      9 C9          2.5920    0.7590    0.0130 ca        1 E34      0.147600
     10 N12         3.9020    1.2380    0.0950 nh        1 E34     -0.815200
     11 C5          2.3190   -0.6510   -0.0200 ca        1 E34      0.043600
     12 N10         3.3780   -1.5790   -0.1310 nh        1 E34     -0.800200
     13 C2          0.9820   -1.0810   -0.0250 ca        1 E34     -0.098000
     14 H1         -3.9390   -0.8010   -0.9350 h1        1 E34      0.051700
     15 H2         -3.9470   -0.8300    0.8910 h1        1 E34      0.051700
     16 H3         -5.7190    0.7380   -0.0040 hc        1 E34      0.047367
     17 H4         -4.4500    1.6560    0.9200 hc        1 E34      0.047367
     18 H5         -4.4430    1.6840   -0.8900 hc        1 E34      0.047367
     19 H6         -0.6440    1.9240    0.0770 ha        1 E34      0.154000
     20 H7          1.6910    2.7420    0.0840 ha        1 E34      0.136000
     21 H8          3.9840    2.2180   -0.0710 hn        1 E34      0.395300
     22 H9          4.5760    0.7060   -0.4130 hn        1 E34      0.395300
     23 H10         4.0670   -1.4510    0.5840 hn        1 E34      0.376800
     24 H11         3.0500   -2.5240   -0.1380 hn        1 E34      0.376800
     25 H12         0.7410   -2.1580   -0.0580 ha        1 E34      0.155000
@<TRIPOS>BOND
     1    1    2 2   
     2    2    3 1   
     3    2    6 1   
     4    3    4 1   
     5    4    5 1   
     6    4   14 1   
     7    4   15 1   
     8    5   16 1   
     9    5   17 1   
    10    5   18 1   
    11    6    7 ar  
    12    6   13 ar  
    13    7    8 ar  
    14    7   19 1   
    15    8    9 ar  
    16    8   20 1   
    17    9   10 1   
    18    9   11 ar  
    19   10   21 1   
    20   10   22 1   
    21   11   12 1   
    22   11   13 ar  
    23   12   23 1   
    24   12   24 1   
    25   13   25 1   
@<TRIPOS>SUBSTRUCTURE
     1 E34         1 TEMP              0 ****  ****    0 ROOT
