@<TRIPOS>MOLECULE
E34
   25    25     1     0     0
SMALL
bcc


@<TRIPOS>ATOM
      1 O8         -0.1020   -0.3250    0.0740 o         1 E34     -0.555000
      2 C4          1.1160   -0.1480   -0.0350 c         1 E34      0.652700
      3 O7          1.8460   -0.0120    1.1170 os        1 E34     -0.442900
      4 C11         1.1080   -0.0900    2.3500 c3        1 E34      0.140400
      5 C13         2.1180    0.0840    3.4580 c3        1 E34     -0.100100
      6 C1          1.9090   -0.0620   -1.2660 ca        1 E34     -0.152600
      7 C3          3.2930    0.1210   -1.2380 ca        1 E34     -0.057000
      8 C6          4.0050    0.2050   -2.4260 ca        1 E34     -0.197000
      9 C9          3.3630    0.1060   -3.6790 ca        1 E34      0.147600
     10 N12         4.1140    0.1160   -4.8580 nh        1 E34     -0.815200
     11 C5          1.9400   -0.0960   -3.7080 ca        1 E34      0.043600
     12 N10         1.2510   -0.1290   -4.9410 nh        1 E34     -0.800200
     13 C2          1.2440   -0.1750   -2.4920 ca        1 E34     -0.098000
     14 H1          0.3330    0.7200    2.3570 h1        1 E34      0.051700
     15 H2          0.5960   -1.0870    2.4010 h1        1 E34      0.051700
     16 H3          1.5910    0.0310    4.4410 hc        1 E34      0.047367
     17 H4          2.6310    1.0710    3.3700 hc        1 E34      0.047367
     18 H5          2.8920   -0.7190    3.4140 hc        1 E34      0.047367
     19 H6          3.8150    0.2030   -0.2710 ha        1 E34      0.154000
     20 H7          5.0960    0.3530   -2.3830 ha        1 E34      0.136000
     21 H8          5.0490    0.4420   -4.7370 hn        1 E34      0.395300
     22 H9          3.6600    0.5360   -5.6410 hn        1 E34      0.395300
     23 H10         1.6360   -0.8060   -5.5690 hn        1 E34      0.376800
     24 H11         0.2700   -0.2810   -4.8180 hn        1 E34      0.376800
     25 H12         0.1500   -0.3230   -2.4820 ha        1 E34      0.155000
@<TRIPOS>BOND
     1    1    2 2   
     2    2    3 1   
     3    2    6 1   
     4    3    4 1   
     5    4    5 1   
     6    4   14 1   
     7    4   15 1   
     8    5   16 1   
     9    5   17 1   
    10    5   18 1   
    11    6    7 ar  
    12    6   13 ar  
    13    7    8 ar  
    14    7   19 1   
    15    8    9 ar  
    16    8   20 1   
    17    9   10 1   
    18    9   11 ar  
    19   10   21 1   
    20   10   22 1   
    21   11   12 1   
    22   11   13 ar  
    23   12   23 1   
    24   12   24 1   
    25   13   25 1   
@<TRIPOS>SUBSTRUCTURE
     1 E34         1 TEMP              0 ****  ****    0 ROOT
