@<TRIPOS>MOLECULE
E34
   27    27     1     0     0
SMALL
bcc


@<TRIPOS>ATOM
      1 O8         -0.1390   -0.0060    0.0200 o         1 E34     -0.481000
      2 C4          1.0920   -0.0070    0.0100 c         1 E34      0.628700
      3 O7          1.8230   -0.0040    1.1420 os        1 E34     -0.423900
      4 C11         1.0720    0.0000    2.3960 c3        1 E34      0.147400
      5 C13         2.1120    0.0030    3.4850 c3        1 E34     -0.113100
      6 C1          1.9160   -0.0110   -1.2340 ca        1 E34     -0.041600
      7 C3          3.3070   -0.0120   -1.2040 ca        1 E34      0.000000
      8 C6          4.0290   -0.0160   -2.4060 ca        1 E34     -0.069000
      9 C9          3.3670   -0.0190   -3.6410 ca        1 E34     -0.032400
     10 N12         4.1810   -0.0230   -4.8580 n4        1 E34     -0.720000
     11 C5          1.9390   -0.0180   -3.6700 ca        1 E34     -0.057400
     12 N10         1.1650   -0.0210   -4.9120 n4        1 E34     -0.717000
     13 C2          1.2320   -0.0140   -2.4620 ca        1 E34     -0.028000
     14 H1          0.4300    0.9180    2.4080 h1        1 E34      0.076700
     15 H2          0.4290   -0.9170    2.4130 h1        1 E34      0.076700
     16 H3          2.7600    0.9090    3.4180 hc        1 E34      0.068700
     17 H4          2.7590   -0.9050    3.4230 hc        1 E34      0.068700
     18 H5          1.5870    0.0060    4.4730 hc        1 E34      0.068700
     19 H6          3.8430   -0.0090   -0.2290 ha        1 E34      0.235000
     20 H7          5.1370   -0.0160   -2.3450 ha        1 E34      0.200000
     21 H8          4.0030   -0.8670   -5.4170 hn        1 E34      0.481800
     22 H9          4.0040    0.8180   -5.4220 hn        1 E34      0.481800
     23 H10         1.3600    0.8200   -5.4700 hn        1 E34      0.482133
     24 H11         1.3590   -0.8660   -5.4650 hn        1 E34      0.482133
     25 H12         0.1190   -0.0130   -2.4210 ha        1 E34      0.221000
     26 H123        5.1850   -0.0230   -4.5990 hn        1 E34      0.481800
     27 H103        0.1530   -0.0200   -4.6820 hn        1 E34      0.482133
@<TRIPOS>BOND
     1    1    2 2   
     2    2    3 1   
     3    2    6 1   
     4    3    4 1   
     5    4    5 1   
     6    4   14 1   
     7    4   15 1   
     8    5   16 1   
     9    5   17 1   
    10    5   18 1   
    11    6    7 ar  
    12    6   13 ar  
    13    7    8 ar  
    14    7   19 1   
    15    8    9 ar  
    16    8   20 1   
    17    9   10 1   
    18    9   11 ar  
    19   10   21 1   
    20   10   22 1   
    21   10   26 1   
    22   11   12 1   
    23   11   13 ar  
    24   12   23 1   
    25   12   24 1   
    26   12   27 1   
    27   13   25 1   
@<TRIPOS>SUBSTRUCTURE
     1 E34         1 TEMP              0 ****  ****    0 ROOT
