@<TRIPOS>MOLECULE
E34
   25    21     1     0     0
SMALL
bcc


@<TRIPOS>ATOM
      1 O8         -2.4070   -0.3120    0.8910 o         1 E34     -0.364000
      2 C4         -1.2480    0.0140    0.9220 c1        1 E34      0.353000
      3 O7         -0.6400    0.3860    2.1680 os        1 E34     -0.284000
      4 C11        -1.5870    0.7630    3.1910 c3        1 E34     -0.010000
      5 C13        -0.9240    0.6450    4.5760 c3        1 E34     -0.218000
      6 C1         -0.4310    0.0270   -0.3560 c1        1 E34     -0.131000
      7 C3         -0.6950    0.9740   -1.3390 c2        1 E34     -0.060000
      8 C6          0.0160    0.9580   -2.5230 c1        1 E34     -0.194000
      9 C9          0.9930   -0.0010   -2.7330 c1        1 E34      0.065000
     10 N12         1.6590   -0.0720   -3.9900 n2        1 E34     -0.316000
     11 C5          1.2610   -0.9500   -1.7520 c1        1 E34     -0.040000
     12 N10         2.1840   -2.0150   -2.0220 n2        1 E34     -0.316000
     13 C2          0.5500   -0.9360   -0.5650 c2        1 E34     -0.094000
     14 H1         -1.8760    1.6920    3.0440 h1        1 E34      0.091000
     15 H2         -2.3620    0.1730    3.1500 h1        1 E34      0.091000
     16 H3         -1.5650    0.9400    5.2770 hc        1 E34      0.086000
     17 H4         -0.6670   -0.2930    4.7390 hc        1 E34      0.086000
     18 H5         -0.1290    1.2090    4.6060 hc        1 E34      0.086000
     19 H6         -1.3890    1.6550   -1.1910 ha        1 E34      0.157000
     20 H7         -0.1720    1.6280   -3.2190 ha        1 E34      0.137000
     21 H8          2.5530   -0.2790   -4.0250 hn        1 E34      0.181250
     22 H9          1.2000    0.1130   -4.7630 hn        1 E34      0.181250
     23 H10         2.0500   -2.5630   -2.7400 hn        1 E34      0.181250
     24 H11         2.8930   -2.1610   -1.4600 hn        1 E34      0.181250
     25 H12         0.7340   -1.5930    0.1150 ha        1 E34      0.152000
@<TRIPOS>BOND
     1    1    2 1   
     2    2    3 1   
     3    3    4 1   
     4    4    5 1   
     5    4   14 1   
     6    4   15 1   
     7    5   16 1   
     8    5   17 1   
     9    5   18 1   
    10    6    7 1   
    11    6   13 1   
    12    7    8 1   
    13    7   19 1   
    14    8   20 1   
    15    9   11 1   
    16   10   21 1   
    17   10   22 1   
    18   11   13 1   
    19   12   23 1   
    20   12   24 1   
    21   13   25 1   
@<TRIPOS>SUBSTRUCTURE
     1 E34         1 TEMP              0 ****  ****    0 ROOT
