@<TRIPOS>MOLECULE
E35
   23    23     1     0     0
SMALL
bcc


@<TRIPOS>ATOM
      1 C01         0.0820   -0.0460    0.0730 c3        1 E35     -0.101100
      2 C02         1.5840    0.0650   -0.0210 c3        1 E35      0.140400
      3 O03         2.0740    0.0100    1.3330 os        1 E35     -0.435900
      4 C04         3.4300    0.0950    1.4880 c         1 E35      0.645700
      5 O05         4.1260    0.2100    0.4750 o         1 E35     -0.544000
      6 C06         3.8860    0.0350    2.8890 ca        1 E35     -0.061600
      7 C07         5.2630    0.1150    3.1320 ca        1 E35     -0.165500
      8 C08         5.7240    0.0600    4.4520 ca        1 E35      0.146100
      9 O09         7.0590    0.1330    4.7740 oh        1 E35     -0.492600
     10 C10         4.8350   -0.0720    5.5310 ca        1 E35     -0.217000
     11 C11         3.4660   -0.1500    5.2550 ca        1 E35      0.146100
     12 O12         2.5230   -0.2810    6.2460 oh        1 E35     -0.492600
     13 C13         2.9760   -0.0980    3.9370 ca        1 E35     -0.165500
     14 H1         -0.2110   -1.0070    0.5590 hc        1 E35      0.049033
     15 H2         -0.3370    0.7940    0.6770 hc        1 E35      0.049033
     16 H3         -0.3490   -0.0090   -0.9560 hc        1 E35      0.049033
     17 H4          2.0340   -0.7840   -0.5990 h1        1 E35      0.052700
     18 H5          1.9070    1.0350   -0.4800 h1        1 E35      0.052700
     19 H6          5.9620    0.2190    2.2880 ha        1 E35      0.168500
     20 H7          7.5610    0.2220    3.9500 ho        1 E35      0.425500
     21 H8          5.2210   -0.1130    6.5580 ha        1 E35      0.157000
     22 H9          2.9830   -0.3050    7.0980 ho        1 E35      0.425500
     23 H10         1.8940   -0.1610    3.7480 ha        1 E35      0.168500
@<TRIPOS>BOND
     1    1    2 1   
     2    1   14 1   
     3    1   15 1   
     4    1   16 1   
     5    2    3 1   
     6    2   17 1   
     7    2   18 1   
     8    3    4 1   
     9    4    5 2   
    10    4    6 1   
    11    6    7 ar  
    12    6   13 ar  
    13    7    8 ar  
    14    7   19 1   
    15    8    9 1   
    16    8   10 ar  
    17    9   20 1   
    18   10   11 ar  
    19   10   21 1   
    20   11   12 1   
    21   11   13 ar  
    22   12   22 1   
    23   13   23 1   
@<TRIPOS>SUBSTRUCTURE
     1 E35         1 TEMP              0 ****  ****    0 ROOT
