@<TRIPOS>MOLECULE
E35
   23    23     1     0     0
SMALL
bcc


@<TRIPOS>ATOM
      1 C01         0.0720    0.0160    0.0850 c3        1 E35     -0.101100
      2 C02         1.5760    0.0930   -0.0150 c3        1 E35      0.140400
      3 O03         2.0700    0.0310    1.3370 os        1 E35     -0.435900
      4 C04         3.4280    0.0860    1.4870 c         1 E35      0.645700
      5 O05         4.1220    0.1840    0.4710 o         1 E35     -0.544000
      6 C06         3.8870    0.0200    2.8860 ca        1 E35     -0.061600
      7 C07         5.2670    0.0730    3.1240 ca        1 E35     -0.165500
      8 C08         5.7310    0.0120    4.4430 ca        1 E35      0.146100
      9 O09         7.0690    0.0580    4.7590 oh        1 E35     -0.492600
     10 C10         4.8440   -0.1010    5.5250 ca        1 E35     -0.217000
     11 C11         3.4730   -0.1520    5.2540 ca        1 E35      0.146100
     12 O12         2.5300   -0.2620    6.2490 oh        1 E35     -0.492600
     13 C13         2.9790   -0.0920    3.9380 ca        1 E35     -0.165500
     14 H1         -0.2410   -0.9370    0.5740 hc        1 E35      0.049033
     15 H2         -0.3260    0.8670    0.6870 hc        1 E35      0.049033
     16 H3         -0.3620    0.0600   -0.9430 hc        1 E35      0.049033
     17 H4          2.0040   -0.7670   -0.5930 h1        1 E35      0.052700
     18 H5          1.9190    1.0540   -0.4780 h1        1 E35      0.052700
     19 H6          5.9640    0.1620    2.2770 ha        1 E35      0.168500
     20 H7          7.5690    0.1350    3.9330 ho        1 E35      0.425500
     21 H8          5.2330   -0.1470    6.5510 ha        1 E35      0.157000
     22 H9          2.9930   -0.2930    7.1000 ho        1 E35      0.425500
     23 H10         1.8950   -0.1340    3.7530 ha        1 E35      0.168500
@<TRIPOS>BOND
     1    1    2 1   
     2    1   14 1   
     3    1   15 1   
     4    1   16 1   
     5    2    3 1   
     6    2   17 1   
     7    2   18 1   
     8    3    4 1   
     9    4    5 2   
    10    4    6 1   
    11    6    7 ar  
    12    6   13 ar  
    13    7    8 ar  
    14    7   19 1   
    15    8    9 1   
    16    8   10 ar  
    17    9   20 1   
    18   10   11 ar  
    19   10   21 1   
    20   11   12 1   
    21   11   13 ar  
    22   12   22 1   
    23   13   23 1   
@<TRIPOS>SUBSTRUCTURE
     1 E35         1 TEMP              0 ****  ****    0 ROOT
