@<TRIPOS>MOLECULE
E35
   23    17     1     0     0
SMALL
bcc


@<TRIPOS>ATOM
      1 C01        -2.6780    3.2660    0.6340 c3        1 E35     -0.219000
      2 C02        -1.4770    2.8940   -0.1370 c3        1 E35     -0.010000
      3 O03        -1.1600    1.5070    0.1050 os        1 E35     -0.281000
      4 C04         0.1360    1.1430   -0.3060 c1        1 E35      0.345000
      5 O05         0.8810    1.9770   -0.7510 o         1 E35     -0.347000
      6 C06         0.5880   -0.3310   -0.2200 c1        1 E35      0.053667
      7 C07         0.9800   -1.0080   -1.3710 c1        1 E35     -0.182667
      8 C08         1.3640   -2.3320   -1.2950 c1        1 E35      0.053667
      9 O09         1.7540   -3.0440   -2.4940 o         1 E35     -0.245500
     10 C10         1.3580   -2.9860   -0.0690 c1        1 E35     -0.182667
     11 C11         0.9700   -2.3160    1.0660 c1        1 E35      0.053667
     12 O12         0.9040   -3.0050    2.3100 o         1 E35     -0.245500
     13 C13         0.5830   -0.9790    0.9890 c1        1 E35     -0.182667
     14 H1         -2.4500    3.3290    1.5770 hc        1 E35      0.087333
     15 H2         -3.3640    2.5880    0.5100 hc        1 E35      0.087333
     16 H3         -3.0080    4.1180    0.3270 hc        1 E35      0.087333
     17 H4         -1.6490    3.0280   -1.0990 h1        1 E35      0.093000
     18 H5         -0.7170    3.4580    0.1430 h1        1 E35      0.093000
     19 H6          1.0340   -0.5280   -2.2310 ha        1 E35      0.164333
     20 H7          2.4310   -3.6150   -2.3030 ho        1 E35      0.224000
     21 H8          1.6290   -3.9160   -0.0140 ha        1 E35      0.164333
     22 H9          1.5790   -2.7430    2.8340 ho        1 E35      0.224000
     23 H10         0.3110   -0.5050    1.7940 ha        1 E35      0.164333
@<TRIPOS>BOND
     1    1    2 1   
     2    1   14 1   
     3    1   15 1   
     4    1   16 1   
     5    2    3 1   
     6    2   17 1   
     7    2   18 1   
     8    3    4 1   
     9    4    5 1   
    10    6    7 1   
    11    7   19 1   
    12    8   10 1   
    13    9   20 1   
    14   10   21 1   
    15   11   13 1   
    16   12   22 1   
    17   13   23 1   
@<TRIPOS>SUBSTRUCTURE
     1 E35         1 TEMP              0 ****  ****    0 ROOT
