@<TRIPOS>MOLECULE
E35
   23    23     1     0     0
SMALL
bcc


@<TRIPOS>ATOM
      1 C01         4.5130    0.9440   -0.0470 c3        1 E35     -0.101100
      2 C02         3.6510   -0.2940   -0.0060 c3        1 E35      0.140400
      3 O03         2.2870    0.1690    0.0220 os        1 E35     -0.435900
      4 C04         1.3210   -0.7980    0.0620 c         1 E35      0.645700
      5 O05         1.6810   -1.9800    0.0700 o         1 E35     -0.544000
      6 C06        -0.0580   -0.2790    0.0900 ca        1 E35     -0.061600
      7 C07        -1.1050   -1.2080    0.1310 ca        1 E35     -0.165500
      8 C08        -2.4250   -0.7430    0.1580 ca        1 E35      0.146100
      9 O09        -3.5080   -1.5900    0.1980 oh        1 E35     -0.492600
     10 C10        -2.7150    0.6310    0.1450 ca        1 E35     -0.217000
     11 C11        -1.6470    1.5330    0.1040 ca        1 E35      0.146100
     12 O12        -1.8350    2.8950    0.0880 oh        1 E35     -0.492600
     13 C13        -0.3110    1.0920    0.0760 ca        1 E35     -0.165500
     14 H1          4.2850    1.5510   -0.9550 hc        1 E35      0.049033
     15 H2          4.3320    1.5780    0.8540 hc        1 E35      0.049033
     16 H3          5.5860    0.6380   -0.0700 hc        1 E35      0.049033
     17 H4          3.7930   -0.9360   -0.9140 h1        1 E35      0.052700
     18 H5          3.8400   -0.9090    0.9120 h1        1 E35      0.052700
     19 H6         -0.8800   -2.2860    0.1410 ha        1 E35      0.168500
     20 H7         -3.1750   -2.5000    0.2030 ho        1 E35      0.425500
     21 H8         -3.7590    0.9710    0.1670 ha        1 E35      0.157000
     22 H9         -2.7880    3.0670    0.1100 ho        1 E35      0.425500
     23 H10         0.5100    1.8230    0.0440 ha        1 E35      0.168500
@<TRIPOS>BOND
     1    1    2 1   
     2    1   14 1   
     3    1   15 1   
     4    1   16 1   
     5    2    3 1   
     6    2   17 1   
     7    2   18 1   
     8    3    4 1   
     9    4    5 2   
    10    4    6 1   
    11    6    7 ar  
    12    6   13 ar  
    13    7    8 ar  
    14    7   19 1   
    15    8    9 1   
    16    8   10 ar  
    17    9   20 1   
    18   10   11 ar  
    19   10   21 1   
    20   11   12 1   
    21   11   13 ar  
    22   12   22 1   
    23   13   23 1   
@<TRIPOS>SUBSTRUCTURE
     1 E35         1 TEMP              0 ****  ****    0 ROOT
