@<TRIPOS>MOLECULE
E36
   43    46     1     0     0
SMALL
bcc


@<TRIPOS>ATOM
      1 O1         -0.0450   -0.0400   -0.0030 os        1 E36     -0.315900
      2 C2          1.3730   -0.1170    0.1750 c3        1 E36      0.090400
      3 C3          1.7290   -0.2010    1.6490 c3        1 E36      0.090400
      4 O4          1.2620    0.9530    2.3580 os        1 E36     -0.312900
      5 C5         -0.0270    1.3330    2.0270 ca        1 E36      0.092100
      6 C6         -0.6630    0.8710    0.8420 ca        1 E36      0.050100
      7 C7         -1.9460    1.2730    0.4860 ca        1 E36     -0.074000
      8 C8         -2.6040    2.1640    1.3460 ca        1 E36      0.072400
      9 N9         -3.8810    2.7450    1.2650 nc        1 E36     -0.600100
     10 C10        -3.9940    3.5330    2.3620 cd        1 E36      0.373700
     11 N11        -2.8440    3.4990    3.1750 na        1 E36     -0.252300
     12 C12        -1.9390    2.6370    2.5490 ca        1 E36     -0.060200
     13 C13        -0.6500    2.2240    2.8980 ca        1 E36     -0.134000
     14 S14        -5.3410    4.4870    2.7820 ss        1 E36     -0.052300
     15 C15        -6.4500    4.0880    1.4600 c3        1 E36     -0.148300
     16 C16        -7.7730    4.7590    1.6110 c         1 E36      0.592700
     17 O17        -8.0110    5.6970    2.3750 o         1 E36     -0.477100
     18 C18        -8.8620    4.2220    0.7410 ca        1 E36     -0.184600
     19 C19       -10.1830    4.5050    1.0860 ca        1 E36      0.051000
     20 C20       -11.2770    4.0390    0.3210 ca        1 E36     -0.537500
     21 C21       -10.9680    3.3070   -0.8530 ca        1 E36      0.144400
     22 C22        -9.6540    3.0120   -1.2020 ca        1 E36     -0.144000
     23 C23        -8.5980    3.4600   -0.4030 ca        1 E36      0.036000
     24 S24       -12.7590    4.3090    0.9090 sy        1 E36      1.481200
     25 O25       -13.6670    3.2830    0.8160 o         1 E36     -0.553800
     26 CL26      -12.2180    2.7960   -1.8750 cl        1 E36     -0.031400
     27 O27       -12.7850    5.1800    1.9780 o         1 E36     -0.553800
     28 N28       -13.3920    5.4520   -0.4800 n4        1 E36     -0.789500
     29 H2          1.8480    0.7800   -0.3000 h1        1 E36      0.075700
     30 H2A         1.6620   -1.0520   -0.3720 h1        1 E36      0.075700
     31 H3          2.8390   -0.1810    1.8080 h1        1 E36      0.076700
     32 H3A         1.2800   -1.1160    2.1180 h1        1 E36      0.076700
     33 H7         -2.4190    0.8990   -0.4320 ha        1 E36      0.164000
     34 HN11       -2.6960    4.0070    4.0070 hn        1 E36      0.319700
     35 H13        -0.1390    2.5730    3.8050 ha        1 E36      0.163000
     36 H15        -6.5960    2.9770    1.4140 h1        1 E36      0.114700
     37 H15A       -5.9970    4.4060    0.4820 h1        1 E36      0.114700
     38 H19       -10.3670    5.1160    1.9980 ha        1 E36      0.203000
     39 H22        -9.4390    2.4220   -2.1120 ha        1 E36      0.193000
     40 H23        -7.5580    3.2120   -0.6910 ha        1 E36      0.188000
     41 HN28      -14.2240    5.0540   -0.9160 hn        1 E36      0.460467
     42 HN2A      -13.6460    6.3630   -0.0990 hn        1 E36      0.460467
     43 H283      -12.7020    5.6040   -1.2110 hn        1 E36      0.460467
@<TRIPOS>BOND
     1    1    2 1   
     2    1    6 1   
     3    2    3 1   
     4    2   29 1   
     5    2   30 1   
     6    3    4 1   
     7    3   31 1   
     8    3   32 1   
     9    4    5 1   
    10    5    6 ar  
    11    5   13 ar  
    12    6    7 ar  
    13    7    8 ar  
    14    7   33 1   
    15    8    9 1   
    16    8   12 ar  
    17    9   10 2   
    18   10   11 1   
    19   10   14 1   
    20   11   12 1   
    21   11   34 1   
    22   12   13 ar  
    23   13   35 1   
    24   14   15 1   
    25   15   16 1   
    26   15   36 1   
    27   15   37 1   
    28   16   17 2   
    29   16   18 1   
    30   18   19 ar  
    31   18   23 ar  
    32   19   20 ar  
    33   19   38 1   
    34   20   21 ar  
    35   20   24 1   
    36   21   22 ar  
    37   21   26 1   
    38   22   23 ar  
    39   22   39 1   
    40   23   40 1   
    41   24   25 2   
    42   24   27 2   
    43   24   28 1   
    44   28   41 1   
    45   28   42 1   
    46   28   43 1   
@<TRIPOS>SUBSTRUCTURE
     1 E36         1 TEMP              0 ****  ****    0 ROOT
