@<TRIPOS>MOLECULE
E36
   43    46     1     0     0
SMALL
bcc


@<TRIPOS>ATOM
      1 O1         -0.0540   -0.0600    0.0040 os        1 E36     -0.315900
      2 C2          1.3640   -0.1390    0.1800 c3        1 E36      0.090400
      3 C3          1.7220   -0.2200    1.6530 c3        1 E36      0.090400
      4 O4          1.2580    0.9350    2.3610 os        1 E36     -0.312900
      5 C5         -0.0310    1.3160    2.0310 ca        1 E36      0.092100
      6 C6         -0.6690    0.8530    0.8480 ca        1 E36      0.050100
      7 C7         -1.9530    1.2560    0.4940 ca        1 E36     -0.074000
      8 C8         -2.6080    2.1490    1.3530 ca        1 E36      0.072400
      9 N9         -3.8850    2.7310    1.2740 nc        1 E36     -0.600100
     10 C10        -3.9950    3.5210    2.3690 cd        1 E36      0.373700
     11 N11        -2.8440    3.4880    3.1800 na        1 E36     -0.252300
     12 C12        -1.9410    2.6230    2.5540 ca        1 E36     -0.060200
     13 C13        -0.6510    2.2090    2.9020 ca        1 E36     -0.134000
     14 S14        -5.3410    4.4770    2.7900 ss        1 E36     -0.052300
     15 C15        -6.4520    4.0790    1.4700 c3        1 E36     -0.148300
     16 C16        -7.7730    4.7530    1.6200 c         1 E36      0.592700
     17 O17        -8.0090    5.6910    2.3840 o         1 E36     -0.477100
     18 C18        -8.8630    4.2200    0.7480 ca        1 E36     -0.184600
     19 C19       -10.1820    4.5110    1.0890 ca        1 E36      0.051000
     20 C20       -11.2780    4.0500    0.3230 ca        1 E36     -0.537500
     21 C21       -10.9700    3.3130   -0.8490 ca        1 E36      0.144400
     22 C22        -9.6570    3.0110   -1.1950 ca        1 E36     -0.144000
     23 C23        -8.6000    3.4540   -0.3940 ca        1 E36      0.036000
     24 S24       -12.7590    4.3290    0.9060 sy        1 E36      1.481200
     25 O25       -13.6720    3.3070    0.8140 o         1 E36     -0.553800
     26 CL26      -12.2200    2.8070   -1.8730 cl        1 E36     -0.031400
     27 O27       -12.7840    5.2020    1.9740 o         1 E36     -0.553800
     28 N28       -13.3830    5.4710   -0.4860 n4        1 E36     -0.789500
     29 H2          1.6510   -1.0750   -0.3660 h1        1 E36      0.075700
     30 H2A         1.8390    0.7580   -0.2980 h1        1 E36      0.075700
     31 H3          1.2730   -1.1330    2.1240 h1        1 E36      0.076700
     32 H3A         2.8330   -0.2010    1.8100 h1        1 E36      0.076700
     33 H7         -2.4270    0.8810   -0.4230 ha        1 E36      0.164000
     34 HN11       -2.6940    3.9960    4.0110 hn        1 E36      0.319700
     35 H13        -0.1390    2.5590    3.8070 ha        1 E36      0.163000
     36 H15        -6.6010    2.9670    1.4260 h1        1 E36      0.114700
     37 H15A       -5.9980    4.3930    0.4900 h1        1 E36      0.114700
     38 H19       -10.3660    5.1250    2.0000 ha        1 E36      0.203000
     39 H22        -9.4430    2.4170   -2.1030 ha        1 E36      0.193000
     40 H23        -7.5610    3.2000   -0.6790 ha        1 E36      0.188000
     41 HN28      -14.2160    5.0770   -0.9230 hn        1 E36      0.460467
     42 HN2A      -12.6910    5.6180   -1.2160 hn        1 E36      0.460467
     43 H283      -13.6340    6.3850   -0.1070 hn        1 E36      0.460467
@<TRIPOS>BOND
     1    1    2 1   
     2    1    6 1   
     3    2    3 1   
     4    2   29 1   
     5    2   30 1   
     6    3    4 1   
     7    3   31 1   
     8    3   32 1   
     9    4    5 1   
    10    5    6 ar  
    11    5   13 ar  
    12    6    7 ar  
    13    7    8 ar  
    14    7   33 1   
    15    8    9 1   
    16    8   12 ar  
    17    9   10 2   
    18   10   11 1   
    19   10   14 1   
    20   11   12 1   
    21   11   34 1   
    22   12   13 ar  
    23   13   35 1   
    24   14   15 1   
    25   15   16 1   
    26   15   36 1   
    27   15   37 1   
    28   16   17 2   
    29   16   18 1   
    30   18   19 ar  
    31   18   23 ar  
    32   19   20 ar  
    33   19   38 1   
    34   20   21 ar  
    35   20   24 1   
    36   21   22 ar  
    37   21   26 1   
    38   22   23 ar  
    39   22   39 1   
    40   23   40 1   
    41   24   25 2   
    42   24   27 2   
    43   24   28 1   
    44   28   41 1   
    45   28   42 1   
    46   28   43 1   
@<TRIPOS>SUBSTRUCTURE
     1 E36         1 TEMP              0 ****  ****    0 ROOT
