@<TRIPOS>MOLECULE
E36
   42    37     1     0     0
SMALL
bcc


@<TRIPOS>ATOM
      1 O1          5.2620    3.6590   -3.6700 os        1 E36     -0.200500
      2 C2          6.5650    3.7390   -3.5830 c3        1 E36     -0.059000
      3 C3          7.1350    3.7650   -2.2300 c3        1 E36     -0.059000
      4 O4          6.7640    2.8060   -1.4130 os        1 E36     -0.200500
      5 C5          5.3630    2.3210   -1.5260 c2        1 E36      0.016500
      6 C6          4.5630    2.8330   -2.6390 c2        1 E36      0.016500
      7 C7          3.2190    2.5610   -2.6970 c1        1 E36     -0.100500
      8 C8          2.5950    1.7710   -1.6600 c1        1 E36     -0.069000
      9 N9          1.3230    1.2720   -1.5320 n1        1 E36     -0.125000
     10 C10         1.2860    0.4790   -0.4040 c1        1 E36     -0.169000
     11 N11         2.5470    0.4890    0.1700 n2        1 E36     -0.215000
     12 C12         3.3560    1.2810   -0.5960 c1        1 E36     -0.017000
     13 C13         4.7520    1.5570   -0.5260 c1        1 E36     -0.100500
     14 S14         0.5460   -0.3470    0.9720 s         1 E36      0.311000
     15 C15        -1.1940   -0.3660    0.7700 c3        1 E36     -0.359000
     16 C16        -1.8170   -1.3790    1.7440 c2        1 E36      0.272000
     17 O17        -1.1090   -2.0640    2.4390 o         1 E36     -0.265000
     18 C18        -3.3500   -1.4900    1.8580 c2        1 E36     -0.173000
     19 C19        -3.9940   -2.6430    1.4310 c2        1 E36      0.012000
     20 C20        -5.3500   -2.8010    1.6570 c1        1 E36     -0.812000
     21 C21        -6.0670   -1.8040    2.3120 c1        1 E36      0.066000
     22 C22        -5.4230   -0.6530    2.7370 c1        1 E36     -0.162000
     23 C23        -4.0700   -0.4940    2.5120 c1        1 E36     -0.015000
     24 S24        -6.2070   -4.1840    0.9510 s4        1 E36      2.077800
     25 O25        -5.4920   -4.7240   -0.1760 o         1 E36     -0.536900
     26 CL26       -7.8050   -1.9790    2.5520 cl        1 E36      0.006000
     27 O27        -7.4060   -3.7820    0.3460 o         1 E36     -0.536900
     28 N28        -6.4750   -5.3480    2.1090 n2        1 E36     -0.952000
     29 H2          6.9450    2.9750   -4.0580 h1        1 E36      0.109750
     30 H2A         6.8550    4.5670   -4.0530 h1        1 E36      0.109750
     31 H3          6.9020    4.5910   -1.8340 h1        1 E36      0.109750
     32 H3A         8.0910    3.7310   -2.3100 h1        1 E36      0.109750
     33 H7          2.6900    2.8820   -3.4480 ha        1 E36      0.162000
     34 HN11        2.8040    0.0270    0.9560 DU        1 E36      0.263000
     35 H13         5.3200    1.1160    0.2030 ha        1 E36      0.162000
     36 H15        -1.4180   -0.6290   -0.1660 h1        1 E36      0.160500
     37 H15A       -1.5480    0.5240    0.9530 h1        1 E36      0.160500
     38 H19        -3.5150   -3.3110    0.9930 ha        1 E36      0.174000
     39 H22        -5.9190    0.0350    3.1890 ha        1 E36      0.161000
     40 H23        -3.6070    0.3360    2.8190 ha        1 E36      0.166000
     41 HN28       -5.9260   -6.0470    2.1730 hn        1 E36      0.249000
     42 HN2A       -7.1940   -5.2740    2.6770 hn        1 E36      0.249000
@<TRIPOS>BOND
     1    1    2 1   
     2    1    6 1   
     3    2    3 1   
     4    2   29 1   
     5    2   30 1   
     6    3    4 1   
     7    3   31 1   
     8    3   32 1   
     9    4    5 1   
    10    5    6 1   
    11    5   13 1   
    12    6    7 1   
    13    7   33 1   
    14    8   12 1   
    15    9   10 1   
    16   10   11 1   
    17   11   12 1   
    18   13   35 1   
    19   14   15 1   
    20   15   16 1   
    21   15   36 1   
    22   15   37 1   
    23   16   17 1   
    24   16   18 1   
    25   18   19 1   
    26   18   23 1   
    27   19   20 1   
    28   19   38 1   
    29   20   24 1   
    30   21   22 1   
    31   21   26 1   
    32   22   39 1   
    33   23   40 1   
    34   24   25 1   
    35   24   27 1   
    36   28   41 1   
    37   28   42 1   
@<TRIPOS>SUBSTRUCTURE
     1 E36         1 TEMP              0 ****  ****    0 ROOT
