@<TRIPOS>MOLECULE
E36
   42    45     1     0     0
SMALL
bcc


@<TRIPOS>ATOM
      1 O1         -7.0020   -2.4200   -0.0760 os        1 E36     -0.316900
      2 C2         -8.4060   -2.2350    0.1210 c3        1 E36      0.091400
      3 C3         -8.9250   -1.0860   -0.7260 c3        1 E36      0.091400
      4 O4         -8.2760    0.1420   -0.3790 os        1 E36     -0.317900
      5 C5         -6.9030    0.0240   -0.2230 ca        1 E36      0.080100
      6 C6         -6.2760   -1.2360   -0.0370 ca        1 E36      0.041100
      7 C7         -4.9020   -1.3590    0.1540 ca        1 E36     -0.071000
      8 C8         -4.1450   -0.1810    0.1570 ca        1 E36      0.078400
      9 N9         -2.7630    0.0220    0.3230 nc        1 E36     -0.593100
     10 C10        -2.5780    1.3620    0.2450 cd        1 E36      0.389700
     11 N11        -3.7840    2.0640    0.0320 na        1 E36     -0.263300
     12 C12        -4.8000    1.1040   -0.0260 ca        1 E36     -0.064200
     13 C13        -6.1790    1.2150   -0.2200 ca        1 E36     -0.134000
     14 S14        -1.1060    2.2000    0.3800 ss        1 E36     -0.063300
     15 C15         0.0490    0.8670    0.5360 c3        1 E36     -0.144300
     16 C16         1.4600    1.3680    0.6200 c         1 E36      0.595700
     17 O17         1.7460    2.5490    0.8380 o         1 E36     -0.502100
     18 C18         2.5090    0.3410    0.4270 ca        1 E36     -0.198600
     19 C19         3.8030    0.7580    0.0930 ca        1 E36      0.029000
     20 C20         4.8440   -0.1580   -0.1070 ca        1 E36     -0.365500
     21 C21         4.5530   -1.5190    0.0620 ca        1 E36      0.147400
     22 C22         3.2680   -1.9550    0.3990 ca        1 E36     -0.162000
     23 C23         2.2470   -1.0260    0.5770 ca        1 E36     -0.030000
     24 S24         6.3700    0.4690   -0.5840 sy        1 E36      1.522200
     25 O25         6.7240   -0.1020   -1.8180 o         1 E36     -0.646800
     26 CL26        5.7670   -2.6920   -0.1350 cl        1 E36     -0.070400
     27 O27         6.2740    1.8750   -0.5350 o         1 E36     -0.646800
     28 N28         7.3490   -0.0420    0.5660 n3        1 E36     -1.026700
     29 H2         -8.8540   -3.2130   -0.1930 h1        1 E36      0.070200
     30 H2A        -8.5980   -2.0460    1.2100 h1        1 E36      0.070200
     31 H3         -8.7560   -1.2870   -1.8160 h1        1 E36      0.071200
     32 H3A       -10.0090   -0.8830   -0.5260 h1        1 E36      0.071200
     33 H7         -4.4390   -2.3450    0.2910 ha        1 E36      0.165000
     34 HN11       -3.8890    3.0390   -0.0520 hn        1 E36      0.315700
     35 H13        -6.6840    2.1790   -0.3600 ha        1 E36      0.157000
     36 H15        -0.1760    0.2740    1.4610 h1        1 E36      0.109200
     37 H15A       -0.0490    0.1740   -0.3390 h1        1 E36      0.109200
     38 H19         4.0030    1.8450   -0.0130 ha        1 E36      0.193000
     39 H22         3.0600   -3.0300    0.5210 ha        1 E36      0.161000
     40 H23         1.2370   -1.3800    0.8430 ha        1 E36      0.152000
     41 HN28        7.5480    0.4770    1.3840 hn        1 E36      0.453300
     42 HN2A        7.8390   -0.9010    0.5310 hn        1 E36      0.453300
@<TRIPOS>BOND
     1    1    2 1   
     2    1    6 1   
     3    2    3 1   
     4    2   29 1   
     5    2   30 1   
     6    3    4 1   
     7    3   31 1   
     8    3   32 1   
     9    4    5 1   
    10    5    6 ar  
    11    5   13 ar  
    12    6    7 ar  
    13    7    8 ar  
    14    7   33 1   
    15    8    9 1   
    16    8   12 ar  
    17    9   10 2   
    18   10   11 1   
    19   10   14 1   
    20   11   12 1   
    21   11   34 1   
    22   12   13 ar  
    23   13   35 1   
    24   14   15 1   
    25   15   16 1   
    26   15   36 1   
    27   15   37 1   
    28   16   17 2   
    29   16   18 1   
    30   18   19 ar  
    31   18   23 ar  
    32   19   20 ar  
    33   19   38 1   
    34   20   21 ar  
    35   20   24 1   
    36   21   22 ar  
    37   21   26 1   
    38   22   23 ar  
    39   22   39 1   
    40   23   40 1   
    41   24   25 2   
    42   24   27 2   
    43   24   28 1   
    44   28   41 1   
    45   28   42 1   
@<TRIPOS>SUBSTRUCTURE
     1 E36         1 TEMP              0 ****  ****    0 ROOT
