@<TRIPOS>MOLECULE
E36
   43    46     1     0     0
SMALL
bcc


@<TRIPOS>ATOM
      1 O1         -0.0530   -0.0550    0.0030 os        1 E36     -0.315900
      2 C2          1.3660   -0.1330    0.1790 c3        1 E36      0.090400
      3 C3          1.7250   -0.2120    1.6520 c3        1 E36      0.090400
      4 O4          1.2610    0.9450    2.3580 os        1 E36     -0.312900
      5 C5         -0.0280    1.3250    2.0270 ca        1 E36      0.092100
      6 C6         -0.6670    0.8600    0.8450 ca        1 E36      0.050100
      7 C7         -1.9510    1.2620    0.4910 ca        1 E36     -0.074000
      8 C8         -2.6060    2.1570    1.3490 ca        1 E36      0.072400
      9 N9         -3.8830    2.7380    1.2680 nc        1 E36     -0.600100
     10 C10        -3.9930    3.5300    2.3620 cd        1 E36      0.373700
     11 N11        -2.8420    3.4990    3.1740 na        1 E36     -0.252300
     12 C12        -1.9390    2.6330    2.5480 ca        1 E36     -0.060200
     13 C13        -0.6490    2.2200    2.8970 ca        1 E36     -0.134000
     14 S14        -5.3390    4.4870    2.7810 ss        1 E36     -0.052300
     15 C15        -6.4500    4.0850    1.4630 c3        1 E36     -0.148300
     16 C16        -7.7720    4.7580    1.6140 c         1 E36      0.592700
     17 O17        -8.0080    5.6980    2.3750 o         1 E36     -0.477100
     18 C18        -8.8630    4.2200    0.7460 ca        1 E36     -0.184600
     19 C19       -10.1820    4.5070    1.0900 ca        1 E36      0.051000
     20 C20       -11.2780    4.0400    0.3280 ca        1 E36     -0.537500
     21 C21       -10.9710    3.3040   -0.8440 ca        1 E36      0.144400
     22 C22        -9.6580    3.0050   -1.1930 ca        1 E36     -0.144000
     23 C23        -8.6010    3.4530   -0.3960 ca        1 E36      0.036000
     24 S24       -12.7590    4.3160    0.9150 sy        1 E36      1.481200
     25 O25       -13.6690    3.2900    0.8260 o         1 E36     -0.553800
     26 Cl26      -12.2230    2.7920   -1.8640 cl        1 E36     -0.031400
     27 O27       -12.7830    5.1900    1.9820 o         1 E36     -0.553800
     28 N28       -13.3900    5.4540   -0.4770 nz        1 E36     -0.789500
     29 H2          1.6530   -1.0710   -0.3650 h1        1 E36      0.075700
     30 H2A         1.8410    0.7620   -0.3010 h1        1 E36      0.075700
     31 H3          1.2760   -1.1240    2.1250 h1        1 E36      0.076700
     32 H3A         2.8350   -0.1930    1.8080 h1        1 E36      0.076700
     33 H7         -2.4260    0.8850   -0.4250 ha        1 E36      0.164000
     34 HN11       -2.6920    4.0090    4.0030 hn        1 E36      0.319700
     35 H13        -0.1360    2.5720    3.8010 ha        1 E36      0.163000
     36 H15        -6.5970    2.9730    1.4210 h1        1 E36      0.114700
     37 H15A       -5.9980    4.3980    0.4830 h1        1 E36      0.114700
     38 H19       -10.3650    5.1210    2.0010 ha        1 E36      0.203000
     39 H22        -9.4450    2.4110   -2.1010 ha        1 E36      0.193000
     40 H23        -7.5620    3.2020   -0.6840 ha        1 E36      0.188000
     41 HN28      -14.2240    5.0560   -0.9110 hn        1 E36      0.460467
     42 HN2A      -12.7010    5.6020   -1.2090 hn        1 E36      0.460467
     43 H283      -13.6430    6.3670   -0.0980 hn        1 E36      0.460467
@<TRIPOS>BOND
     1    1    2 1   
     2    1    6 1   
     3    2    3 1   
     4    2   29 1   
     5    2   30 1   
     6    3    4 1   
     7    3   31 1   
     8    3   32 1   
     9    4    5 1   
    10    5    6 ar  
    11    5   13 ar  
    12    6    7 ar  
    13    7    8 ar  
    14    7   33 1   
    15    8    9 1   
    16    8   12 ar  
    17    9   10 2   
    18   10   11 1   
    19   10   14 1   
    20   11   12 1   
    21   11   34 1   
    22   12   13 ar  
    23   13   35 1   
    24   14   15 1   
    25   15   16 1   
    26   15   36 1   
    27   15   37 1   
    28   16   17 2   
    29   16   18 1   
    30   18   19 ar  
    31   18   23 ar  
    32   19   20 ar  
    33   19   38 1   
    34   20   21 ar  
    35   20   24 1   
    36   21   22 ar  
    37   21   26 1   
    38   22   23 ar  
    39   22   39 1   
    40   23   40 1   
    41   24   25 2   
    42   24   27 2   
    43   24   28 1   
    44   28   41 1   
    45   28   42 1   
    46   28   43 1   
@<TRIPOS>SUBSTRUCTURE
     1 E36         1 TEMP              0 ****  ****    0 ROOT
