@<TRIPOS>MOLECULE
E37
   48    50     1     0     0
SMALL
bcc


@<TRIPOS>ATOM
      1 O1          4.6840    2.6900   -1.6460 o         1 E37     -0.640100
      2 C6          5.3820    2.2290   -0.7180 c         1 E37      0.634100
      3 N1          6.5510    2.8620   -0.3630 n         1 E37     -0.663000
      4 C7          4.9970    0.9670    0.0910 c3        1 E37      0.036700
      5 C8          5.9240   -0.1710   -0.3720 c3        1 E37     -0.077400
      6 C9          5.7370   -1.4390    0.4200 c3        1 E37     -0.202400
      7 C10         6.9590   -2.3670    0.2520 c         1 E37      0.910600
      8 O4E         6.7420   -3.6060    0.1550 o         1 E37     -0.845300
      9 O4          8.1080   -1.8380    0.2350 o         1 E37     -0.845300
     10 N2          3.6030    0.6320   -0.0460 n         1 E37     -0.529900
     11 C11         2.6310    1.0980    0.8080 c         1 E37      0.674700
     12 O2          2.8930    1.8200    1.7930 o         1 E37     -0.617100
     13 C27         1.2270    0.6730    0.5170 ca        1 E37     -0.124600
     14 C28         0.9220   -0.6450    0.1640 ca        1 E37     -0.088000
     15 C15        -0.3990   -1.0100   -0.0810 ca        1 E37     -0.132500
     16 C16        -1.4330   -0.0650    0.0190 ca        1 E37     -0.002000
     17 C17        -1.1170    1.2540    0.3790 ca        1 E37     -0.132500
     18 C14         0.2030    1.6190    0.6310 ca        1 E37     -0.088000
     19 C18        -2.7980   -0.4500   -0.2480 cc        1 E37     -0.055100
     20 C19        -3.9390    0.1750    0.2230 cd        1 E37     -0.137000
     21 C20        -5.1350   -0.4700   -0.2360 cd        1 E37     -0.070000
     22 C29        -4.8330   -1.5600   -1.0380 cc        1 E37     -0.178100
     23 S7         -3.1980   -1.7730   -1.2170 ss        1 E37      0.054200
     24 C21        -6.4700   -0.0260    0.1070 ca        1 E37     -0.003000
     25 C22        -7.5300   -0.9430    0.1760 ca        1 E37     -0.121000
     26 C23        -8.8140   -0.5140    0.5040 ca        1 E37     -0.131500
     27 C24        -9.0590    0.8330    0.7670 ca        1 E37     -0.135000
     28 C25        -8.0120    1.7520    0.7010 ca        1 E37     -0.131500
     29 C26        -6.7260    1.3290    0.3730 ca        1 E37     -0.121000
     30 H1          6.8940    3.5900   -0.9400 hn        1 E37      0.304500
     31 H2          7.1900    2.4080    0.2400 hn        1 E37      0.304500
     32 H3          5.1850    1.1770    1.1890 h1        1 E37      0.096700
     33 H4          5.7620   -0.3730   -1.4630 hc        1 E37      0.061700
     34 H5          6.9920    0.1610   -0.2450 hc        1 E37      0.061700
     35 H6          5.6370   -1.2060    1.5100 hc        1 E37      0.027700
     36 H7          4.8140   -1.9790    0.0960 hc        1 E37      0.027700
     37 H9          3.3360    0.1780   -0.8880 hn        1 E37      0.320500
     38 H10         1.7200   -1.4020    0.0920 ha        1 E37      0.155000
     39 H11        -0.6340   -2.0520   -0.3500 ha        1 E37      0.133500
     40 H12        -1.9170    2.0040    0.4600 ha        1 E37      0.133500
     41 H13         0.4520    2.6500    0.9300 ha        1 E37      0.155000
     42 H14        -3.9480    1.0450    0.8840 ha        1 E37      0.157000
     43 H15        -5.5690   -2.2080   -1.5120 h4        1 E37      0.170000
     44 H16        -7.3400   -2.0080   -0.0240 ha        1 E37      0.134500
     45 H17        -9.6360   -1.2430    0.5580 ha        1 E37      0.128000
     46 H18       -10.0730    1.1690    1.0270 ha        1 E37      0.127000
     47 H19        -8.2010    2.8160    0.9070 ha        1 E37      0.128000
     48 H20        -5.9050    2.0590    0.3170 ha        1 E37      0.134500
@<TRIPOS>BOND
     1    1    2 2   
     2    2    3 1   
     3    2    4 1   
     4    3   30 1   
     5    3   31 1   
     6    4    5 1   
     7    4   10 1   
     8    4   32 1   
     9    5    6 1   
    10    5   33 1   
    11    5   34 1   
    12    6    7 1   
    13    6   35 1   
    14    6   36 1   
    15    7    8 1   
    16    7    9 1   
    17   10   11 1   
    18   10   37 1   
    19   11   12 2   
    20   11   13 1   
    21   13   14 ar  
    22   13   18 ar  
    23   14   15 ar  
    24   14   38 1   
    25   15   16 ar  
    26   15   39 1   
    27   16   17 ar  
    28   16   19 1   
    29   17   18 ar  
    30   17   40 1   
    31   18   41 1   
    32   19   20 2   
    33   19   23 1   
    34   20   21 1   
    35   20   42 1   
    36   21   22 2   
    37   21   24 1   
    38   22   23 1   
    39   22   43 1   
    40   24   25 ar  
    41   24   29 ar  
    42   25   26 ar  
    43   25   44 1   
    44   26   27 ar  
    45   26   45 1   
    46   27   28 ar  
    47   27   46 1   
    48   28   29 ar  
    49   28   47 1   
    50   29   48 1   
@<TRIPOS>SUBSTRUCTURE
     1 E37         1 TEMP              0 ****  ****    0 ROOT
