@<TRIPOS>MOLECULE
E37
   50    52     1     0     0
SMALL
bcc


@<TRIPOS>ATOM
      1 O1         -0.1750    1.6590   -0.1770 o         1 E37     -0.619100
      2 C6          0.9700    1.1590   -0.1190 c         1 E37      0.649100
      3 N1          1.6230    0.9310    1.0450 n         1 E37     -0.621000
      4 C7          1.6840    0.7390   -1.4340 c3        1 E37      0.038500
      5 C8          2.9050    1.6340   -1.6870 c3        1 E37     -0.087400
      6 C9          4.0480    0.8730   -2.3220 c3        1 E37     -0.145400
      7 C10         4.7990   -0.0040   -1.3730 c         1 E37      0.632100
      8 O4E         5.9250   -0.4760   -1.5060 o         1 E37     -0.488000
      9 O4          4.1320   -0.3290   -0.2200 oh        1 E37     -0.660100
     10 N2          0.6950    0.7680   -2.5650 n4        1 E37     -0.676800
     11 C11         0.7340   -0.4300   -3.5000 c         1 E37      0.582700
     12 O2          1.7390   -1.1310   -3.4260 o         1 E37     -0.461100
     13 C27        -0.4150   -0.6010   -4.3720 ca        1 E37     -0.245600
     14 C28        -0.4330   -1.7690   -5.1640 ca        1 E37     -0.041500
     15 C15        -2.5350    0.0540   -5.3360 ca        1 E37     -0.151500
     16 C16        -2.5660   -1.1170   -6.1300 ca        1 E37      0.135000
     17 C17        -1.4900   -2.0190   -6.0250 ca        1 E37     -0.151500
     18 C14        -1.4840    0.3090   -4.4740 ca        1 E37     -0.041500
     19 C18        -3.6670   -1.3600   -7.0120 cc        1 E37     -0.160100
     20 C19        -3.8510   -2.4860   -7.8110 cd        1 E37     -0.078000
     21 C20        -5.0530   -2.4100   -8.5770 cd        1 E37     -0.054000
     22 C29        -5.7280   -1.2220   -8.3200 cc        1 E37     -0.139100
     23 S7         -4.9450   -0.2750   -7.2200 ss        1 E37      0.096200
     24 C21        -5.4920   -3.4420   -9.4950 ca        1 E37     -0.039000
     25 C22        -6.2210   -3.1030  -10.6450 ca        1 E37     -0.113500
     26 C23        -6.6440   -4.0950  -11.5270 ca        1 E37     -0.125000
     27 C24        -6.3480   -5.4340  -11.2710 ca        1 E37     -0.112000
     28 C25        -5.6250   -5.7790  -10.1290 ca        1 E37     -0.125000
     29 C26        -5.1980   -4.7910   -9.2440 ca        1 E37     -0.113500
     30 H1          2.5290    0.5240    1.0580 hn        1 E37      0.348500
     31 H2          4.6910   -0.9120    0.3240 ho        1 E37      0.468000
     32 H3          2.0380   -0.3350   -1.3150 hx        1 E37      0.152700
     33 H4          3.2530    2.0580   -0.7050 hc        1 E37      0.088200
     34 H5          2.6410    2.5150   -2.3330 hc        1 E37      0.088200
     35 H6          4.7870    1.6020   -2.7580 hc        1 E37      0.106700
     36 H7          3.6810    0.2170   -3.1610 hc        1 E37      0.106700
     37 H9          0.8460    1.6130   -3.1270 hn        1 E37      0.470300
     38 H10         0.4040   -2.4860   -5.0940 ha        1 E37      0.148000
     39 H11        -3.3680    0.7750   -5.4060 ha        1 E37      0.164000
     40 H12        -1.4840   -2.9380   -6.6360 ha        1 E37      0.164000
     41 H13        -1.5160    1.2410   -3.8880 ha        1 E37      0.148000
     42 H14        -3.1690   -3.3390   -7.8700 ha        1 E37      0.163000
     43 H15        -6.6770   -0.9410   -8.7830 h4        1 E37      0.193000
     44 H16        -6.4530   -2.0480  -10.8540 ha        1 E37      0.130500
     45 H17        -7.2130   -3.8200  -12.4280 ha        1 E37      0.141000
     46 H18        -6.6840   -6.2160  -11.9680 ha        1 E37      0.142000
     47 H19        -5.3940   -6.8350   -9.9220 ha        1 E37      0.141000
     48 H20        -4.6380   -5.0710   -8.3400 ha        1 E37      0.130500
     49 H131        1.1910    1.1880    1.9030 hn        1 E37      0.348500
     50 H22        -0.2570    0.8340   -2.1560 hn        1 E37      0.470300
@<TRIPOS>BOND
     1    1    2 2   
     2    2    3 1   
     3    2    4 1   
     4    3   30 1   
     5    3   49 1   
     6    4    5 1   
     7    4   10 1   
     8    4   32 1   
     9    5    6 1   
    10    5   33 1   
    11    5   34 1   
    12    6    7 1   
    13    6   35 1   
    14    6   36 1   
    15    7    8 2   
    16    7    9 1   
    17    9   31 1   
    18   10   11 1   
    19   10   37 1   
    20   10   50 1   
    21   11   12 2   
    22   11   13 1   
    23   13   14 ar  
    24   13   18 ar  
    25   14   17 ar  
    26   14   38 1   
    27   15   16 ar  
    28   15   18 ar  
    29   15   39 1   
    30   16   17 ar  
    31   16   19 1   
    32   17   40 1   
    33   18   41 1   
    34   19   20 2   
    35   19   23 1   
    36   20   21 1   
    37   20   42 1   
    38   21   22 2   
    39   21   24 1   
    40   22   23 1   
    41   22   43 1   
    42   24   25 ar  
    43   24   29 ar  
    44   25   26 ar  
    45   25   44 1   
    46   26   27 ar  
    47   26   45 1   
    48   27   28 ar  
    49   27   46 1   
    50   28   29 ar  
    51   28   47 1   
    52   29   48 1   
@<TRIPOS>SUBSTRUCTURE
     1 E37         1 TEMP              0 ****  ****    0 ROOT
