@<TRIPOS>MOLECULE
E37
   50    52     1     0     0
SMALL
bcc


@<TRIPOS>ATOM
      1 O1         -0.0880    2.1520   -0.4720 o         1 E37     -0.619100
      2 C6          0.9680    1.5140   -0.2670 c         1 E37      0.649100
      3 N1          1.5210    1.3640    0.9600 n         1 E37     -0.621000
      4 C7          1.6830    0.8220   -1.4620 c3        1 E37      0.038500
      5 C8          3.0300    1.5000   -1.7430 c3        1 E37     -0.087400
      6 C9          4.0830    0.5100   -2.1910 c3        1 E37     -0.145400
      7 C10         4.6500   -0.3200   -1.0830 c         1 E37      0.631100
      8 O4E         5.7030   -0.9530   -1.0750 o         1 E37     -0.488000
      9 O4          3.8850   -0.3880    0.0510 oh        1 E37     -0.660100
     10 N2          0.7670    0.8260   -2.6540 n4        1 E37     -0.676800
     11 C11         0.6790   -0.4880   -3.4150 c         1 E37      0.582700
     12 O2          1.5710   -1.2980   -3.1830 o         1 E37     -0.461100
     13 C27        -0.4430   -0.6270   -4.3270 ca        1 E37     -0.245600
     14 C28        -1.3600    0.3990   -4.6280 ca        1 E37     -0.041500
     15 C15        -1.6420   -2.1130   -5.8280 ca        1 E37     -0.151500
     16 C16        -2.5640   -1.0950   -6.1330 ca        1 E37      0.135000
     17 C17        -2.3980    0.1660   -5.5130 ca        1 E37     -0.151500
     18 C14        -0.5980   -1.8860   -4.9440 ca        1 E37     -0.041500
     19 C18        -3.6480   -1.3120   -7.0420 cc        1 E37     -0.160100
     20 C19        -3.8720   -2.4600   -7.7990 cd        1 E37     -0.078000
     21 C20        -5.0490   -2.3530   -8.6010 cd        1 E37     -0.054000
     22 C29        -5.6660   -1.1210   -8.4110 cc        1 E37     -0.139100
     23 S7         -4.8570   -0.1690   -7.3340 ss        1 E37      0.097200
     24 C21        -5.5210   -3.4000   -9.4850 ca        1 E37     -0.039000
     25 C22        -6.8960   -3.5660   -9.7140 ca        1 E37     -0.113500
     26 C23        -7.3490   -4.5720  -10.5650 ca        1 E37     -0.125000
     27 C24        -6.4400   -5.4200  -11.1970 ca        1 E37     -0.112000
     28 C25        -5.0720   -5.2590  -10.9760 ca        1 E37     -0.125000
     29 C26        -4.6120   -4.2560  -10.1240 ca        1 E37     -0.113500
     30 H1          1.0870    1.7950    1.7440 hn        1 E37      0.348500
     31 H2          2.3570    0.8440    1.0910 hn        1 E37      0.348500
     32 H3          1.8720   -0.2630   -1.1780 hx        1 E37      0.152700
     33 H4          2.9290    2.3090   -2.5150 hc        1 E37      0.088200
     34 H5          3.3850    2.0050   -0.8030 hc        1 E37      0.088200
     35 H6          3.6700   -0.2010   -2.9600 hc        1 E37      0.106700
     36 H7          4.9410    1.0640   -2.6640 hc        1 E37      0.106700
     37 H9         -0.1850    1.0800   -2.3270 hn        1 E37      0.470300
     38 H10        -1.2790    1.4030   -4.1850 ha        1 E37      0.148000
     39 H11        -1.7480   -3.1070   -6.2940 ha        1 E37      0.164500
     40 H12        -3.1090    0.9790   -5.7420 ha        1 E37      0.164500
     41 H13         0.1190   -2.6950   -4.7150 ha        1 E37      0.148000
     42 H14        -3.2410   -3.3530   -7.7970 ha        1 E37      0.163000
     43 H15        -6.5800   -0.8060   -8.9200 h4        1 E37      0.193000
     44 H16        -7.6180   -2.9030   -9.2140 ha        1 E37      0.130500
     45 H17        -8.4290   -4.6960  -10.7370 ha        1 E37      0.141000
     46 H18        -6.8000   -6.2120  -11.8690 ha        1 E37      0.142000
     47 H19        -4.3520   -5.9240  -11.4760 ha        1 E37      0.141000
     48 H20        -3.5320   -4.1290   -9.9620 ha        1 E37      0.130500
     49 H131        4.3250   -0.9590    0.7050 ho        1 E37      0.468000
     50 H22         1.0690    1.5520   -3.3120 hn        1 E37      0.470300
@<TRIPOS>BOND
     1    1    2 2   
     2    2    3 1   
     3    2    4 1   
     4    3   30 1   
     5    3   31 1   
     6    4    5 1   
     7    4   10 1   
     8    4   32 1   
     9    5    6 1   
    10    5   33 1   
    11    5   34 1   
    12    6    7 1   
    13    6   35 1   
    14    6   36 1   
    15    7    8 2   
    16    7    9 1   
    17    9   49 1   
    18   10   11 1   
    19   10   37 1   
    20   10   50 1   
    21   11   12 2   
    22   11   13 1   
    23   13   14 ar  
    24   13   18 ar  
    25   14   17 ar  
    26   14   38 1   
    27   15   16 ar  
    28   15   18 ar  
    29   15   39 1   
    30   16   17 ar  
    31   16   19 1   
    32   17   40 1   
    33   18   41 1   
    34   19   20 2   
    35   19   23 1   
    36   20   21 1   
    37   20   42 1   
    38   21   22 2   
    39   21   24 1   
    40   22   23 1   
    41   22   43 1   
    42   24   25 ar  
    43   24   29 ar  
    44   25   26 ar  
    45   25   44 1   
    46   26   27 ar  
    47   26   45 1   
    48   27   28 ar  
    49   27   46 1   
    50   28   29 ar  
    51   28   47 1   
    52   29   48 1   
@<TRIPOS>SUBSTRUCTURE
     1 E37         1 TEMP              0 ****  ****    0 ROOT
