@<TRIPOS>MOLECULE
E37
   48    42     1     0     0
SMALL
bcc


@<TRIPOS>ATOM
      1 O1          4.3850    1.1000   -4.4580 o         1 E37     -0.407000
      2 C6          3.9960   -0.0510   -4.4300 c1        1 E37      0.298000
      3 N1          3.3690   -0.6170   -5.5700 n3        1 E37     -0.430000
      4 C7          4.2060   -0.8890   -3.1870 c2        1 E37      0.008000
      5 C8          4.6000   -2.2920   -3.5870 c3        1 E37     -0.155000
      6 C9          5.5400   -2.8650   -2.5520 c3        1 E37     -0.230000
      7 C10         6.1610   -4.1370   -3.0840 c2        1 E37      0.324000
      8 O4E         7.3400   -4.1250   -3.5250 o         1 E37     -0.585000
      9 O4          5.5070   -5.2120   -3.0650 o         1 E37     -0.585000
     10 N2          3.0010   -0.9320   -2.4370 n         1 E37     -0.355000
     11 C11         2.5170    0.2430   -1.8050 c2        1 E37      0.336000
     12 O2          3.0710    1.3080   -1.9960 o         1 E37     -0.392000
     13 C27         1.3160    0.1670   -0.8810 c2        1 E37     -0.112000
     14 C28         0.0380    0.0770   -1.4130 c2        1 E37     -0.085000
     15 C15        -1.0660    0.1080   -0.5750 c1        1 E37     -0.139000
     16 C16        -0.8930    0.2310    0.7950 c1        1 E37     -0.013000
     17 C17         0.3840    0.3210    1.3270 c1        1 E37     -0.140000
     18 C14         1.4880    0.2890    0.4890 c1        1 E37     -0.089000
     19 C18        -2.0910    0.2050    1.7110 c2        1 E37     -0.313000
     20 C19        -2.8570    1.3580    2.1460 c1        1 E37     -0.146000
     21 C20        -3.9760    0.8590    3.1640 c1        1 E37     -0.075000
     22 C29        -3.8500   -0.5780    3.3120 c1        1 E37     -0.457000
     23 S7         -2.6740   -1.0490    2.4150 ss        1 E37      0.605000
     24 C21        -5.0020    1.7370    3.8550 c1        1 E37      0.003000
     25 C22        -4.7300    2.2660    5.1070 c2        1 E37     -0.121000
     26 C23        -5.6890    3.0250    5.7620 c1        1 E37     -0.132000
     27 C24        -6.9190    3.2530    5.1650 c1        1 E37     -0.136000
     28 C25        -7.1910    2.7230    3.9130 c1        1 E37     -0.136000
     29 C26        -6.2320    1.9650    3.2580 c1        1 E37     -0.124000
     30 H1          3.2560   -0.1140   -6.3250 hn        1 E37      0.220500
     31 H2          3.1060   -1.4910   -5.5590 hn        1 E37      0.220500
     32 H3          4.9160   -0.4930   -2.6430 h4        1 E37      0.138000
     33 H4          5.0470   -2.2700   -4.4560 hc        1 E37      0.087000
     34 H5          3.8000   -2.8520   -3.6450 hc        1 E37      0.087000
     35 H6          5.0430   -3.0620   -1.7330 hc        1 E37      0.079500
     36 H7          6.2450   -2.2150   -2.3570 hc        1 E37      0.079500
     37 H9          2.5400   -1.7140   -2.3590 hn        1 E37      0.277000
     38 H10        -0.0830   -0.0090   -2.3780 ha        1 E37      0.218000
     39 H11        -1.9660    0.0590   -0.9510 ha        1 E37      0.138000
     40 H12         0.5060    0.4070    2.2920 ha        1 E37      0.125000
     41 H13         2.3860    0.3530    0.8640 ha        1 E37      0.147000
     42 H14        -2.7120    2.2800    1.8630 DU        1 E37      0.160500
     43 H15        -4.4060   -1.1480    3.8740 DU        1 E37      0.160500
     44 H16        -3.8640    2.1060    5.5270 ha        1 E37      0.138000
     45 H17        -5.4970    3.3980    6.6430 ha        1 E37      0.127000
     46 H18        -7.5880    3.8030    5.6190 ha        1 E37      0.124500
     47 H19        -8.0560    2.8840    3.4930 ha        1 E37      0.124500
     48 H20        -6.4240    1.5920    2.3760 ha        1 E37      0.132000
@<TRIPOS>BOND
     1    1    2 1   
     2    2    3 1   
     3    3   30 1   
     4    3   31 1   
     5    4    5 1   
     6    4   10 1   
     7    4   32 1   
     8    5    6 1   
     9    5   33 1   
    10    5   34 1   
    11    6    7 1   
    12    6   35 1   
    13    6   36 1   
    14    7    8 1   
    15    7    9 1   
    16   10   11 1   
    17   10   37 1   
    18   11   12 1   
    19   11   13 1   
    20   13   14 1   
    21   13   18 1   
    22   14   15 1   
    23   14   38 1   
    24   15   39 1   
    25   16   17 1   
    26   16   19 1   
    27   17   40 1   
    28   18   41 1   
    29   19   20 1   
    30   19   23 1   
    31   20   21 1   
    32   21   22 1   
    33   22   23 1   
    34   24   25 1   
    35   24   29 1   
    36   25   26 1   
    37   25   44 1   
    38   26   45 1   
    39   27   28 1   
    40   27   46 1   
    41   28   47 1   
    42   29   48 1   
@<TRIPOS>SUBSTRUCTURE
     1 E37         1 TEMP              0 ****  ****    0 ROOT
