@<TRIPOS>MOLECULE
E37
   50    52     1     0     0
SMALL
bcc


@<TRIPOS>ATOM
      1 O1         -0.3540    1.5850   -1.2620 o         1 E37     -0.609100
      2 C6          0.5740    1.0220   -0.6420 c         1 E37      0.647100
      3 N1          0.5670    0.8350    0.7000 nt        1 E37     -0.624000
      4 C7          1.8230    0.5520   -1.4390 c3        1 E37      0.040500
      5 C8          2.7970    1.7370   -1.4460 c3        1 E37     -0.097400
      6 C9          4.0010    1.6260   -2.3550 c3        1 E37     -0.200400
      7 C10         4.6460    0.2700   -2.3410 c         1 E37      0.631100
      8 O4E         4.0960   -0.7650   -2.7380 o         1 E37     -0.535000
      9 O4          5.9110    0.0910   -1.9010 oh        1 E37     -0.528100
     10 N2          1.4010    0.1080   -2.8020 ny        1 E37     -0.678800
     11 C11         0.6050   -1.2020   -2.7930 c         1 E37      0.595700
     12 O2          0.9950   -2.0550   -2.0120 o         1 E37     -0.420100
     13 C27        -0.4830   -1.2470   -3.7630 ca        1 E37     -0.238600
     14 C28        -1.3990   -0.1910   -3.9010 ca        1 E37     -0.055000
     15 C15        -2.4370   -0.2970   -4.8140 ca        1 E37     -0.145000
     16 C16        -2.5880   -1.4520   -5.6120 ca        1 E37      0.113000
     17 C17        -1.6720   -2.5080   -5.4490 ca        1 E37     -0.145000
     18 C14        -0.6350   -2.4150   -4.5300 ca        1 E37     -0.055000
     19 C18        -3.6620   -1.5380   -6.5600 cc        1 E37     -0.149100
     20 C19        -3.8150   -2.5080   -7.5450 cd        1 E37     -0.087000
     21 C20        -4.9940   -2.2990   -8.3260 cd        1 E37     -0.054000
     22 C29        -5.6830   -1.1750   -7.8880 cc        1 E37     -0.144100
     23 S7         -4.9370   -0.4320   -6.6150 ss        1 E37      0.088200
     24 C21        -5.3970   -3.1560   -9.4230 ca        1 E37     -0.035000
     25 C22        -5.0960   -4.5260   -9.4050 ca        1 E37     -0.114500
     26 C23        -6.4860   -3.4490  -11.5700 ca        1 E37     -0.125500
     27 C24        -6.1830   -4.8100  -11.5450 ca        1 E37     -0.114000
     28 C25        -5.4890   -5.3460  -10.4600 ca        1 E37     -0.125500
     29 C26        -6.0980   -2.6240  -10.5160 ca        1 E37     -0.114500
     30 H1          6.3110    0.9360   -1.6400 ho        1 E37      0.447000
     31 H2         -0.2200    1.1390    1.2280 hn        1 E37      0.342500
     32 H3          2.3160   -0.3480   -0.9560 hx        1 E37      0.141700
     33 H4          2.2370    2.6760   -1.7190 hc        1 E37      0.096200
     34 H5          3.1440    1.8580   -0.3820 hc        1 E37      0.096200
     35 H6          3.7110    1.8490   -3.4200 hc        1 E37      0.094700
     36 H7          4.7410    2.4180   -2.0540 hc        1 E37      0.094700
     37 H9          0.8290    0.8450   -3.2350 hn        1 E37      0.474300
     38 H10        -1.3360    0.7050   -3.2580 ha        1 E37      0.160000
     39 H11        -3.1590    0.5310   -4.9130 ha        1 E37      0.162000
     40 H12        -1.7830   -3.4270   -6.0470 ha        1 E37      0.162000
     41 H13         0.0660   -3.2560   -4.3990 ha        1 E37      0.160000
     42 H14        -3.1230   -3.3330   -7.7330 ha        1 E37      0.162000
     43 H15        -6.6210   -0.8180   -8.3210 h4        1 E37      0.190000
     44 H16        -4.5580   -4.9570   -8.5480 ha        1 E37      0.131000
     45 H17        -7.0340   -3.0230  -12.4240 ha        1 E37      0.139500
     46 H18        -6.4920   -5.4600  -12.3770 ha        1 E37      0.141000
     47 H19        -5.2520   -6.4200  -10.4360 ha        1 E37      0.139500
     48 H20        -6.3360   -1.5500  -10.5430 ha        1 E37      0.131000
     49 H131        1.2860    0.3350    1.1610 hn        1 E37      0.342500
     50 H22         2.2520   -0.0570   -3.3670 hn        1 E37      0.474300
@<TRIPOS>BOND
     1    1    2 2   
     2    2    3 1   
     3    2    4 1   
     4    3   31 1   
     5    3   49 1   
     6    4    5 1   
     7    4   10 1   
     8    4   32 1   
     9    5    6 1   
    10    5   33 1   
    11    5   34 1   
    12    6    7 1   
    13    6   35 1   
    14    6   36 1   
    15    7    8 2   
    16    7    9 1   
    17    9   30 1   
    18   10   11 1   
    19   10   37 1   
    20   10   50 1   
    21   11   12 2   
    22   11   13 1   
    23   13   14 ar  
    24   13   18 ar  
    25   14   15 ar  
    26   14   38 1   
    27   15   16 ar  
    28   15   39 1   
    29   16   17 ar  
    30   16   19 1   
    31   17   18 ar  
    32   17   40 1   
    33   18   41 1   
    34   19   20 2   
    35   19   23 1   
    36   20   21 1   
    37   20   42 1   
    38   21   22 2   
    39   21   24 1   
    40   22   23 1   
    41   22   43 1   
    42   24   25 ar  
    43   24   29 ar  
    44   25   28 ar  
    45   25   44 1   
    46   26   27 ar  
    47   26   29 ar  
    48   26   45 1   
    49   27   28 ar  
    50   27   46 1   
    51   28   47 1   
    52   29   48 1   
@<TRIPOS>SUBSTRUCTURE
     1 E37         1 TEMP              0 ****  ****    0 ROOT
