@<TRIPOS>MOLECULE
E38
   37    39     1     0     0
SMALL
bcc


@<TRIPOS>ATOM
      1 N1          0.0740   -0.0790   -0.0340 na        1 E38     -0.252300
      2 C2          1.4700    0.1130    0.0120 cc        1 E38      0.378700
      3 N3          1.9490    0.1570    1.2780 nd        1 E38     -0.599100
      4 C4          0.8300   -0.0100    2.1120 ca        1 E38      0.070400
      5 C5         -0.3590   -0.1580    1.2920 ca        1 E38     -0.055200
      6 C6         -1.6230   -0.3390    1.8700 ca        1 E38     -0.127000
      7 C7         -1.6940   -0.3730    3.2530 ca        1 E38     -0.081000
      8 C8         -0.5440   -0.2310    4.0600 ca        1 E38     -0.041900
      9 C9          0.7180   -0.0500    3.5100 ca        1 E38     -0.047000
     10 S10         2.3830    0.2660   -1.4170 ss        1 E38     -0.046300
     11 C11         4.0130    0.4510   -0.7500 c3        1 E38     -0.149300
     12 C12         5.0490    0.5590   -1.8170 c         1 E38      0.592700
     13 O13         4.8190    0.7740   -3.0090 o         1 E38     -0.477100
     14 BR14       -0.7360   -0.2900    5.9230 br        1 E38     -0.071100
     15 C15         6.4590    0.3950   -1.3550 ca        1 E38     -0.184600
     16 C16         7.4350    0.1020   -2.3060 ca        1 E38      0.052000
     17 C17         8.7960   -0.0700   -1.9610 ca        1 E38     -0.536500
     18 C18         9.1370    0.1200   -0.5990 ca        1 E38      0.144400
     19 C19         8.1700    0.4050    0.3600 ca        1 E38     -0.143000
     20 C20         6.8290    0.5350   -0.0110 ca        1 E38      0.035000
     21 S21         9.8010   -0.5540   -3.1330 sy        1 E38      1.480200
     22 O22        10.7280   -1.5130   -2.8050 o         1 E38     -0.553300
     23 CL23       10.7580    0.0260   -0.1190 cl        1 E38     -0.030400
     24 O24         9.2480   -0.5070   -4.3960 o         1 E38     -0.553300
     25 N25        10.9120    0.9930   -3.1870 n4        1 E38     -0.789500
     26 H6         -2.5240   -0.4510    1.2520 ha        1 E38      0.150000
     27 H7         -2.6770   -0.5140    3.7330 ha        1 E38      0.157000
     28 H9          1.6150    0.0610    4.1390 ha        1 E38      0.160000
     29 H11         4.0550    1.3760   -0.1130 h1        1 E38      0.114700
     30 H11A        4.2480   -0.4220   -0.0850 h1        1 E38      0.114700
     31 H16         7.1180    0.0000   -3.3690 ha        1 E38      0.203000
     32 H19         8.4570    0.5300    1.4210 ha        1 E38      0.193000
     33 H20         6.0710    0.7560    0.7640 ha        1 E38      0.187000
     34 HN25       10.6370    1.7010   -2.5120 hn        1 E38      0.461133
     35 HN2A       11.8820    0.7410   -2.9940 hn        1 E38      0.461133
     36 HN1        -0.4870   -0.1260   -0.8430 hn        1 E38      0.320700
     37 H253       10.8810    1.4180   -4.1140 hn        1 E38      0.461133
@<TRIPOS>BOND
     1    1    2 1   
     2    1    5 1   
     3    1   36 1   
     4    2    3 2   
     5    2   10 1   
     6    3    4 1   
     7    4    5 ar  
     8    4    9 ar  
     9    5    6 ar  
    10    6    7 ar  
    11    6   26 1   
    12    7    8 ar  
    13    7   27 1   
    14    8    9 ar  
    15    8   14 1   
    16    9   28 1   
    17   10   11 1   
    18   11   12 1   
    19   11   29 1   
    20   11   30 1   
    21   12   13 2   
    22   12   15 1   
    23   15   16 ar  
    24   15   20 ar  
    25   16   17 ar  
    26   16   31 1   
    27   17   18 ar  
    28   17   21 1   
    29   18   19 ar  
    30   18   23 1   
    31   19   20 ar  
    32   19   32 1   
    33   20   33 1   
    34   21   22 2   
    35   21   24 2   
    36   21   25 1   
    37   25   34 1   
    38   25   35 1   
    39   25   37 1   
@<TRIPOS>SUBSTRUCTURE
     1 E38         1 TEMP              0 ****  ****    0 ROOT
