@<TRIPOS>MOLECULE
E38
   37    39     1     0     0
SMALL
bcc


@<TRIPOS>ATOM
      1 N1          0.0720   -0.0520   -0.0290 na        1 E38     -0.252300
      2 C2          1.4700    0.1300    0.0160 cc        1 E38      0.378700
      3 N3          1.9510    0.1600    1.2820 nd        1 E38     -0.599100
      4 C4          0.8320   -0.0060    2.1160 ca        1 E38      0.070400
      5 C5         -0.3590   -0.1380    1.2970 ca        1 E38     -0.055200
      6 C6         -1.6230   -0.3160    1.8750 ca        1 E38     -0.127000
      7 C7         -1.6920   -0.3600    3.2580 ca        1 E38     -0.081000
      8 C8         -0.5410   -0.2330    4.0640 ca        1 E38     -0.041900
      9 C9          0.7220   -0.0560    3.5140 ca        1 E38     -0.047000
     10 S10         2.3810    0.2890   -1.4130 ss        1 E38     -0.046300
     11 C11         4.0130    0.4570   -0.7470 c3        1 E38     -0.149300
     12 C12         5.0490    0.5680   -1.8140 c         1 E38      0.592700
     13 O13         4.8180    0.7940   -3.0040 o         1 E38     -0.477100
     14 Br14       -0.7300   -0.3050    5.9270 br        1 E38     -0.071100
     15 C15         6.4590    0.3920   -1.3550 ca        1 E38     -0.184600
     16 C16         7.4320    0.1030   -2.3110 ca        1 E38      0.052000
     17 C17         8.7920   -0.0800   -1.9700 ca        1 E38     -0.536500
     18 C18         9.1360    0.0960   -0.6060 ca        1 E38      0.144400
     19 C19         8.1720    0.3770    0.3570 ca        1 E38     -0.143000
     20 C20         6.8310    0.5170   -0.0110 ca        1 E38      0.035000
     21 S21         9.7930   -0.5570   -3.1470 sy        1 E38      1.480200
     22 O22        10.7160   -1.5250   -2.8290 o         1 E38     -0.553300
     23 Cl23       10.7570   -0.0110   -0.1290 cl        1 E38     -0.030400
     24 O24         9.2390   -0.4960   -4.4080 o         1 E38     -0.553300
     25 N25        10.9130    0.9830   -3.1880 nz        1 E38     -0.789500
     26 H6         -2.5260   -0.4160    1.2580 ha        1 E38      0.150000
     27 H7         -2.6760   -0.4980    3.7380 ha        1 E38      0.157000
     28 H9          1.6200    0.0430    4.1420 ha        1 E38      0.160000
     29 H11         4.0630    1.3760   -0.1020 h1        1 E38      0.114700
     30 H11A        4.2450   -0.4230   -0.0900 h1        1 E38      0.114700
     31 H16         7.1130    0.0130   -3.3740 ha        1 E38      0.203000
     32 H19         8.4610    0.4900    1.4190 ha        1 E38      0.193000
     33 H20         6.0750    0.7350    0.7680 ha        1 E38      0.187000
     34 HN25       10.6420    1.6870   -2.5060 hn        1 E38      0.461133
     35 HN2A       11.8810    0.7240   -2.9980 hn        1 E38      0.461133
     36 HN1        -0.4900   -0.0880   -0.8380 hn        1 E38      0.320700
     37 H253       10.8830    1.4170   -4.1110 hn        1 E38      0.461133
@<TRIPOS>BOND
     1    1    2 1   
     2    1    5 1   
     3    1   36 1   
     4    2    3 2   
     5    2   10 1   
     6    3    4 1   
     7    4    5 ar  
     8    4    9 ar  
     9    5    6 ar  
    10    6    7 ar  
    11    6   26 1   
    12    7    8 ar  
    13    7   27 1   
    14    8    9 ar  
    15    8   14 1   
    16    9   28 1   
    17   10   11 1   
    18   11   12 1   
    19   11   29 1   
    20   11   30 1   
    21   12   13 2   
    22   12   15 1   
    23   15   16 ar  
    24   15   20 ar  
    25   16   17 ar  
    26   16   31 1   
    27   17   18 ar  
    28   17   21 1   
    29   18   19 ar  
    30   18   23 1   
    31   19   20 ar  
    32   19   32 1   
    33   20   33 1   
    34   21   22 2   
    35   21   24 2   
    36   21   25 1   
    37   25   34 1   
    38   25   35 1   
    39   25   37 1   
@<TRIPOS>SUBSTRUCTURE
     1 E38         1 TEMP              0 ****  ****    0 ROOT
