@<TRIPOS>MOLECULE
E38
   36    38     1     0     0
SMALL
bcc


@<TRIPOS>ATOM
      1 N1          3.3560   -2.6710   -0.0580 na        1 E38     -0.262300
      2 C2          2.2170   -1.8610    0.1520 cc        1 E38      0.392700
      3 N3          2.5180   -0.5410    0.1800 nd        1 E38     -0.592100
      4 C4          3.9080   -0.4640   -0.0180 ca        1 E38      0.075400
      5 C5          4.4460   -1.8060   -0.1680 ca        1 E38     -0.058200
      6 C6          5.8130   -2.0210   -0.3760 ca        1 E38     -0.131000
      7 C7          6.6350   -0.9060   -0.4350 ca        1 E38     -0.090000
      8 C8          6.1230    0.4000   -0.2920 ca        1 E38     -0.045900
      9 C9          4.7700    0.6390   -0.0840 ca        1 E38     -0.046000
     10 S10         0.6830   -2.5670    0.3430 ss        1 E38     -0.058300
     11 C11        -0.3520   -1.1370    0.4890 c3        1 E38     -0.145300
     12 C12        -1.7960   -1.5180    0.6220 c         1 E38      0.595700
     13 O13        -2.1700   -2.6660    0.8800 o         1 E38     -0.502100
     14 BR14        7.3090    1.8500   -0.3860 br        1 E38     -0.089100
     15 C15        -2.7630   -0.4140    0.4270 ca        1 E38     -0.199600
     16 C16        -4.0950   -0.7320    0.1380 ca        1 E38      0.030000
     17 C17        -5.0630    0.2600   -0.0630 ca        1 E38     -0.365500
     18 C18        -4.6590    1.5970    0.0600 ca        1 E38      0.147400
     19 C19        -3.3340    1.9350    0.3530 ca        1 E38     -0.162000
     20 C20        -2.3870    0.9300    0.5320 ca        1 E38     -0.030000
     21 S21        -6.6470   -0.2520   -0.4850 sy        1 E38      1.522200
     22 O22        -6.9850    0.3120   -1.7270 o         1 E38     -0.646800
     23 CL23       -5.7780    2.8590   -0.1410 cl        1 E38     -0.069400
     24 O24        -6.6640   -1.6600   -0.3970 o         1 E38     -0.646800
     25 N25        -7.5520    0.3680    0.6720 n3        1 E38     -1.026700
     26 H6          6.2220   -3.0340   -0.4890 ha        1 E38      0.143000
     27 H7          7.7160   -1.0490   -0.5990 ha        1 E38      0.149000
     28 H9          4.3700    1.6580    0.0280 ha        1 E38      0.161000
     29 H11        -0.0530   -0.5400    1.3900 h1        1 E38      0.109700
     30 H11A       -0.2200   -0.4780   -0.4080 h1        1 E38      0.109700
     31 H16        -4.3860   -1.8020    0.0670 ha        1 E38      0.194000
     32 H19        -3.0360    2.9920    0.4400 ha        1 E38      0.161000
     33 H20        -1.3450    1.2080    0.7620 ha        1 E38      0.151000
     34 HN25       -7.7700   -0.1110    1.5100 hn        1 E38      0.453300
     35 HN2A       -7.9710    1.2630    0.6240 hn        1 E38      0.453300
     36 HN1         3.3730   -3.6550   -0.1070 hn        1 E38      0.316700
@<TRIPOS>BOND
     1    1    2 1   
     2    1    5 1   
     3    1   36 1   
     4    2    3 2   
     5    2   10 1   
     6    3    4 1   
     7    4    5 ar  
     8    4    9 ar  
     9    5    6 ar  
    10    6    7 ar  
    11    6   26 1   
    12    7    8 ar  
    13    7   27 1   
    14    8    9 ar  
    15    8   14 1   
    16    9   28 1   
    17   10   11 1   
    18   11   12 1   
    19   11   29 1   
    20   11   30 1   
    21   12   13 2   
    22   12   15 1   
    23   15   16 ar  
    24   15   20 ar  
    25   16   17 ar  
    26   16   31 1   
    27   17   18 ar  
    28   17   21 1   
    29   18   19 ar  
    30   18   23 1   
    31   19   20 ar  
    32   19   32 1   
    33   20   33 1   
    34   21   22 2   
    35   21   24 2   
    36   21   25 1   
    37   25   34 1   
    38   25   35 1   
@<TRIPOS>SUBSTRUCTURE
     1 E38         1 TEMP              0 ****  ****    0 ROOT
