@<TRIPOS>MOLECULE
E38
   37    39     1     0     0
SMALL
bcc


@<TRIPOS>ATOM
      1 N1          0.0720   -0.0690   -0.0290 na        1 E38     -0.252300
      2 C2          1.4700    0.1150    0.0170 cc        1 E38      0.378700
      3 N3          1.9510    0.1420    1.2820 nd        1 E38     -0.599100
      4 C4          0.8330   -0.0280    2.1160 ca        1 E38      0.070400
      5 C5         -0.3590   -0.1600    1.2970 ca        1 E38     -0.055200
      6 C6         -1.6220   -0.3410    1.8750 ca        1 E38     -0.127000
      7 C7         -1.6910   -0.3890    3.2570 ca        1 E38     -0.081000
      8 C8         -0.5390   -0.2620    4.0640 ca        1 E38     -0.041900
      9 C9          0.7230   -0.0820    3.5140 ca        1 E38     -0.047000
     10 S10         2.3810    0.2780   -1.4130 ss        1 E38     -0.046300
     11 C11         4.0130    0.4480   -0.7460 c3        1 E38     -0.149300
     12 C12         5.0480    0.5660   -1.8130 c         1 E38      0.592700
     13 O13         4.8160    0.7930   -3.0030 o         1 E38     -0.477100
     14 BR14       -0.7280   -0.3390    5.9270 br        1 E38     -0.071100
     15 C15         6.4580    0.3930   -1.3550 ca        1 E38     -0.184600
     16 C16         7.4330    0.1110   -2.3120 ca        1 E38      0.052000
     17 C17         8.7930   -0.0680   -1.9710 ca        1 E38     -0.536500
     18 C18         9.1360    0.1040   -0.6070 ca        1 E38      0.144400
     19 C19         8.1710    0.3790    0.3580 ca        1 E38     -0.143000
     20 C20         6.8300    0.5150   -0.0110 ca        1 E38      0.035000
     21 S21         9.7960   -0.5380   -3.1500 sy        1 E38      1.480200
     22 O22        10.7230   -1.5020   -2.8360 o         1 E38     -0.553300
     23 CL23       10.7580    0.0020   -0.1300 cl        1 E38     -0.030400
     24 O24         9.2420   -0.4740   -4.4110 o         1 E38     -0.553300
     25 N25        10.9100    1.0080   -3.1860 n4        1 E38     -0.789500
     26 H6         -2.5250   -0.4410    1.2570 ha        1 E38      0.150000
     27 H7         -2.6740   -0.5300    3.7370 ha        1 E38      0.157000
     28 H9          1.6210    0.0170    4.1420 ha        1 E38      0.160000
     29 H11         4.2460   -0.4340   -0.0920 h1        1 E38      0.114700
     30 H11A        4.0600    1.3650   -0.0980 h1        1 E38      0.114700
     31 H16         7.1140    0.0230   -3.3750 ha        1 E38      0.203000
     32 H19         8.4600    0.4890    1.4190 ha        1 E38      0.193000
     33 H20         6.0740    0.7270    0.7690 ha        1 E38      0.187000
     34 HN25       10.6360    1.7080   -2.5020 hn        1 E38      0.461133
     35 HN2A       11.8790    0.7520   -2.9970 hn        1 E38      0.461133
     36 HN1        -0.4900   -0.1050   -0.8380 hn        1 E38      0.320700
     37 H253       10.8780    1.4450   -4.1070 hn        1 E38      0.461133
@<TRIPOS>BOND
     1    1    2 1   
     2    1    5 1   
     3    1   36 1   
     4    2    3 2   
     5    2   10 1   
     6    3    4 1   
     7    4    5 ar  
     8    4    9 ar  
     9    5    6 ar  
    10    6    7 ar  
    11    6   26 1   
    12    7    8 ar  
    13    7   27 1   
    14    8    9 ar  
    15    8   14 1   
    16    9   28 1   
    17   10   11 1   
    18   11   12 1   
    19   11   29 1   
    20   11   30 1   
    21   12   13 2   
    22   12   15 1   
    23   15   16 ar  
    24   15   20 ar  
    25   16   17 ar  
    26   16   31 1   
    27   17   18 ar  
    28   17   21 1   
    29   18   19 ar  
    30   18   23 1   
    31   19   20 ar  
    32   19   32 1   
    33   20   33 1   
    34   21   22 2   
    35   21   24 2   
    36   21   25 1   
    37   25   34 1   
    38   25   35 1   
    39   25   37 1   
@<TRIPOS>SUBSTRUCTURE
     1 E38         1 TEMP              0 ****  ****    0 ROOT
