@<TRIPOS>MOLECULE
E38
   36    30     1     0     0
SMALL
bcc


@<TRIPOS>ATOM
      1 N1         -3.5070    0.1620    2.2130 n2        1 E38     -0.180500
      2 C2         -2.1780    0.2420    1.9410 c1        1 E38     -0.156000
      3 N3         -1.5070    0.2800    3.1220 n2        1 E38     -0.180500
      4 C4         -2.4180    0.2230    4.1240 c1        1 E38     -0.040500
      5 C5         -3.6590    0.1500    3.5610 c1        1 E38     -0.040500
      6 C6         -4.8000    0.0660    4.3810 c1        1 E38     -0.086500
      7 C7         -4.6640    0.0570    5.7600 c1        1 E38     -0.087000
      8 C8         -3.4040    0.1320    6.3320 c1        1 E38     -0.187000
      9 C9         -2.2800    0.2140    5.5260 c1        1 E38     -0.086500
     10 S10        -1.5570    1.0280    0.4770 s         1 E38      0.295000
     11 C11        -0.4910   -0.0940   -0.3900 c3        1 E38     -0.345000
     12 C12         0.0370    0.5760   -1.6400 c2        1 E38      0.279000
     13 O13        -0.3930    1.6620   -1.9750 o         1 E38     -0.254000
     14 BR14       -3.3950    0.1140    8.2440 br        1 E38      0.055000
     15 C15         1.0720   -0.1240   -2.4950 c2        1 E38     -0.180000
     16 C16         2.3810    0.3320   -2.5100 c2        1 E38      0.030000
     17 C17         3.3130   -0.2640   -3.3450 c1        1 E38     -0.811000
     18 C18         2.9360   -1.3170   -4.1650 c1        1 E38      0.069000
     19 C19         1.6280   -1.7730   -4.1500 c1        1 E38     -0.162000
     20 C20         0.6950   -1.1760   -3.3150 c1        1 E38     -0.033000
     21 S21         4.9700    0.3640   -3.4150 s4        1 E38      2.077800
     22 O22         5.3300    1.0220   -2.1900 o         1 E38     -0.534400
     23 CL23        4.1040   -2.0520   -5.2310 cl        1 E38      0.008000
     24 O24         5.9310   -0.7040   -3.4510 o         1 E38     -0.534400
     25 N25         5.1440    1.3670   -4.7030 n2        1 E38     -0.953000
     26 H6         -5.6880    0.0130    3.9780 ha        1 E38      0.153500
     27 H7         -5.4550   -0.0010    6.3280 ha        1 E38      0.150000
     28 H9         -1.3930    0.2670    5.9290 ha        1 E38      0.153500
     29 H11        -0.9940   -0.8960   -0.6380 h1        1 E38      0.152500
     30 H11A        0.2580   -0.3440    0.1870 h1        1 E38      0.152500
     31 H16         2.6460    1.0730   -1.9330 ha        1 E38      0.192000
     32 H19         1.3620   -2.5140   -4.7270 ha        1 E38      0.160000
     33 H20        -0.2260   -1.4980   -3.3040 ha        1 E38      0.160000
     34 HN25        5.3920    1.0280   -5.5160 hn        1 E38      0.248500
     35 HN2A        4.9900    2.2630   -4.6090 hn        1 E38      0.248500
     36 HN1        -4.1790    0.1230    1.5980 DU        1 E38      0.267000
@<TRIPOS>BOND
     1    1    2 1   
     2    1    5 1   
     3    2    3 1   
     4    3    4 1   
     5    4    9 1   
     6    5    6 1   
     7    6   26 1   
     8    7    8 1   
     9    7   27 1   
    10    8   14 1   
    11    9   28 1   
    12   10   11 1   
    13   11   12 1   
    14   11   29 1   
    15   11   30 1   
    16   12   13 1   
    17   12   15 1   
    18   15   16 1   
    19   15   20 1   
    20   16   17 1   
    21   16   31 1   
    22   17   21 1   
    23   18   19 1   
    24   18   23 1   
    25   19   32 1   
    26   20   33 1   
    27   21   22 1   
    28   21   24 1   
    29   25   34 1   
    30   25   35 1   
@<TRIPOS>SUBSTRUCTURE
     1 E38         1 TEMP              0 ****  ****    0 ROOT
