@<TRIPOS>MOLECULE
E3G
   61    65     1     0     0
SMALL
bcc


@<TRIPOS>ATOM
      1 C1'         0.1300    0.0690    0.1430 c3        1 E3G      0.336900
      2 C2'         1.5870    0.3330   -0.2920 c3        1 E3G      0.120100
      3 C3'         2.5310    0.0670    0.8920 c3        1 E3G      0.098100
      4 C4'         2.0530    0.8100    2.1500 c3        1 E3G      0.115100
      5 C5'         0.5970    0.4320    2.4390 c3        1 E3G     -0.021900
      6 C6'        -0.0040    1.1700    3.6740 c         1 E3G      0.937600
      7 C1         -4.1750    0.1800    0.3630 ca        1 E3G     -0.117000
      8 C2         -2.8080    0.4340    0.4210 ca        1 E3G     -0.142000
      9 C3         -2.0560    0.3530   -0.7590 ca        1 E3G      0.119100
     10 C4         -2.6740    0.0300   -1.9740 ca        1 E3G     -0.157000
     11 C5         -4.0520   -0.2080   -2.0190 ca        1 E3G     -0.078300
     12 C6         -4.6460   -0.5080   -3.3530 c3        1 E3G     -0.028100
     13 C7         -6.0820   -0.9820   -3.2920 c3        1 E3G     -0.070400
     14 C8         -6.8560   -0.1730   -2.2670 c3        1 E3G     -0.048700
     15 C9         -6.2790   -0.4570   -0.8680 c3        1 E3G     -0.003400
     16 C10        -4.8160   -0.1380   -0.8410 ca        1 E3G     -0.103300
     17 C11        -7.0660    0.2520    0.2300 c3        1 E3G     -0.076400
     18 C12        -8.5740    0.0630    0.1450 c3        1 E3G     -0.055400
     19 C13        -9.0830    0.3810   -1.2480 c3        1 E3G     -0.149000
     20 C14        -8.3230   -0.5300   -2.2410 c3        1 E3G     -0.061700
     21 C15        -9.1530   -0.4770   -3.5190 c3        1 E3G     -0.072400
     22 C16       -10.5990   -0.3910   -3.0230 c3        1 E3G     -0.189400
     23 C17       -10.5310    0.0280   -1.5660 c         1 E3G      0.577100
     24 C18        -8.9410    1.8700   -1.5400 c3        1 E3G     -0.083100
     25 O8'         1.8760   -0.5580   -1.3580 oh        1 E3G     -0.603800
     26 O9'         3.8240    0.4930    0.4830 oh        1 E3G     -0.630800
     27 O10         2.9320    0.4210    3.1900 oh        1 E3G     -0.655800
     28 O11        -1.2530    1.2360    3.7670 o         1 E3G     -0.817800
     29 O12         0.8270    1.6010    4.5240 o         1 E3G     -0.817800
     30 O7'        -0.1980    0.7930    1.3120 os        1 E3G     -0.401600
     31 O20        -0.7090    0.6750   -0.8380 os        1 E3G     -0.330900
     32 O19       -11.4910    0.0780   -0.8010 o         1 E3G     -0.530100
     33 H1'        -0.0810   -1.0280    0.2530 h2        1 E3G      0.052700
     34 H2'         1.6930    1.3960   -0.6430 h1        1 E3G      0.070700
     35 H3'         2.5750   -1.0400    1.1010 h1        1 E3G      0.050700
     36 H4'         2.1290    1.9220    1.9940 h1        1 E3G      0.058700
     37 H5'         0.5210   -0.6740    2.6240 h1        1 E3G      0.035700
     38 H4         -2.0700   -0.0230   -2.8910 ha        1 E3G      0.137000
     39 H61        -4.5920    0.4260   -3.9770 hc        1 E3G      0.043700
     40 H62        -4.0230   -1.2860   -3.8720 hc        1 E3G      0.043700
     41 H71        -6.1180   -2.0690   -3.0210 hc        1 E3G      0.035700
     42 H72        -6.5610   -0.8720   -4.3000 hc        1 E3G      0.035700
     43 H8         -6.7300    0.9190   -2.5070 hc        1 E3G      0.061700
     44 H9         -6.3750   -1.5690   -0.6830 hc        1 E3G      0.048700
     45 H111       -6.7350   -0.1460    1.2270 hc        1 E3G      0.052200
     46 H112       -6.8200    1.3460    0.2120 hc        1 E3G      0.052200
     47 H121       -8.8390   -0.9960    0.4040 hc        1 E3G      0.047700
     48 H122       -9.0750    0.7290    0.8940 hc        1 E3G      0.047700
     49 H14        -8.4000   -1.5900   -1.8530 hc        1 E3G      0.049700
     50 H151       -8.8860    0.4170   -4.1340 hc        1 E3G      0.047200
     51 H152       -8.9910   -1.3870   -4.1460 hc        1 E3G      0.047200
     52 H161      -11.1890    0.3610   -3.6040 hc        1 E3G      0.068700
     53 H162      -11.1170   -1.3780   -3.1080 hc        1 E3G      0.068700
     54 H181       -9.6380    2.4450   -0.8820 hc        1 E3G      0.044367
     55 H182       -7.9000    2.2190   -1.3410 hc        1 E3G      0.044367
     56 H183       -9.1900    2.0850   -2.6070 hc        1 E3G      0.044367
     57 HO8         2.8170   -0.4490   -1.5450 ho        1 E3G      0.410000
     58 HO9         4.3350    0.6220    1.2930 ho        1 E3G      0.425000
     59 HO1         2.5560    0.7790    4.0160 ho        1 E3G      0.466000
     60 H1         -4.7490    0.2420    1.3000 ha        1 E3G      0.136000
     61 H2         -2.3260    0.7000    1.3860 ha        1 E3G      0.216000
@<TRIPOS>BOND
     1    1    2 1   
     2    1   30 1   
     3    1   31 1   
     4    1   33 1   
     5    2    3 1   
     6    2   25 1   
     7    2   34 1   
     8    3    4 1   
     9    3   26 1   
    10    3   35 1   
    11    4    5 1   
    12    4   27 1   
    13    4   36 1   
    14    5    6 1   
    15    5   30 1   
    16    5   37 1   
    17    6   28 1   
    18    6   29 1   
    19    7    8 ar  
    20    7   16 ar  
    21    7   60 1   
    22    8    9 ar  
    23    8   61 1   
    24    9   10 ar  
    25    9   31 1   
    26   10   11 ar  
    27   10   38 1   
    28   11   12 1   
    29   11   16 ar  
    30   12   13 1   
    31   12   39 1   
    32   12   40 1   
    33   13   14 1   
    34   13   41 1   
    35   13   42 1   
    36   14   15 1   
    37   14   20 1   
    38   14   43 1   
    39   15   16 1   
    40   15   17 1   
    41   15   44 1   
    42   17   18 1   
    43   17   45 1   
    44   17   46 1   
    45   18   19 1   
    46   18   47 1   
    47   18   48 1   
    48   19   20 1   
    49   19   23 1   
    50   19   24 1   
    51   20   21 1   
    52   20   49 1   
    53   21   22 1   
    54   21   50 1   
    55   21   51 1   
    56   22   23 1   
    57   22   52 1   
    58   22   53 1   
    59   23   32 2   
    60   24   54 1   
    61   24   55 1   
    62   24   56 1   
    63   25   57 1   
    64   26   58 1   
    65   27   59 1   
@<TRIPOS>SUBSTRUCTURE
     1 E3G         1 TEMP              0 ****  ****    0 ROOT
