@<TRIPOS>MOLECULE
E3G
   61    65     1     0     0
SMALL
bcc


@<TRIPOS>ATOM
      1 C1'        -0.8200   -0.0890   -3.5450 c3        1 E3G      0.302900
      2 C2'        -1.4600    0.4840   -4.8230 c3        1 E3G      0.077100
      3 C3'        -0.8860   -0.2290   -6.0610 c3        1 E3G      0.143100
      4 C4'         0.6550   -0.2560   -6.0140 c3        1 E3G      0.152100
      5 C5'         1.1460   -0.7540   -4.6480 c3        1 E3G     -0.031900
      6 C6'         2.6960   -0.6660   -4.4820 c         1 E3G      0.937600
      7 C1          0.7020   -0.3580    0.4890 ca        1 E3G     -0.116000
      8 C2          0.4410   -0.0620   -0.8460 ca        1 E3G     -0.137000
      9 C3         -0.8440    0.3710   -1.2000 ca        1 E3G      0.119100
     10 C4         -1.8420    0.5090   -0.2260 ca        1 E3G     -0.164000
     11 C5         -1.5600    0.2220    1.1140 ca        1 E3G     -0.076300
     12 C6         -2.6590    0.4310    2.0990 c3        1 E3G     -0.028100
     13 C7         -2.3580   -0.1190    3.4770 c3        1 E3G     -0.070400
     14 C8         -0.9180    0.1750    3.8540 c3        1 E3G     -0.048700
     15 C9          0.0150   -0.5960    2.9010 c3        1 E3G     -0.004400
     16 C10        -0.2780   -0.2210    1.4820 ca        1 E3G     -0.100300
     17 C11         1.4840   -0.4230    3.2760 c3        1 E3G     -0.076400
     18 C12         1.7890   -0.6600    4.7480 c3        1 E3G     -0.055400
     19 C13         0.8550    0.1440    5.6320 c3        1 E3G     -0.149000
     20 C14        -0.5940   -0.2570    5.2650 c3        1 E3G     -0.061700
     21 C15        -1.4350    0.2380    6.4360 c3        1 E3G     -0.072400
     22 C16        -0.5350    0.0320    7.6580 c3        1 E3G     -0.189400
     23 C17         0.8760   -0.1480    7.1280 c         1 E3G      0.577100
     24 C18         1.1400    1.6340    5.4920 c3        1 E3G     -0.083100
     25 O8'        -2.8630    0.2620   -4.8320 oh        1 E3G     -0.617800
     26 O9'        -1.2720    0.4860   -7.2240 oh        1 E3G     -0.586800
     27 O10         1.0700   -1.1470   -7.0340 oh        1 E3G     -0.630800
     28 O11         3.1560   -0.6510   -3.3150 o         1 E3G     -0.817800
     29 O12         3.3720   -0.6710   -5.5490 o         1 E3G     -0.817800
     30 O7'         0.5820    0.0380   -3.6030 os        1 E3G     -0.394600
     31 O20        -1.1990    0.7790   -2.4790 os        1 E3G     -0.355900
     32 O19         1.8500   -0.4610    7.8080 o         1 E3G     -0.529100
     33 H1'        -1.1450   -1.1460   -3.3440 h2        1 E3G      0.047700
     34 H2'        -1.2490    1.5870   -4.8850 h1        1 E3G      0.072700
     35 H3'        -1.2850   -1.2800   -6.1120 h1        1 E3G      0.050700
     36 H4'         1.0590    0.7730   -6.2170 h1        1 E3G      0.063700
     37 H5'         0.8470   -1.8290   -4.5130 h1        1 E3G      0.034700
     38 H4         -2.8410    0.8600   -0.5190 ha        1 E3G      0.130000
     39 H61        -3.6020   -0.0410    1.7120 hc        1 E3G      0.042700
     40 H62        -2.8520    1.5360    2.1770 hc        1 E3G      0.042700
     41 H71        -2.5370   -1.2260    3.4970 hc        1 E3G      0.036200
     42 H72        -3.0490    0.3460    4.2290 hc        1 E3G      0.036200
     43 H8         -0.7380    1.2790    3.7390 hc        1 E3G      0.061700
     44 H9         -0.2300   -1.6960    3.0070 hc        1 E3G      0.049700
     45 H111        1.8210    0.6040    2.9790 hc        1 E3G      0.052700
     46 H112        2.0960   -1.1570    2.6850 hc        1 E3G      0.052700
     47 H121        2.8520   -0.3720    4.9580 hc        1 E3G      0.048200
     48 H122        1.6810   -1.7500    4.9880 hc        1 E3G      0.048200
     49 H14        -0.6470   -1.3870    5.2870 hc        1 E3G      0.050700
     50 H151       -1.7010    1.3170    6.3110 hc        1 E3G      0.047200
     51 H152       -2.3850   -0.3420    6.5280 hc        1 E3G      0.047200
     52 H161       -0.5700    0.9110    8.3470 hc        1 E3G      0.068700
     53 H162       -0.8380   -0.8750    8.2370 hc        1 E3G      0.068700
     54 H181        1.1370    1.9440    4.4200 hc        1 E3G      0.044367
     55 H182        0.3700    2.2330    6.0360 hc        1 E3G      0.044367
     56 H183        2.1460    1.8620    5.9220 hc        1 E3G      0.044367
     57 HO8        -3.2040    0.6710   -4.0270 ho        1 E3G      0.409000
     58 HO9        -2.2360    0.4540   -7.2470 ho        1 E3G      0.395000
     59 HO1         2.0430   -1.1760   -6.9820 ho        1 E3G      0.454000
     60 H1          1.7140   -0.7040    0.7500 ha        1 E3G      0.138000
     61 H2          1.2420   -0.1680   -1.6080 ha        1 E3G      0.223000
@<TRIPOS>BOND
     1    1    2 1   
     2    1   30 1   
     3    1   31 1   
     4    1   33 1   
     5    2    3 1   
     6    2   25 1   
     7    2   34 1   
     8    3    4 1   
     9    3   26 1   
    10    3   35 1   
    11    4    5 1   
    12    4   27 1   
    13    4   36 1   
    14    5    6 1   
    15    5   30 1   
    16    5   37 1   
    17    6   28 1   
    18    6   29 1   
    19    7    8 ar  
    20    7   16 ar  
    21    7   60 1   
    22    8    9 ar  
    23    8   61 1   
    24    9   10 ar  
    25    9   31 1   
    26   10   11 ar  
    27   10   38 1   
    28   11   12 1   
    29   11   16 ar  
    30   12   13 1   
    31   12   39 1   
    32   12   40 1   
    33   13   14 1   
    34   13   41 1   
    35   13   42 1   
    36   14   15 1   
    37   14   20 1   
    38   14   43 1   
    39   15   16 1   
    40   15   17 1   
    41   15   44 1   
    42   17   18 1   
    43   17   45 1   
    44   17   46 1   
    45   18   19 1   
    46   18   47 1   
    47   18   48 1   
    48   19   20 1   
    49   19   23 1   
    50   19   24 1   
    51   20   21 1   
    52   20   49 1   
    53   21   22 1   
    54   21   50 1   
    55   21   51 1   
    56   22   23 1   
    57   22   52 1   
    58   22   53 1   
    59   23   32 2   
    60   24   54 1   
    61   24   55 1   
    62   24   56 1   
    63   25   57 1   
    64   26   58 1   
    65   27   59 1   
@<TRIPOS>SUBSTRUCTURE
     1 E3G         1 TEMP              0 ****  ****    0 ROOT
