@<TRIPOS>MOLECULE
E3G
   61    65     1     0     0
SMALL
bcc


@<TRIPOS>ATOM
      1 C1'         0.1350    0.0690    0.1440 c3        1 E3G      0.336900
      2 C2'         1.5920    0.3280   -0.2930 c3        1 E3G      0.120100
      3 C3'         2.5350    0.0710    0.8930 c3        1 E3G      0.098100
      4 C4'         2.0580    0.8260    2.1450 c3        1 E3G      0.115100
      5 C5'         0.6020    0.4520    2.4370 c3        1 E3G     -0.021900
      6 C6'         0.0020    1.2010    3.6660 c         1 E3G      0.937600
      7 C1         -4.1700    0.1850    0.3640 ca        1 E3G     -0.117000
      8 C2         -2.8030    0.4380    0.4190 ca        1 E3G     -0.142000
      9 C3         -2.0510    0.3470   -0.7610 ca        1 E3G      0.119100
     10 C4         -2.6700    0.0140   -1.9730 ca        1 E3G     -0.158000
     11 C5         -4.0480   -0.2240   -2.0160 ca        1 E3G     -0.077300
     12 C6         -4.6420   -0.5340   -3.3470 c3        1 E3G     -0.028100
     13 C7         -6.0790   -1.0050   -3.2820 c3        1 E3G     -0.070400
     14 C8         -6.8510   -0.1880   -2.2640 c3        1 E3G     -0.048700
     15 C9         -6.2740   -0.4610   -0.8620 c3        1 E3G     -0.003400
     16 C10        -4.8110   -0.1430   -0.8380 ca        1 E3G     -0.103300
     17 C11        -7.0610    0.2580    0.2300 c3        1 E3G     -0.076400
     18 C12        -8.5690    0.0690    0.1460 c3        1 E3G     -0.055400
     19 C13        -9.0790    0.3760   -1.2490 c3        1 E3G     -0.149000
     20 C14        -8.3190   -0.5440   -2.2350 c3        1 E3G     -0.061700
     21 C15        -9.1490   -0.5000   -3.5130 c3        1 E3G     -0.072400
     22 C16       -10.5950   -0.4080   -3.0180 c3        1 E3G     -0.189400
     23 C17       -10.5270    0.0220   -1.5640 c         1 E3G      0.577100
     24 C18        -8.9350    1.8630   -1.5530 c3        1 E3G     -0.083100
     25 O8'         1.8800   -0.5730   -1.3510 oh        1 E3G     -0.603800
     26 O9'         3.8290    0.4940    0.4800 oh        1 E3G     -0.630800
     27 O10         2.9370    0.4460    3.1880 oh        1 E3G     -0.655800
     28 O11        -1.2470    1.2690    3.7580 o         1 E3G     -0.817800
     29 O12         0.8330    1.6400    4.5110 o         1 E3G     -0.817800
     30 O7'        -0.1930    0.8040    1.3060 os        1 E3G     -0.401600
     31 O20        -0.7040    0.6670   -0.8420 os        1 E3G     -0.330900
     32 O19       -11.4870    0.0790   -0.7990 o         1 E3G     -0.530100
     33 H1'        -0.0770   -1.0270    0.2640 h2        1 E3G      0.052700
     34 H2'         1.6990    1.3870   -0.6540 h1        1 E3G      0.070700
     35 H3'         2.5790   -1.0330    1.1110 h1        1 E3G      0.050700
     36 H4'         2.1350    1.9370    1.9790 h1        1 E3G      0.058700
     37 H5'         0.5250   -0.6530    2.6320 h1        1 E3G      0.035700
     38 H4         -2.0650   -0.0460   -2.8890 ha        1 E3G      0.137000
     39 H61        -4.0200   -1.3160   -3.8600 hc        1 E3G      0.043700
     40 H62        -4.5870    0.3960   -3.9780 hc        1 E3G      0.043700
     41 H71        -6.5570   -0.9030   -4.2910 hc        1 E3G      0.035700
     42 H72        -6.1150   -2.0900   -3.0020 hc        1 E3G      0.035700
     43 H8         -6.7250    0.9020   -2.5120 hc        1 E3G      0.061700
     44 H9         -6.3720   -1.5710   -0.6680 hc        1 E3G      0.048700
     45 H111       -6.8140    1.3510    0.2030 hc        1 E3G      0.052200
     46 H112       -6.7300   -0.1320    1.2300 hc        1 E3G      0.052200
     47 H121       -8.8350   -0.9870    0.4140 hc        1 E3G      0.047700
     48 H122       -9.0700    0.7420    0.8900 hc        1 E3G      0.047700
     49 H14        -8.3970   -1.6000   -1.8380 hc        1 E3G      0.049700
     50 H151       -8.8810    0.3890   -4.1350 hc        1 E3G      0.047200
     51 H152       -8.9880   -1.4150   -4.1330 hc        1 E3G      0.047200
     52 H161      -11.1140   -1.3960   -3.0940 hc        1 E3G      0.068700
     53 H162      -11.1840    0.3390   -3.6040 hc        1 E3G      0.068700
     54 H181       -7.8940    2.2130   -1.3570 hc        1 E3G      0.044367
     55 H182       -9.1840    2.0700   -2.6210 hc        1 E3G      0.044367
     56 H183       -9.6310    2.4440   -0.9000 hc        1 E3G      0.044367
     57 HO8         2.8210   -0.4650   -1.5400 ho        1 E3G      0.410000
     58 HO9         4.3400    0.6290    1.2890 ho        1 E3G      0.425000
     59 HO1         2.5620    0.8120    4.0110 ho        1 E3G      0.466000
     60 H1         -4.7440    0.2550    1.3000 ha        1 E3G      0.136000
     61 H2         -2.3210    0.7120    1.3810 ha        1 E3G      0.216000
@<TRIPOS>BOND
     1    1    2 1   
     2    1   30 1   
     3    1   31 1   
     4    1   33 1   
     5    2    3 1   
     6    2   25 1   
     7    2   34 1   
     8    3    4 1   
     9    3   26 1   
    10    3   35 1   
    11    4    5 1   
    12    4   27 1   
    13    4   36 1   
    14    5    6 1   
    15    5   30 1   
    16    5   37 1   
    17    6   28 1   
    18    6   29 1   
    19    7    8 ar  
    20    7   16 ar  
    21    7   60 1   
    22    8    9 ar  
    23    8   61 1   
    24    9   10 ar  
    25    9   31 1   
    26   10   11 ar  
    27   10   38 1   
    28   11   12 1   
    29   11   16 ar  
    30   12   13 1   
    31   12   39 1   
    32   12   40 1   
    33   13   14 1   
    34   13   41 1   
    35   13   42 1   
    36   14   15 1   
    37   14   20 1   
    38   14   43 1   
    39   15   16 1   
    40   15   17 1   
    41   15   44 1   
    42   17   18 1   
    43   17   45 1   
    44   17   46 1   
    45   18   19 1   
    46   18   47 1   
    47   18   48 1   
    48   19   20 1   
    49   19   23 1   
    50   19   24 1   
    51   20   21 1   
    52   20   49 1   
    53   21   22 1   
    54   21   50 1   
    55   21   51 1   
    56   22   23 1   
    57   22   52 1   
    58   22   53 1   
    59   23   32 2   
    60   24   54 1   
    61   24   55 1   
    62   24   56 1   
    63   25   57 1   
    64   26   58 1   
    65   27   59 1   
@<TRIPOS>SUBSTRUCTURE
     1 E3G         1 TEMP              0 ****  ****    0 ROOT
