@<TRIPOS>MOLECULE
E3O
   45    48     1     0     0
SMALL
bcc


@<TRIPOS>ATOM
      1 C2         -3.3120    0.8790   -3.2570 c3        1 E3O     -0.008400
      2 C3         -4.4030    0.4020   -2.3040 c3        1 E3O     -0.072400
      3 C4         -5.7620    0.2150   -2.9610 c3        1 E3O     -0.061400
      4 C5         -6.1710    1.4490   -3.7440 c3        1 E3O     -0.086000
      5 C6         -6.4450    2.6030   -2.7910 c3        1 E3O     -0.084100
      6 C7         -7.4130    1.3150   -4.6590 c3        1 E3O      0.111100
      7 O1         -7.5630    0.0400   -5.2470 oh        1 E3O     -0.588800
      8 C8         -7.1880    2.4120   -5.7440 c3        1 E3O      0.108100
      9 O2         -7.6490    2.0420   -7.0230 oh        1 E3O     -0.586800
     10 C9         -5.6790    2.7380   -5.7450 c3        1 E3O     -0.110400
     11 C10        -5.0560    1.7480   -4.7720 c3        1 E3O     -0.064700
     12 C12        -3.7630    2.1040   -4.0730 c3        1 E3O     -0.047700
     13 C14        -2.6650    2.4760   -5.0520 c3        1 E3O     -0.074400
     14 C15        -1.4330    2.9350   -4.3040 c3        1 E3O     -0.038100
     15 C16        -1.1170    2.1140   -3.1000 ca        1 E3O     -0.037300
     16 C17         0.1170    2.3380   -2.4840 ca        1 E3O     -0.162000
     17 C18         0.4630    1.6170   -1.3330 ca        1 E3O      0.124100
     18 O3          1.6940    1.8910   -0.7800 oh        1 E3O     -0.498100
     19 C19        -0.4190    0.6720   -0.7950 ca        1 E3O     -0.215000
     20 C20        -1.6430    0.4560   -1.4200 ca        1 E3O     -0.090000
     21 C21        -2.0130    1.1670   -2.5680 ca        1 E3O     -0.102300
     22 H2         -3.1130    0.0400   -3.9890 hc        1 E3O      0.054700
     23 H3C1       -4.4900    1.1250   -1.4520 hc        1 E3O      0.044700
     24 H3C2       -4.1020   -0.5900   -1.8720 hc        1 E3O      0.044700
     25 H12        -3.9320    2.9730   -3.3790 hc        1 E3O      0.063700
     26 H4C1       -5.7290   -0.6730   -3.6450 hc        1 E3O      0.045700
     27 H4C2       -6.5260   -0.0020   -2.1690 hc        1 E3O      0.045700
     28 H6C1       -5.5790    2.7850   -2.1120 hc        1 E3O      0.040700
     29 H6C2       -6.6490    3.5410   -3.3620 hc        1 E3O      0.040700
     30 H6C3       -7.3370    2.3660   -2.1610 hc        1 E3O      0.040700
     31 H7         -8.3750    1.4800   -4.1060 h1        1 E3O      0.089700
     32 H10        -4.8630    0.7960   -5.3510 hc        1 E3O      0.037700
     33 H1         -6.6920   -0.2560   -5.5410 ho        1 E3O      0.399000
     34 H8         -7.7850    3.3290   -5.4870 h1        1 E3O      0.077700
     35 HA         -7.4680    1.1010   -7.1510 ho        1 E3O      0.406000
     36 H9C1       -5.5110    3.7910   -5.4110 hc        1 E3O      0.057700
     37 H9C2       -5.2530    2.6280   -6.7710 hc        1 E3O      0.057700
     38 H141       -3.0230    3.2960   -5.7280 hc        1 E3O      0.045700
     39 H142       -2.4170    1.5940   -5.6980 hc        1 E3O      0.045700
     40 H151       -1.5770    4.0000   -3.9690 hc        1 E3O      0.054200
     41 H152       -0.5510    2.9260   -5.0010 hc        1 E3O      0.054200
     42 H17         0.8230    3.0760   -2.8920 ha        1 E3O      0.149000
     43 H3          1.8010    1.3250   -0.0020 ho        1 E3O      0.418000
     44 H19        -0.1460    0.1060    0.1070 ha        1 E3O      0.133000
     45 H20        -2.3230   -0.2940   -0.9890 ha        1 E3O      0.133000
@<TRIPOS>BOND
     1    1    2 1   
     2    1   12 1   
     3    1   21 1   
     4    1   22 1   
     5    2    3 1   
     6    2   23 1   
     7    2   24 1   
     8    3    4 1   
     9    3   26 1   
    10    3   27 1   
    11    4    5 1   
    12    4    6 1   
    13    4   11 1   
    14    5   28 1   
    15    5   29 1   
    16    5   30 1   
    17    6    7 1   
    18    6    8 1   
    19    6   31 1   
    20    7   33 1   
    21    8    9 1   
    22    8   10 1   
    23    8   34 1   
    24    9   35 1   
    25   10   11 1   
    26   10   36 1   
    27   10   37 1   
    28   11   12 1   
    29   11   32 1   
    30   12   13 1   
    31   12   25 1   
    32   13   14 1   
    33   13   38 1   
    34   13   39 1   
    35   14   15 1   
    36   14   40 1   
    37   14   41 1   
    38   15   16 ar  
    39   15   21 ar  
    40   16   17 ar  
    41   16   42 1   
    42   17   18 1   
    43   17   19 ar  
    44   18   43 1   
    45   19   20 ar  
    46   19   44 1   
    47   20   21 ar  
    48   20   45 1   
@<TRIPOS>SUBSTRUCTURE
     1 E3O         1 TEMP              0 ****  ****    0 ROOT
