@<TRIPOS>MOLECULE
E3O
   45    48     1     0     0
SMALL
bcc


@<TRIPOS>ATOM
      1 C2         -0.0890   -0.0180    0.1050 c3        1 E3O     -0.008400
      2 C3          1.4340   -0.1120    0.0700 c3        1 E3O     -0.072400
      3 C4          2.0870   -0.0480    1.4420 c3        1 E3O     -0.060400
      4 C5          1.6030    1.1580    2.2260 c3        1 E3O     -0.044000
      5 C6          2.1080    2.4420    1.5840 c3        1 E3O     -0.089100
      6 C7          2.0050    1.2160    3.7200 c3        1 E3O      0.111100
      7 O1          2.1260   -0.1000    4.2280 oh        1 E3O     -0.599800
      8 C8          0.8290    1.9630    4.4240 c3        1 E3O      0.105100
      9 O2          0.4390    1.2700    5.5920 oh        1 E3O     -0.599800
     10 C9         -0.3150    2.0690    3.3970 c3        1 E3O     -0.106400
     11 C10         0.0630    1.0720    2.3130 c3        1 E3O     -0.065700
     12 C12        -0.5650    1.1820    0.9430 c3        1 E3O     -0.047700
     13 C14        -2.0810    1.1710    1.0030 c3        1 E3O     -0.074400
     14 C15        -2.6610    1.3970   -0.3760 c3        1 E3O     -0.037100
     15 C16        -1.9470    0.6620   -1.4590 ca        1 E3O     -0.038300
     16 C17        -2.5490    0.6490   -2.7210 ca        1 E3O     -0.162000
     17 C18        -1.9170   -0.0040   -3.7870 ca        1 E3O      0.123100
     18 O3         -2.5660    0.0250   -5.0010 oh        1 E3O     -0.499100
     19 C19        -0.6850   -0.6450   -3.5990 ca        1 E3O     -0.215000
     20 C20        -0.0990   -0.6260   -2.3380 ca        1 E3O     -0.091000
     21 C21        -0.7090    0.0220   -1.2570 ca        1 E3O     -0.100300
     22 H2         -0.4710   -0.9560    0.6110 hc        1 E3O      0.057700
     23 H3C1        1.7290   -1.0900   -0.3950 hc        1 E3O      0.042200
     24 H3C2        1.8390    0.7050   -0.5820 hc        1 E3O      0.042200
     25 H12        -0.2360    2.1360    0.4470 hc        1 E3O      0.060700
     26 H4C1        3.2000    0.0010    1.3180 hc        1 E3O      0.053700
     27 H4C2        1.8540   -0.9810    2.0210 hc        1 E3O      0.053700
     28 H6C1        1.7110    3.3330    2.1270 hc        1 E3O      0.039033
     29 H6C2        1.7960    2.5100    0.5150 hc        1 E3O      0.039033
     30 H6C3        3.2250    2.4690    1.6230 hc        1 E3O      0.039033
     31 H7          2.9720    1.7660    3.8660 h1        1 E3O      0.046700
     32 H10        -0.1860    0.0450    2.7190 hc        1 E3O      0.056700
     33 H1          2.3420   -0.0110    5.1660 ho        1 E3O      0.412000
     34 H8          1.1530    2.9730    4.7890 h1        1 E3O      0.079700
     35 HA          0.0940    0.4100    5.3130 ho        1 E3O      0.410000
     36 H9C1       -1.2960    1.8180    3.8680 hc        1 E3O      0.056700
     37 H9C2       -0.3790    3.1080    2.9910 hc        1 E3O      0.056700
     38 H141       -2.4390    1.9750    1.6980 hc        1 E3O      0.044700
     39 H142       -2.4370    0.1900    1.4140 hc        1 E3O      0.044700
     40 H151       -2.6210    2.4950   -0.6190 hc        1 E3O      0.053200
     41 H152       -3.7440    1.0990   -0.3770 hc        1 E3O      0.053200
     42 H17        -3.5150    1.1460   -2.8880 ha        1 E3O      0.148000
     43 H3         -2.0240   -0.4630   -5.6380 ho        1 E3O      0.418000
     44 H19        -0.1910   -1.1570   -4.4360 ha        1 E3O      0.132000
     45 H20         0.8650   -1.1390   -2.2040 ha        1 E3O      0.134000
@<TRIPOS>BOND
     1    1    2 1   
     2    1   12 1   
     3    1   21 1   
     4    1   22 1   
     5    2    3 1   
     6    2   23 1   
     7    2   24 1   
     8    3    4 1   
     9    3   26 1   
    10    3   27 1   
    11    4    5 1   
    12    4    6 1   
    13    4   11 1   
    14    5   28 1   
    15    5   29 1   
    16    5   30 1   
    17    6    7 1   
    18    6    8 1   
    19    6   31 1   
    20    7   33 1   
    21    8    9 1   
    22    8   10 1   
    23    8   34 1   
    24    9   35 1   
    25   10   11 1   
    26   10   36 1   
    27   10   37 1   
    28   11   12 1   
    29   11   32 1   
    30   12   13 1   
    31   12   25 1   
    32   13   14 1   
    33   13   38 1   
    34   13   39 1   
    35   14   15 1   
    36   14   40 1   
    37   14   41 1   
    38   15   16 ar  
    39   15   21 ar  
    40   16   17 ar  
    41   16   42 1   
    42   17   18 1   
    43   17   19 ar  
    44   18   43 1   
    45   19   20 ar  
    46   19   44 1   
    47   20   21 ar  
    48   20   45 1   
@<TRIPOS>SUBSTRUCTURE
     1 E3O         1 TEMP              0 ****  ****    0 ROOT
