@<TRIPOS>MOLECULE
E3O
   45    48     1     0     0
SMALL
bcc


@<TRIPOS>ATOM
      1 C2         -0.0570    0.0360    0.0690 c3        1 E3O     -0.008400
      2 C3          1.4670   -0.0350    0.0380 c3        1 E3O     -0.072400
      3 C4          2.1150   -0.0070    1.4140 c3        1 E3O     -0.060400
      4 C5          1.6100    1.1660    2.2350 c3        1 E3O     -0.044000
      5 C6          2.0990    2.4770    1.6370 c3        1 E3O     -0.089100
      6 C7          2.0050    1.1810    3.7310 c3        1 E3O      0.111100
      7 O1          2.1440   -0.1500    4.1960 oh        1 E3O     -0.599800
      8 C8          0.8170    1.8870    4.4550 c3        1 E3O      0.105100
      9 O2          0.4320    1.1510    5.5980 oh        1 E3O     -0.599800
     10 C9         -0.3250    2.0110    3.4270 c3        1 E3O     -0.106400
     11 C10         0.0710    1.0550    2.3120 c3        1 E3O     -0.065700
     12 C12        -0.5530    1.2020    0.9440 c3        1 E3O     -0.047700
     13 C14        -2.0690    1.1670    0.9970 c3        1 E3O     -0.074400
     14 C15        -2.6470    1.4300   -0.3760 c3        1 E3O     -0.037100
     15 C16        -1.9190    0.7410   -1.4800 ca        1 E3O     -0.038300
     16 C17        -2.5150    0.7610   -2.7440 ca        1 E3O     -0.162000
     17 C18        -1.8700    0.1530   -3.8280 ca        1 E3O      0.123100
     18 O3         -2.5150    0.2120   -5.0430 oh        1 E3O     -0.499100
     19 C19        -0.6300   -0.4770   -3.6560 ca        1 E3O     -0.215000
     20 C20        -0.0490   -0.4910   -2.3920 ca        1 E3O     -0.091000
     21 C21        -0.6730    0.1120   -1.2940 ca        1 E3O     -0.100300
     22 H2         -0.4270   -0.9230    0.5420 hc        1 E3O      0.057700
     23 H3C1        1.7780   -0.9930   -0.4580 hc        1 E3O      0.042200
     24 H3C2        1.8630    0.8080   -0.5860 hc        1 E3O      0.042200
     25 H12        -0.2360    2.1760    0.4810 hc        1 E3O      0.060700
     26 H4C1        1.8920   -0.9610    1.9610 hc        1 E3O      0.053700
     27 H4C2        3.2270    0.0610    1.2960 hc        1 E3O      0.053700
     28 H6C1        3.2150    2.5180    1.6810 hc        1 E3O      0.039033
     29 H6C2        1.7910    2.5760    0.5700 hc        1 E3O      0.039033
     30 H6C3        1.6870    3.3450    2.2070 hc        1 E3O      0.039033
     31 H7          2.9640    1.7390    3.8990 h1        1 E3O      0.046700
     32 H10        -0.1650    0.0120    2.6830 hc        1 E3O      0.056700
     33 H1          2.3540   -0.0880    5.1380 ho        1 E3O      0.412000
     34 H8          1.1250    2.8890    4.8540 h1        1 E3O      0.079700
     35 HA          0.1010    0.2960    5.2890 ho        1 E3O      0.410000
     36 H9C1       -1.3040    1.7300    3.8850 hc        1 E3O      0.056700
     37 H9C2       -0.4020    3.0610    3.0540 hc        1 E3O      0.056700
     38 H141       -2.4120    0.1680    1.3740 hc        1 E3O      0.044700
     39 H142       -2.4410    1.9430    1.7160 hc        1 E3O      0.044700
     40 H151       -2.6220    2.5360   -0.5830 hc        1 E3O      0.053200
     41 H152       -3.7260    1.1170   -0.3910 hc        1 E3O      0.053200
     42 H17        -3.4880    1.2490   -2.8980 ha        1 E3O      0.148000
     43 H3         -1.9640   -0.2470   -5.6930 ho        1 E3O      0.418000
     44 H19        -0.1250   -0.9540   -4.5070 ha        1 E3O      0.132000
     45 H20         0.9220   -0.9950   -2.2710 ha        1 E3O      0.134000
@<TRIPOS>BOND
     1    1    2 1   
     2    1   12 1   
     3    1   21 1   
     4    1   22 1   
     5    2    3 1   
     6    2   23 1   
     7    2   24 1   
     8    3    4 1   
     9    3   26 1   
    10    3   27 1   
    11    4    5 1   
    12    4    6 1   
    13    4   11 1   
    14    5   28 1   
    15    5   29 1   
    16    5   30 1   
    17    6    7 1   
    18    6    8 1   
    19    6   31 1   
    20    7   33 1   
    21    8    9 1   
    22    8   10 1   
    23    8   34 1   
    24    9   35 1   
    25   10   11 1   
    26   10   36 1   
    27   10   37 1   
    28   11   12 1   
    29   11   32 1   
    30   12   13 1   
    31   12   25 1   
    32   13   14 1   
    33   13   38 1   
    34   13   39 1   
    35   14   15 1   
    36   14   40 1   
    37   14   41 1   
    38   15   16 ar  
    39   15   21 ar  
    40   16   17 ar  
    41   16   42 1   
    42   17   18 1   
    43   17   19 ar  
    44   18   43 1   
    45   19   20 ar  
    46   19   44 1   
    47   20   21 ar  
    48   20   45 1   
@<TRIPOS>SUBSTRUCTURE
     1 E3O         1 TEMP              0 ****  ****    0 ROOT
