@<TRIPOS>MOLECULE
E3P
   59    54     1     0     0
SMALL
bcc


@<TRIPOS>ATOM
      1 C1          5.0270    2.0480    1.2490 c1        1 E3P      0.460000
      2 N1          2.7860   -1.7500    1.2380 n4        1 E3P     -0.117000
      3 C2          0.8070   -3.4890   -1.0880 c3        1 E3P     -0.290000
      4 O2          4.7440   -0.4930    0.8360 o         1 E3P     -0.414000
      5 C3          0.7640   -0.4680    0.7010 c1        1 E3P     -0.034000
      6 C4          1.9970   -0.5090    1.4830 c3        1 E3P     -0.224000
      7 C5          1.7770   -0.2690    2.9920 c2        1 E3P      0.291000
      8 O5          1.6570   -1.2390    3.7670 o         1 E3P     -0.361000
      9 O6          3.8700    2.1300    1.5290 o         1 E3P     -0.229500
     10 C7          8.0390   -0.8800    0.8640 c3        1 E3P     -0.246000
     11 O7          6.1810    1.9900    0.9780 o         1 E3P     -0.229500
     12 C8          7.5450   -2.1040    0.2260 c2        1 E3P      0.067000
     13 C9          8.2960   -2.8500   -0.6290 c2        1 E3P     -0.212000
     14 C10        10.8950   -5.6290   -3.9250 c2        1 E3P     -0.078000
     15 C11         9.8610   -6.0720   -3.1950 c2        1 E3P     -0.223000
     16 C12         6.9410   -6.1580   -2.3290 c2        1 E3P      0.245000
     17 C13         7.4490   -5.0290   -1.7670 c1        1 E3P     -0.278000
     18 C14         7.8310   -4.0030   -1.2260 c1        1 E3P      0.146000
     19 C15         9.8420   -9.3380   -3.8210 c2        1 E3P      0.280000
     20 C16         9.3270   -8.1320   -4.5540 c3        1 E3P     -0.190000
     21 C17         8.8900   -7.0470   -3.6240 c2        1 E3P      0.217000
     22 C19         7.5760   -7.0540   -3.1920 c2        1 E3P     -0.257000
     23 C35         9.7920   -9.4740   -1.2210 c1        1 E3P      0.189000
     24 C36         9.8070   -9.3860   -2.4880 c1        1 E3P     -0.620000
     25 C37        10.3460  -10.3860   -4.6690 c2        1 E3P     -0.180000
     26 C38         9.8110  -10.0950   -8.3550 c1        1 E3P     -0.222000
     27 C39        10.9610   -9.8020   -8.2040 c1        1 E3P     -0.222000
     28 C40        11.7690  -13.7420   -3.3200 c2        1 E3P     -0.027000
     29 C41        11.2910  -12.6130   -3.7700 c1        1 E3P     -0.152000
     30 C42        10.8290  -11.5240   -4.2030 c1        1 E3P      0.037000
     31 HN1         2.7390   -2.3440    2.0720 hn        1 E3P      0.233500
     32 H2          1.7830   -3.3990   -1.6130 hc        1 E3P      0.072750
     33 H2A         0.9120   -4.1790   -0.2220 hc        1 E3P      0.072750
     34 H3          0.4780   -2.4840   -0.7320 hc        1 E3P      0.072750
     35 H3A         0.0490   -3.8960   -1.7910 hc        1 E3P      0.072750
     36 HN3         1.9370    1.7760    2.8280 hn        1 E3P      0.244500
     37 HN3A        0.0240    0.2950    0.9750 ha        1 E3P      0.087000
     38 H4          2.6410    0.3450    1.0540 hx        1 E3P      0.207000
     39 H7          9.0240   -0.5430    0.4590 hc        1 E3P      0.128000
     40 H7A         6.5000   -2.3900    0.4770 ha        1 E3P      0.175000
     41 H8          7.2820   -0.0570    0.7290 hc        1 E3P      0.128000
     42 H8A         8.1460   -1.0530    1.9680 hc        1 E3P      0.128000
     43 H10        11.6060   -4.8910   -3.5180 ha        1 E3P      0.140000
     44 H11        11.0920   -5.9350   -4.9620 ha        1 E3P      0.140000
     45 H13         5.8800   -6.3890   -2.0680 ha        1 E3P      0.173000
     46 H14         9.3330   -2.5500   -0.8780 ha        1 E3P      0.168000
     47 H35         6.9370   -7.8890   -3.5520 ha        1 E3P      0.169000
     48 H36         9.7140   -5.6860   -2.1660 ha        1 E3P      0.165000
     49 H38         8.7960  -10.3640   -8.5070 ha        1 E3P      0.224000
     50 H39        10.3210  -10.2160   -5.7660 ha        1 E3P      0.164000
     51 H40        11.9860   -9.5510   -8.0900 ha        1 E3P      0.224000
     52 H41        11.8170  -13.9630   -2.2410 ha        1 E3P      0.155000
     53 H42        12.1470  -14.5270   -3.9950 ha        1 E3P      0.155000
     54 N3          1.6650    1.0240    3.4130 n         1 E3P     -0.404000
     55 H17        10.1380   -7.7570   -5.2410 hc        1 E3P      0.142000
     56 H12         2.3470   -2.2620    0.4640 hn        1 E3P      0.233500
     57 H33         1.5310    1.2020    4.3810 hn        1 E3P      0.244500
     58 C6          4.2870   -1.6250    0.8750 c1        1 E3P      0.016000
     59 H16         8.4660   -8.4590   -5.2060 hc        1 E3P      0.142000
@<TRIPOS>BOND
     1    1    9 1   
     2    1   11 1   
     3    2    6 1   
     4    2   31 1   
     5    2   56 1   
     6    2   58 1   
     7    3   32 1   
     8    3   33 1   
     9    3   34 1   
    10    3   35 1   
    11    4   58 1   
    12    5    6 1   
    13    5   37 1   
    14    6    7 1   
    15    6   38 1   
    16    7    8 1   
    17    7   54 1   
    18   10   12 1   
    19   10   39 1   
    20   10   41 1   
    21   10   42 1   
    22   12   13 1   
    23   12   40 1   
    24   13   18 1   
    25   13   46 1   
    26   14   15 1   
    27   14   43 1   
    28   14   44 1   
    29   15   21 1   
    30   15   48 1   
    31   16   17 1   
    32   16   22 1   
    33   16   45 1   
    34   17   18 1   
    35   19   20 1   
    36   19   24 1   
    37   19   25 1   
    38   20   21 1   
    39   20   55 1   
    40   20   59 1   
    41   21   22 1   
    42   22   47 1   
    43   23   24 1   
    44   25   30 1   
    45   25   50 1   
    46   26   27 1   
    47   26   49 1   
    48   27   51 1   
    49   28   29 1   
    50   28   52 1   
    51   28   53 1   
    52   29   30 1   
    53   36   54 1   
    54   54   57 1   
@<TRIPOS>SUBSTRUCTURE
     1 E3P         1 TEMP              0 ****  ****    0 ROOT
