@<TRIPOS>MOLECULE
E3P
   57    59     1     0     0
SMALL
bcc


@<TRIPOS>ATOM
      1 C1         -8.3540    2.6730    0.2500 c         1 E3P      0.909600
      2 N1         -4.9450   -0.2840   -0.3170 n         1 E3P     -0.531900
      3 C2         -7.1120    1.7590    0.3240 c3        1 E3P     -0.201400
      4 O2         -4.3880   -1.6340    1.4590 o         1 E3P     -0.627100
      5 C3         -7.2270    0.6270   -0.6640 c3        1 E3P     -0.076400
      6 C4         -6.3540   -0.5830   -0.2880 c3        1 E3P      0.035700
      7 C5         -6.7250   -1.7350   -1.2550 c         1 E3P      0.632100
      8 O5         -5.9840   -2.1100   -2.1900 o         1 E3P     -0.647100
      9 O6         -9.4830    2.1300    0.0690 o         1 E3P     -0.845800
     10 C7         -2.5700   -0.5540    0.2790 c3        1 E3P     -0.149400
     11 O7         -8.1770    3.9140    0.3920 o         1 E3P     -0.845800
     12 C8         -1.7040   -1.1100    1.3930 c3        1 E3P     -0.036100
     13 C9         -0.2590   -0.8790    1.1250 ca        1 E3P     -0.064300
     14 C10         0.4160   -1.6520    0.1720 ca        1 E3P     -0.129500
     15 C11         1.7710   -1.4500   -0.0720 ca        1 E3P     -0.116000
     16 C12         2.4810   -0.4660    0.6310 cp        1 E3P     -0.055000
     17 C13         1.8040    0.3090    1.5830 ca        1 E3P     -0.116000
     18 C14         0.4490    0.1020    1.8280 ca        1 E3P     -0.129500
     19 C15         6.6460    0.1620   -0.1180 cp        1 E3P     -0.046000
     20 C16         5.7890    1.2500    0.0960 ca        1 E3P     -0.118500
     21 C17         4.4340    1.0460    0.3390 ca        1 E3P     -0.122500
     22 C19         3.9030   -0.2520    0.3750 cp        1 E3P     -0.020000
     23 C35         4.7610   -1.3400    0.1600 ca        1 E3P     -0.122500
     24 C36         6.1160   -1.1360   -0.0840 ca        1 E3P     -0.118500
     25 C37         8.0690    0.3760   -0.3740 cp        1 E3P     -0.030000
     26 C38         8.7790    1.3570    0.3350 ca        1 E3P     -0.120000
     27 C39        10.1350    1.5580    0.0900 ca        1 E3P     -0.132000
     28 C40        10.7990    0.7870   -0.8640 ca        1 E3P     -0.132000
     29 C41        10.1000   -0.1890   -1.5730 ca        1 E3P     -0.132000
     30 C42         8.7430   -0.3960   -1.3310 ca        1 E3P     -0.120000
     31 HN1        -4.6160    0.2000   -1.1190 hn        1 E3P      0.314500
     32 H2         -6.1930    2.3650    0.1320 hc        1 E3P      0.029700
     33 H2A        -7.0510    1.3620    1.3690 hc        1 E3P      0.029700
     34 H3         -8.3030    0.3000   -0.6900 hc        1 E3P      0.060700
     35 H3A        -6.9600    0.9850   -1.6920 hc        1 E3P      0.060700
     36 HN3        -8.5870   -1.9670   -0.4220 hn        1 E3P      0.305500
     37 HN3A       -8.2520   -3.0170   -1.7120 hn        1 E3P      0.305500
     38 H4         -6.6070   -0.9090    0.7680 h1        1 E3P      0.099700
     39 H7         -2.2610   -0.9990   -0.7040 hc        1 E3P      0.066200
     40 H7A        -2.4370    0.5570    0.2120 hc        1 E3P      0.066200
     41 H8         -2.0060   -0.6350    2.3640 hc        1 E3P      0.069200
     42 H8A        -1.9010   -2.2120    1.4960 hc        1 E3P      0.069200
     43 H10        -0.1340   -2.4240   -0.3870 ha        1 E3P      0.137500
     44 H11         2.2880   -2.0600   -0.8280 ha        1 E3P      0.131000
     45 H13         2.3500    1.0810    2.1460 ha        1 E3P      0.131000
     46 H14        -0.0690    0.7160    2.5810 ha        1 E3P      0.137500
     47 H35         4.3600   -2.3640    0.1940 ha        1 E3P      0.138000
     48 H36         6.7790   -2.0000   -0.2420 ha        1 E3P      0.132500
     49 H38         8.2600    1.9630    1.0920 ha        1 E3P      0.135500
     50 H39        10.6830    2.3280    0.6530 ha        1 E3P      0.129000
     51 H40        11.8690    0.9490   -1.0560 ha        1 E3P      0.128000
     52 H41        10.6190   -0.7970   -2.3290 ha        1 E3P      0.129000
     53 H42         8.1940   -1.1630   -1.8980 ha        1 E3P      0.135500
     54 N3         -7.9250   -2.3710   -1.0380 n         1 E3P     -0.661000
     55 H16         6.1890    2.2750    0.0620 ha        1 E3P      0.132500
     56 C6         -4.0350   -0.8850    0.5240 c         1 E3P      0.661100
     57 H17         3.7700    1.9100    0.4950 ha        1 E3P      0.138000
@<TRIPOS>BOND
     1    1    3 1   
     2    1    9 1   
     3    1   11 1   
     4    2    6 1   
     5    2   31 1   
     6    2   56 1   
     7    3    5 1   
     8    3   32 1   
     9    3   33 1   
    10    4   56 2   
    11    5    6 1   
    12    5   34 1   
    13    5   35 1   
    14    6    7 1   
    15    6   38 1   
    16    7    8 2   
    17    7   54 1   
    18   10   12 1   
    19   10   39 1   
    20   10   40 1   
    21   10   56 1   
    22   12   13 1   
    23   12   41 1   
    24   12   42 1   
    25   13   14 ar  
    26   13   18 ar  
    27   14   15 ar  
    28   14   43 1   
    29   15   16 ar  
    30   15   44 1   
    31   16   17 ar  
    32   16   22 1   
    33   17   18 ar  
    34   17   45 1   
    35   18   46 1   
    36   19   20 ar  
    37   19   24 ar  
    38   19   25 1   
    39   20   21 ar  
    40   20   55 1   
    41   21   22 ar  
    42   21   57 1   
    43   22   23 ar  
    44   23   24 ar  
    45   23   47 1   
    46   24   48 1   
    47   25   26 ar  
    48   25   30 ar  
    49   26   27 ar  
    50   26   49 1   
    51   27   28 ar  
    52   27   50 1   
    53   28   29 ar  
    54   28   51 1   
    55   29   30 ar  
    56   29   52 1   
    57   30   53 1   
    58   36   54 1   
    59   37   54 1   
@<TRIPOS>SUBSTRUCTURE
     1 E3P         1 TEMP              0 ****  ****    0 ROOT
