@<TRIPOS>MOLECULE
E3P
   59    54     1     0     0
SMALL
bcc


@<TRIPOS>ATOM
      1 C1          2.1710    0.2700    2.8360 c1        1 E3P      0.427000
      2 N1          4.7700   -5.2950    0.4340 n7        1 E3P     -0.333000
      3 C2          6.3630   -0.5970    2.0330 c3        1 E3P     -0.276000
      4 O2          5.3030   -5.0620   -1.9110 os        1 E3P     -0.162000
      5 C3          4.1810   -2.9200    0.4660 c3        1 E3P     -0.184000
      6 C4          4.8350   -4.0800    1.2520 c3        1 E3P     -0.050000
      7 C5          4.1940   -4.2620    2.6410 c2        1 E3P      0.286000
      8 O5          3.7230   -5.3660    2.9890 o         1 E3P     -0.382000
      9 O6          2.9160   -0.6290    2.5810 o         1 E3P     -0.213000
     10 C7          3.8270   -3.4790   -0.9060 c3        1 E3P     -0.172000
     11 O7          1.4300    1.1610    3.0850 o         1 E3P     -0.213000
     12 C8          4.2600   -2.3180   -7.3110 c1        1 E3P     -0.154000
     13 C9          5.3130   -2.7760   -6.9730 c1        1 E3P     -0.133000
     14 C10        11.1460   -2.2490   -4.4420 c1        1 E3P     -0.164500
     15 C11        11.1070   -3.3630   -4.8820 c1        1 E3P     -0.168500
     16 C12        11.1020   -4.6630   -5.4090 c2        1 E3P     -0.046000
     17 C13         6.8450   -4.0620   -5.5690 c1        1 E3P      0.150000
     18 C14         6.5520   -3.3010   -6.6010 c2        1 E3P     -0.312000
     19 C15         8.1310   -7.0600   -2.9700 c2        1 E3P      0.129000
     20 C16         9.9660   -7.7980   -6.5630 c1        1 E3P     -0.164500
     21 C17         9.9800   -6.6970   -6.0880 c1        1 E3P     -0.168500
     22 C19         9.9830   -5.4010   -5.5510 c2        1 E3P     -0.046000
     23 C35         6.1810   -6.0440   -1.8610 c2        1 E3P      0.247000
     24 C36         7.1280   -6.1230   -2.8960 c2        1 E3P     -0.320000
     25 C37         8.4920   -8.0850   -2.0530 c2        1 E3P     -0.174000
     26 C38        10.4660  -10.9300   -3.1740 c1        1 E3P     -0.222000
     27 C39        11.3380  -10.1290   -3.0060 c1        1 E3P     -0.222000
     28 C40         7.3060   -8.7220    1.5940 c2        1 E3P     -0.005000
     29 C41         7.6690   -8.4860    0.3600 c1        1 E3P     -0.168000
     30 C42         8.0300   -8.2580   -0.8250 c1        1 E3P      0.005000
     31 HN1         6.1530   -6.7800   -1.0300 h4        1 E3P      0.173000
     32 H2          6.9530   -0.0100    2.7700 hc        1 E3P      0.069750
     33 H2A         6.6460   -0.2870    1.0030 hc        1 E3P      0.069750
     34 H3          5.2770   -0.4090    2.1910 hc        1 E3P      0.069750
     35 H3A         6.5780   -1.6800    2.1660 hc        1 E3P      0.069750
     36 HN3         4.9010   -2.0660    0.3870 hc        1 E3P      0.120000
     37 HN3A        4.4730   -2.2920    3.1630 hn        1 E3P      0.242000
     38 H4          5.9330   -3.8600    1.4150 h1        1 E3P      0.135000
     39 H7          3.2660   -2.5390    0.9860 hc        1 E3P      0.120000
     40 H7A         3.4430   -5.6740   -1.2340 h2        1 E3P      0.139000
     41 H8          4.3720   -2.9430   -1.7240 hc        1 E3P      0.128500
     42 H8A         2.7310   -3.4080   -1.1110 hc        1 E3P      0.128500
     43 H10         3.3280   -1.9110   -7.6180 ha        1 E3P      0.237000
     44 H11        11.1910   -1.2610   -4.0560 ha        1 E3P      0.233500
     45 H13        12.0920   -5.0560   -5.7130 ha        1 E3P      0.147500
     46 H14         7.4010   -3.0330   -7.2810 ha        1 E3P      0.219000
     47 H35         8.9900   -5.0030   -5.2590 ha        1 E3P      0.147500
     48 H36         7.0490   -5.3750   -3.7230 ha        1 E3P      0.216000
     49 H38         9.7070  -11.6560   -3.3260 ha        1 E3P      0.224500
     50 H39         9.2650   -8.8050   -2.4140 ha        1 E3P      0.192000
     51 H40        12.1270   -9.4320   -2.8620 ha        1 E3P      0.224500
     52 H41         6.5730   -8.0910    2.1260 ha        1 E3P      0.164500
     53 H42         7.7190   -9.5710    2.1660 ha        1 E3P      0.164500
     54 N3          4.2170   -3.1930    3.4880 nt        1 E3P     -0.404000
     55 H17         8.7670   -7.0170   -3.8880 ha        1 E3P      0.181000
     56 H12         4.2740   -6.0390    0.8930 hn        1 E3P      0.223000
     57 H33         3.7840   -3.2730    4.3770 hn        1 E3P      0.242000
     58 C6          4.2380   -4.9660   -0.8660 c3        1 E3P      0.098000
     59 H16         9.9570   -8.7700   -6.9900 ha        1 E3P      0.233500
@<TRIPOS>BOND
     1    1    9 1   
     2    1   11 1   
     3    2    6 1   
     4    2   56 1   
     5    2   58 1   
     6    3   32 1   
     7    3   33 1   
     8    3   34 1   
     9    3   35 1   
    10    4   23 1   
    11    4   58 1   
    12    5    6 1   
    13    5   10 1   
    14    5   36 1   
    15    5   39 1   
    16    6    7 1   
    17    6   38 1   
    18    7    8 1   
    19    7   54 1   
    20   10   41 1   
    21   10   42 1   
    22   10   58 1   
    23   12   13 1   
    24   12   43 1   
    25   13   18 1   
    26   14   15 1   
    27   14   44 1   
    28   15   16 1   
    29   16   22 1   
    30   16   45 1   
    31   17   18 1   
    32   18   46 1   
    33   19   24 1   
    34   19   25 1   
    35   19   55 1   
    36   20   21 1   
    37   20   59 1   
    38   21   22 1   
    39   22   47 1   
    40   23   24 1   
    41   23   31 1   
    42   24   48 1   
    43   25   30 1   
    44   25   50 1   
    45   26   27 1   
    46   26   49 1   
    47   27   51 1   
    48   28   29 1   
    49   28   52 1   
    50   28   53 1   
    51   29   30 1   
    52   37   54 1   
    53   40   58 1   
    54   54   57 1   
@<TRIPOS>SUBSTRUCTURE
     1 E3P         1 TEMP              0 ****  ****    0 ROOT
