@<TRIPOS>MOLECULE
E3P
   57    51     1     0     0
SMALL
bcc


@<TRIPOS>ATOM
      1 C1         -6.9660    6.5240    2.7620 c1        1 E3P      0.327000
      2 N1         -3.0190    4.0230    1.9530 n         1 E3P     -0.331000
      3 C2         -5.6120    6.3290    2.0730 c2        1 E3P     -0.239000
      4 O2         -1.2060    4.8580    0.7510 o         1 E3P     -0.378000
      5 C3         -4.8470    5.2700    2.7860 c3        1 E3P     -0.143000
      6 N3         -2.0560    7.1520    3.6310 n         1 E3P     -0.389000
      7 C4         -3.4230    5.3130    2.3670 c3        1 E3P     -0.012000
      8 C5         -2.5380    5.7760    3.5670 c2        1 E3P      0.264000
      9 O5         -2.2760    4.9880    4.4790 o         1 E3P     -0.450000
     10 C6         -1.8390    3.8610    1.1290 c2        1 E3P      0.294000
     11 O6         -7.0900    7.3920    3.6660 o         1 E3P     -0.578000
     12 C7         -1.3500    2.4410    0.7480 c3        1 E3P     -0.182000
     13 O7         -7.9760    5.9240    2.3320 o         1 E3P     -0.578000
     14 C8          0.0260    2.5270    0.1670 c3        1 E3P     -0.122000
     15 C9          0.5280    1.0910   -0.2080 c2        1 E3P     -0.056000
     16 C10         1.2110    0.3310    0.7210 c2        1 E3P     -0.130000
     17 C11         1.6940   -0.9260    0.3710 c1        1 E3P     -0.115000
     18 C12         1.4870   -1.4140   -0.9110 c1        1 E3P     -0.038000
     19 C13         0.8000   -0.6480   -1.8420 c1        1 E3P     -0.119500
     20 C14         0.3220    0.6000   -1.4930 c1        1 E3P     -0.130000
     21 C15         3.1690   -5.2350   -2.0530 c1        1 E3P     -0.046000
     22 C16         3.9090   -4.0770   -2.2080 c1        1 E3P     -0.126500
     23 C17         3.3690   -2.8570   -1.8450 c1        1 E3P     -0.126500
     24 C19         2.0910   -2.7930   -1.3280 c1        1 E3P     -0.038000
     25 C35         1.3460   -3.9540   -1.1720 c1        1 E3P     -0.119500
     26 C36         1.8850   -5.1730   -1.5340 c1        1 E3P     -0.119000
     27 C37         3.7450   -6.5490   -2.4680 c2        1 E3P     -0.030000
     28 C38         4.4290   -7.3260   -1.5490 c2        1 E3P     -0.120000
     29 C39         4.9700   -8.5470   -1.9370 c1        1 E3P     -0.132000
     30 C40         4.8250   -8.9890   -3.2480 c1        1 E3P     -0.126500
     31 C41         4.1360   -8.2060   -4.1750 c1        1 E3P     -0.126500
     32 C42         3.5980   -6.9920   -3.7900 c1        1 E3P     -0.120000
     33 HN1        -3.4670    3.3000    2.2410 hn        1 E3P      0.217000
     34 H2         -5.7550    6.0550    1.1320 ha        1 E3P      0.074000
     35 H2A        -5.1110    7.1670    2.0950 ha        1 E3P      0.074000
     36 H3         -4.9130    5.4260    3.7930 hc        1 E3P      0.089500
     37 H3A        -5.2350    4.3620    2.5570 hc        1 E3P      0.089500
     38 HN3        -1.4390    7.3970    4.2770 hn        1 E3P      0.242500
     39 HN3A       -2.3910    7.7730    3.0700 hn        1 E3P      0.242500
     40 H4         -3.3170    5.9670    1.5920 h1        1 E3P      0.144000
     41 H7         -1.9520    2.0580    0.0930 hc        1 E3P      0.105000
     42 H7A        -1.3350    1.8610    1.5670 hc        1 E3P      0.105000
     43 H8          0.0040    3.0840   -0.6360 hc        1 E3P      0.108000
     44 H8A         0.6280    2.9230    0.8210 hc        1 E3P      0.108000
     45 H10         1.3080    0.6480    1.6280 ha        1 E3P      0.139000
     46 H11         2.1330   -1.4870    1.0440 ha        1 E3P      0.131000
     47 H13         0.6510   -0.9980   -2.7670 ha        1 E3P      0.134500
     48 H14        -0.1560    1.1450   -2.1560 ha        1 E3P      0.136000
     49 H16         4.8090   -4.1220   -2.5650 ha        1 E3P      0.131500
     50 H17         3.8850   -2.0240   -1.9930 ha        1 E3P      0.131500
     51 H35         0.4090   -3.9020   -0.8510 ha        1 E3P      0.134500
     52 H36         1.3430   -6.0200   -1.4210 ha        1 E3P      0.133000
     53 H38         4.4900   -7.0500   -0.6570 ha        1 E3P      0.136000
     54 H39         5.5150   -9.0900   -1.2790 ha        1 E3P      0.129000
     55 H40         5.2320   -9.8410   -3.5270 ha        1 E3P      0.131500
     56 H41         4.0510   -8.5090   -5.1020 ha        1 E3P      0.131500
     57 H42         3.2700   -6.8350   -4.6990 ha        1 E3P      0.135000
@<TRIPOS>BOND
     1    1   11 1   
     2    1   13 1   
     3    2    7 1   
     4    2   10 1   
     5    2   33 1   
     6    3    5 1   
     7    3   34 1   
     8    3   35 1   
     9    4   10 1   
    10    5    7 1   
    11    5   36 1   
    12    5   37 1   
    13    6    8 1   
    14    6   38 1   
    15    6   39 1   
    16    7    8 1   
    17    7   40 1   
    18    8    9 1   
    19   10   12 1   
    20   12   14 1   
    21   12   41 1   
    22   12   42 1   
    23   14   15 1   
    24   14   43 1   
    25   14   44 1   
    26   15   16 1   
    27   15   20 1   
    28   16   17 1   
    29   16   45 1   
    30   17   46 1   
    31   18   19 1   
    32   18   24 1   
    33   19   47 1   
    34   20   48 1   
    35   21   26 1   
    36   21   27 1   
    37   22   23 1   
    38   22   49 1   
    39   23   50 1   
    40   24   25 1   
    41   25   51 1   
    42   26   52 1   
    43   27   28 1   
    44   27   32 1   
    45   28   29 1   
    46   28   53 1   
    47   29   54 1   
    48   30   31 1   
    49   30   55 1   
    50   31   56 1   
    51   32   57 1   
@<TRIPOS>SUBSTRUCTURE
     1 E3P         1 TEMP              0 ****  ****    0 ROOT
