@<TRIPOS>MOLECULE
E40
   71    73     1     0     0
SMALL
bcc


@<TRIPOS>ATOM
      1 O13         0.4890    0.2110   -0.1430 o         1 E40     -0.482400
      2 S13         1.7260   -0.3670    0.0100 s4        1 E40      1.729300
      3 O14         2.6050    0.1570    0.8990 o         1 E40     -0.482400
      4 C28         2.0160   -1.6840   -0.6530 ca        1 E40     -0.713500
      5 C14         3.2650   -2.3710   -0.4520 ca        1 E40      0.042000
      6 C17         3.5220   -3.5990   -0.9890 ca        1 E40     -0.180500
      7 C16         2.5570   -4.2870   -1.7870 cp        1 E40      0.217000
      8 C21         2.8040   -5.5850   -2.3140 cp        1 E40     -0.192000
      9 C26         4.1210   -6.1090   -2.3950 ca        1 E40     -0.007500
     10 C25         4.3680   -7.3710   -2.8990 ca        1 E40     -0.207500
     11 C24         3.2910   -8.1720   -3.3370 ca        1 E40      0.249100
     12 O24         3.4090   -9.4230   -3.8420 os        1 E40     -0.282900
     13 C61         4.7240   -9.9900   -3.9230 c3        1 E40      0.100700
     14 C23         1.9630   -7.6730   -3.2640 ca        1 E40     -0.207500
     15 C30         1.7370   -6.4090   -2.7690 ca        1 E40     -0.007500
     16 C15         1.3220   -3.6030   -2.0220 ca        1 E40     -0.180500
     17 C29         1.0720   -2.3730   -1.4900 ca        1 E40      0.042000
     18 N12         2.1030    1.3960   -2.2170 n3        1 E40     -0.606700
     19 O15         2.2230    1.8640   -0.9740 os        1 E40     -0.377100
     20 C67         3.3600    2.7450   -0.5770 c3        1 E40      0.134100
     21 C69         3.6230    3.8290   -1.5870 c3        1 E40     -0.134100
     22 C68         2.9340    3.2890    0.7690 c3        1 E40     -0.134100
     23 C31         1.1320    2.1250   -3.0670 c3        1 E40      0.081500
     24 C11         0.3010    3.1760   -2.3330 c         1 E40      0.555100
     25 O2          0.1590    4.3510   -2.5910 o         1 E40     -0.330100
     26 N2         -0.4600    2.6260   -1.1100 n4        1 E40     -0.454300
     27 O7         -1.5250    3.4240   -0.8820 oh        1 E40     -0.345300
     28 C32         1.7180    2.7990   -4.3180 c3        1 E40     -0.135400
     29 C33         2.2820    1.7620   -5.3040 c3        1 E40      0.106000
     30 N48         3.6250    2.0030   -5.7260 n         1 E40     -0.548400
     31 C52         4.7800    1.8430   -4.9220 c         1 E40      0.740600
     32 O54         4.7410    1.5240   -3.7210 o         1 E40     -0.597500
     33 C49         3.9890    2.3990   -7.0650 c         1 E40      0.740600
     34 O53         3.1640    2.6010   -7.9510 o         1 E40     -0.597500
     35 C50         5.4770    2.4840   -7.0820 ca        1 E40     -0.150100
     36 C51         5.9600    2.1420   -5.7820 ca        1 E40     -0.150100
     37 C55         6.3440    2.8160   -8.1000 ca        1 E40     -0.044000
     38 C56         7.7260    2.8070   -7.8110 ca        1 E40     -0.100000
     39 C57         8.1950    2.4750   -6.5480 ca        1 E40     -0.100000
     40 C58         7.3090    2.1340   -5.5040 ca        1 E40     -0.044000
     41 H1          4.0300   -1.8780    0.1790 ha        1 E40      0.160000
     42 H2          4.4900   -4.0840   -0.7730 ha        1 E40      0.177000
     43 H3          4.9800   -5.4970   -2.0750 ha        1 E40      0.147000
     44 H4          5.4010   -7.7480   -2.9600 ha        1 E40      0.178000
     45 H5          5.3640   -9.3820   -4.6060 h1        1 E40      0.072033
     46 H6          4.5270  -11.0060   -4.3550 h1        1 E40      0.072033
     47 H7          5.1750  -10.0680   -2.9050 h1        1 E40      0.072033
     48 H8          1.1350   -8.3170   -3.6030 ha        1 E40      0.178000
     49 H9          0.6970   -6.0530   -2.7000 ha        1 E40      0.147000
     50 H10         0.5580   -4.0760   -2.6640 ha        1 E40      0.177000
     51 H11         0.1050   -1.8740   -1.6910 ha        1 E40      0.160000
     52 H12         4.2470    2.0590   -0.4770 h1        1 E40      0.091700
     53 H13         4.3210    4.5820   -1.1380 hc        1 E40      0.070367
     54 H14         4.1150    3.4170   -2.5040 hc        1 E40      0.070367
     55 H15         2.6800    4.3560   -1.8730 hc        1 E40      0.070367
     56 H16         2.0370    3.9450    0.6710 hc        1 E40      0.070367
     57 H17         3.7750    3.8940    1.1920 hc        1 E40      0.070367
     58 H18         2.7090    2.4550    1.4790 hc        1 E40      0.070367
     59 H19         0.4120    1.3160   -3.4150 h1        1 E40      0.112700
     60 H20        -0.7580    1.6470   -1.2900 hn        1 E40      0.477300
     61 H21        -1.9510    3.1590   -0.0340 ho        1 E40      0.474000
     62 H22         2.4960    3.5480   -4.0110 hc        1 E40      0.095700
     63 H23         0.8990    3.3730   -4.8300 hc        1 E40      0.095700
     64 H24         2.2290    0.7300   -4.8520 h1        1 E40      0.076700
     65 H25         1.6320    1.7670   -6.2320 h1        1 E40      0.076700
     66 H26         5.9800    3.0810   -9.1050 ha        1 E40      0.168000
     67 H27         8.4380    3.0710   -8.6110 ha        1 E40      0.166000
     68 H28         9.2790    2.4760   -6.3460 ha        1 E40      0.166000
     69 H29         7.6920    1.8730   -4.5060 ha        1 E40      0.168000
     70 H121        3.0060    1.3930   -2.7090 hn        1 E40      0.443800
     71 H221        0.2030    2.6160   -0.3070 hn        1 E40      0.477300
@<TRIPOS>BOND
     1    1    2 1   
     2    2    3 1   
     3    2    4 1   
     4    4    5 ar  
     5    4   17 ar  
     6    5    6 ar  
     7    5   41 1   
     8    6    7 ar  
     9    6   42 1   
    10    7    8 1   
    11    7   16 ar  
    12    8    9 ar  
    13    8   15 ar  
    14    9   10 ar  
    15    9   43 1   
    16   10   11 ar  
    17   10   44 1   
    18   11   12 1   
    19   11   14 ar  
    20   12   13 1   
    21   13   45 1   
    22   13   46 1   
    23   13   47 1   
    24   14   15 ar  
    25   14   48 1   
    26   15   49 1   
    27   16   17 ar  
    28   16   50 1   
    29   17   51 1   
    30   18   19 1   
    31   18   23 1   
    32   18   70 1   
    33   19   20 1   
    34   20   21 1   
    35   20   22 1   
    36   20   52 1   
    37   21   53 1   
    38   21   54 1   
    39   21   55 1   
    40   22   56 1   
    41   22   57 1   
    42   22   58 1   
    43   23   24 1   
    44   23   28 1   
    45   23   59 1   
    46   24   25 2   
    47   24   26 1   
    48   26   27 1   
    49   26   60 1   
    50   26   71 1   
    51   27   61 1   
    52   28   29 1   
    53   28   62 1   
    54   28   63 1   
    55   29   30 1   
    56   29   64 1   
    57   29   65 1   
    58   30   31 1   
    59   30   33 1   
    60   31   32 2   
    61   31   36 1   
    62   33   34 2   
    63   33   35 1   
    64   35   36 ar  
    65   35   37 ar  
    66   36   40 ar  
    67   37   38 ar  
    68   37   66 1   
    69   38   39 ar  
    70   38   67 1   
    71   39   40 ar  
    72   39   68 1   
    73   40   69 1   
@<TRIPOS>SUBSTRUCTURE
     1 E40         1 TEMP              0 ****  ****    0 ROOT
