@<TRIPOS>MOLECULE
E40
   71    73     1     0     0
SMALL
bcc


@<TRIPOS>ATOM
      1 O13         0.5430    0.0820   -0.2000 o         1 E40     -0.472900
      2 S13         1.7850   -0.4960   -0.1070 s4        1 E40      1.715300
      3 O14         2.7350    0.0770    0.6700 o         1 E40     -0.472900
      4 C28         2.0260   -1.8300   -0.7480 ca        1 E40     -0.719500
      5 C14         3.2950   -2.5050   -0.6360 ca        1 E40      0.038500
      6 C17         3.5140   -3.7460   -1.1550 ca        1 E40     -0.179500
      7 C16         2.4890   -4.4670   -1.8440 cp        1 E40      0.218000
      8 C21         2.7000   -5.7780   -2.3490 cp        1 E40     -0.191000
      9 C26         4.0100   -6.3040   -2.5130 ca        1 E40     -0.005000
     10 C25         4.2220   -7.5790   -2.9980 ca        1 E40     -0.208500
     11 C24         3.1190   -8.3940   -3.3310 ca        1 E40      0.253100
     12 O24         3.2030   -9.6580   -3.8080 os        1 E40     -0.280900
     13 C61         4.5090  -10.2260   -3.9720 c3        1 E40      0.099700
     14 C23         1.7980   -7.8940   -3.1740 ca        1 E40     -0.208500
     15 C30         1.6050   -6.6180   -2.7000 ca        1 E40     -0.005000
     16 C15         1.2310   -3.7970   -1.9900 ca        1 E40     -0.179500
     17 C29         1.0180   -2.5530   -1.4760 ca        1 E40      0.038500
     18 N12         2.1030    1.4460   -2.1580 n7        1 E40     -0.631700
     19 O15         2.2830    2.1510   -1.0400 os        1 E40     -0.338100
     20 C67         3.4980    2.9830   -0.8650 c3        1 E40      0.129100
     21 C69         3.4150    4.2240   -1.7200 c3        1 E40     -0.125100
     22 C68         3.5030    3.2830    0.6180 c3        1 E40     -0.125100
     23 C31         1.0950    2.0270   -3.0790 c3        1 E40      0.082500
     24 C11         0.1590    3.0360   -2.4140 c         1 E40      0.560100
     25 O2         -0.1390    4.1500   -2.7810 o         1 E40     -0.331100
     26 N2         -0.4880    2.5250   -1.1110 ny        1 E40     -0.456300
     27 O7         -1.5970    3.2610   -0.8740 oh        1 E40     -0.345300
     28 C32         1.6380    2.6900   -4.3540 c3        1 E40     -0.137400
     29 C33         2.3720    1.6850   -5.2570 c3        1 E40      0.107000
     30 N48         3.7080    2.0490   -5.6070 n         1 E40     -0.548400
     31 C52         4.8270    2.0280   -4.7390 c         1 E40      0.740600
     32 O54         4.7580    1.7230   -3.5360 o         1 E40     -0.598000
     33 C49         4.1020    2.4620   -6.9330 c         1 E40      0.740600
     34 O53         3.3110    2.5590   -7.8660 o         1 E40     -0.598000
     35 C50         5.5720    2.7070   -6.8720 ca        1 E40     -0.150100
     36 C51         6.0130    2.4400   -5.5400 ca        1 E40     -0.150100
     37 C55         6.4530    3.1150   -7.8470 ca        1 E40     -0.044000
     38 C56         7.8100    3.2600   -7.4840 ca        1 E40     -0.099500
     39 C57         8.2400    3.0000   -6.1900 ca        1 E40     -0.099500
     40 C58         7.3380    2.5820   -5.1890 ca        1 E40     -0.044000
     41 H1          4.1080   -1.9860   -0.0910 ha        1 E40      0.161500
     42 H2          4.5030   -4.2170   -1.0110 ha        1 E40      0.177000
     43 H3          4.8890   -5.6820   -2.2760 ha        1 E40      0.147500
     44 H4          5.2490   -7.9570   -3.1240 ha        1 E40      0.178500
     45 H5          4.2820  -11.2540   -4.3590 h1        1 E40      0.073033
     46 H6          5.0940   -9.6370   -4.7180 h1        1 E40      0.073033
     47 H7          5.0360  -10.2760   -2.9890 h1        1 E40      0.073033
     48 H8          0.9480   -8.5490   -3.4320 ha        1 E40      0.178500
     49 H9          0.5710   -6.2610   -2.5640 ha        1 E40      0.147500
     50 H10         0.4180   -4.2940   -2.5470 ha        1 E40      0.177000
     51 H11         0.0320   -2.0680   -1.6050 ha        1 E40      0.161500
     52 H12         4.3880    2.3570   -1.1540 h1        1 E40      0.094700
     53 H13         3.8160    4.0190   -2.7440 hc        1 E40      0.065200
     54 H14         2.3630    4.5890   -1.8030 hc        1 E40      0.065200
     55 H15         4.0350    5.0360   -1.2640 hc        1 E40      0.065200
     56 H16         4.4610    3.7990    0.8750 hc        1 E40      0.065200
     57 H17         2.6510    3.9480    0.8940 hc        1 E40      0.065200
     58 H18         3.4350    2.3350    1.2080 hc        1 E40      0.065200
     59 H19         0.4580    1.1390   -3.3910 h1        1 E40      0.108700
     60 H20        -0.7300    1.5200   -1.2080 hn        1 E40      0.479300
     61 H21        -1.9130    3.0830    0.0410 ho        1 E40      0.473000
     62 H22         0.7700    3.1160   -4.9270 hc        1 E40      0.096700
     63 H23         2.2950    3.5560   -4.0730 hc        1 E40      0.096700
     64 H24         1.7870    1.5890   -6.2220 h1        1 E40      0.074700
     65 H25         2.3930    0.6680   -4.7680 h1        1 E40      0.074700
     66 H26         6.1200    3.3230   -8.8770 ha        1 E40      0.168500
     67 H27         8.5330    3.5870   -8.2500 ha        1 E40      0.166000
     68 H28         9.3050    3.1200   -5.9300 ha        1 E40      0.166000
     69 H29         7.6900    2.3780   -4.1670 ha        1 E40      0.168500
     70 H121        2.9760    1.3510   -2.6910 hn        1 E40      0.436800
     71 H221        0.2170    2.6190   -0.3520 hn        1 E40      0.479300
@<TRIPOS>BOND
     1    1    2 1   
     2    2    3 1   
     3    2    4 1   
     4    4    5 ar  
     5    4   17 ar  
     6    5    6 ar  
     7    5   41 1   
     8    6    7 ar  
     9    6   42 1   
    10    7    8 1   
    11    7   16 ar  
    12    8    9 ar  
    13    8   15 ar  
    14    9   10 ar  
    15    9   43 1   
    16   10   11 ar  
    17   10   44 1   
    18   11   12 1   
    19   11   14 ar  
    20   12   13 1   
    21   13   45 1   
    22   13   46 1   
    23   13   47 1   
    24   14   15 ar  
    25   14   48 1   
    26   15   49 1   
    27   16   17 ar  
    28   16   50 1   
    29   17   51 1   
    30   18   19 1   
    31   18   23 1   
    32   18   70 1   
    33   19   20 1   
    34   20   21 1   
    35   20   22 1   
    36   20   52 1   
    37   21   53 1   
    38   21   54 1   
    39   21   55 1   
    40   22   56 1   
    41   22   57 1   
    42   22   58 1   
    43   23   24 1   
    44   23   28 1   
    45   23   59 1   
    46   24   25 2   
    47   24   26 1   
    48   26   27 1   
    49   26   60 1   
    50   26   71 1   
    51   27   61 1   
    52   28   29 1   
    53   28   62 1   
    54   28   63 1   
    55   29   30 1   
    56   29   64 1   
    57   29   65 1   
    58   30   31 1   
    59   30   33 1   
    60   31   32 2   
    61   31   36 1   
    62   33   34 2   
    63   33   35 1   
    64   35   36 ar  
    65   35   37 ar  
    66   36   40 ar  
    67   37   38 ar  
    68   37   66 1   
    69   38   39 ar  
    70   38   67 1   
    71   39   40 ar  
    72   39   68 1   
    73   40   69 1   
@<TRIPOS>SUBSTRUCTURE
     1 E40         1 TEMP              0 ****  ****    0 ROOT
