@<TRIPOS>MOLECULE
E41
   55    56     1     0     0
SMALL
bcc


@<TRIPOS>ATOM
      1 O1          0.6960    3.8940   -2.4650 oh        1 E41     -0.438100
      2 N1          1.3970    2.8540   -2.0060 n         1 E41     -0.350400
      3 N           1.3060    0.1130    0.2980 n3        1 E41     -0.791500
      4 CA          1.8980    1.3930   -0.0010 c3        1 E41      0.196500
      5 C           0.9160    2.3030   -0.7770 c         1 E41      0.574100
      6 O          -0.2680    2.4650   -0.4450 o         1 E41     -0.568100
      7 CB          2.4240    2.2030    1.2110 c3        1 E41     -0.098700
      8 CG1         3.4330    1.3890    1.9950 c3        1 E41     -0.096600
      9 CG2         3.0610    3.4890    0.7220 c3        1 E41     -0.096600
     10 O3          1.0200   -1.4110    2.2450 o         1 E41     -0.652800
     11 O4          0.2110    0.8200    2.4620 o         1 E41     -0.652800
     12 C6         -1.0580   -0.7790    0.9710 ca        1 E41     -0.390500
     13 C7         -1.3540   -2.1660    0.8540 ca        1 E41     -0.050000
     14 C8         -2.5630   -2.5960    0.3770 ca        1 E41     -0.141000
     15 C9         -2.0180    0.1400    0.5980 ca        1 E41      0.046000
     16 C10        -3.2810   -0.2740    0.0990 ca        1 E41     -0.078000
     17 C11        -3.5600   -1.6590   -0.0160 ca        1 E41      0.012000
     18 C12        -4.8240   -2.0720   -0.5160 ca        1 E41     -0.137000
     19 C13        -5.7640   -1.1390   -0.8820 ca        1 E41     -0.101000
     20 C14        -5.4860    0.2450   -0.7670 ca        1 E41     -0.141000
     21 C15        -4.2720    0.6710   -0.2870 ca        1 E41     -0.092000
     22 C16         2.9500   -1.6250   -0.4490 c3        1 E41     -0.104400
     23 C17         3.1940   -2.6790   -1.5190 c3        1 E41     -0.064700
     24 C18         1.6050   -0.9280   -0.6630 c3        1 E41      0.212800
     25 C19         3.6370   -2.0540   -2.8260 c3        1 E41     -0.092100
     26 C20         4.2340   -3.6710   -1.0380 c3        1 E41     -0.092100
     27 H1          2.3670    3.1460   -1.9430 hn        1 E41      0.298500
     28 HA          2.8030    1.1980   -0.6610 h1        1 E41      0.071700
     29 H181        0.7850   -1.7040   -0.5970 h1        1 E41      0.053700
     30 H182        1.5720   -0.4990   -1.7060 h1        1 E41      0.053700
     31 HB          1.5580    2.4690    1.8850 hc        1 E41      0.112700
     32 HG11        4.2370    0.9990    1.3250 hc        1 E41      0.041867
     33 HG12        3.9020    2.0250    2.7840 hc        1 E41      0.041867
     34 HG13        2.9360    0.5240    2.5000 hc        1 E41      0.041867
     35 HG21        2.2920    4.1780    0.2950 hc        1 E41      0.041867
     36 HG22        3.5520    4.0130    1.5780 hc        1 E41      0.041867
     37 HG23        3.8380    3.2850   -0.0550 hc        1 E41      0.041867
     38 H7         -0.5870   -2.8920    1.1770 ha        1 E41      0.157000
     39 H9         -1.8120    1.2250    0.6850 ha        1 E41      0.174000
     40 H8         -2.7870   -3.6710    0.2940 ha        1 E41      0.139000
     41 H15        -4.0430    1.7440   -0.1930 ha        1 E41      0.144000
     42 H12        -5.0330   -3.1490   -0.6010 ha        1 E41      0.137000
     43 H13        -6.7450   -1.4550   -1.2680 ha        1 E41      0.135000
     44 H14        -6.2570    0.9710   -1.0670 ha        1 E41      0.137000
     45 H161        2.9530   -2.1100    0.5650 hc        1 E41      0.058200
     46 H162        3.7830   -0.8740   -0.4630 hc        1 E41      0.058200
     47 H17         2.2320   -3.2370   -1.6990 hc        1 E41      0.046700
     48 H191        2.8630   -1.3460   -3.2080 hc        1 E41      0.035367
     49 H192        4.5930   -1.4940   -2.6890 hc        1 E41      0.035367
     50 H193        3.8000   -2.8460   -3.5950 hc        1 E41      0.035367
     51 H201        3.8830   -4.1870   -0.1120 hc        1 E41      0.035367
     52 H202        4.4260   -4.4410   -1.8230 hc        1 E41      0.035367
     53 H203        5.1950   -3.1500   -0.8100 hc        1 E41      0.035367
     54 H1O        -0.1510    3.5250   -2.7860 ho        1 E41      0.435000
     55 S1          0.4150   -0.2940    1.6250 sy        1 E41      1.513200
@<TRIPOS>BOND
     1    1    2 1   
     2    1   54 1   
     3    2    5 1   
     4    2   27 1   
     5    3    4 1   
     6    3   24 1   
     7    3   55 1   
     8    4    5 1   
     9    4    7 1   
    10    4   28 1   
    11    5    6 2   
    12    7    8 1   
    13    7    9 1   
    14    7   31 1   
    15    8   32 1   
    16    8   33 1   
    17    8   34 1   
    18    9   35 1   
    19    9   36 1   
    20    9   37 1   
    21   10   55 2   
    22   11   55 2   
    23   12   13 ar  
    24   12   15 ar  
    25   12   55 1   
    26   13   14 ar  
    27   13   38 1   
    28   14   17 ar  
    29   14   40 1   
    30   15   16 ar  
    31   15   39 1   
    32   16   17 ar  
    33   16   21 ar  
    34   17   18 ar  
    35   18   19 ar  
    36   18   42 1   
    37   19   20 ar  
    38   19   43 1   
    39   20   21 ar  
    40   20   44 1   
    41   21   41 1   
    42   22   23 1   
    43   22   24 1   
    44   22   45 1   
    45   22   46 1   
    46   23   25 1   
    47   23   26 1   
    48   23   47 1   
    49   24   29 1   
    50   24   30 1   
    51   25   48 1   
    52   25   49 1   
    53   25   50 1   
    54   26   51 1   
    55   26   52 1   
    56   26   53 1   
@<TRIPOS>SUBSTRUCTURE
     1 E41         1 TEMP              0 ****  ****    0 ROOT
