@<TRIPOS>MOLECULE
E41
   55    51     1     0     0
SMALL
bcc


@<TRIPOS>ATOM
      1 O1          0.7880   -1.4910   -1.4140 oh        1 E41      0.047000
      2 N1          1.6530   -2.0260   -0.8260 n1        1 E41     -0.204000
      3 N           3.0650   -0.1190    2.7010 n3        1 E41     -0.820000
      4 CA          3.0310    0.5960    1.4420 c3        1 E41      0.004000
      5 C           1.6350    1.1600    1.1350 c2        1 E41      0.187000
      6 O           1.0040    0.7900    0.1450 o         1 E41     -0.314000
      7 CB          3.9900    1.7600    1.3810 c2        1 E41     -0.220000
      8 CG1         8.0350    1.8800   -1.8760 c3        1 E41     -0.268000
      9 CG2         5.1040    1.7310    0.6550 c2        1 E41     -0.170000
     10 O3          4.0210    0.5140    4.9450 o         1 E41     -0.938000
     11 O4          2.3650    1.9240    3.9440 o         1 E41     -0.938000
     12 C6          1.6910   -0.3340    4.8940 c2        1 E41     -0.856000
     13 C7          3.8990   -1.3830    7.4750 c1        1 E41     -0.199000
     14 C8          3.3770   -2.1950    8.1850 c1        1 E41     -0.165000
     15 C9          0.4430   -0.4820    4.5720 c1        1 E41      0.030000
     16 C10        -0.8340   -0.7460    4.3790 c2        1 E41     -0.098000
     17 C11         2.7520   -3.1290    9.0290 c2        1 E41     -0.062000
     18 C12         3.0120   -4.4390    9.0230 c2        1 E41     -0.196000
     19 C13        -2.9480    2.1830    5.3470 c1        1 E41     -0.105000
     20 C14        -2.3900    1.1220    5.1350 c1        1 E41     -0.145000
     21 C15        -1.9110   -0.1110    4.9900 c1        1 E41      0.024000
     22 C16         4.9870   -1.7160    2.5070 c3        1 E41     -0.182000
     23 C17         5.3160   -3.1980    2.4010 c3        1 E41     -0.104000
     24 C18         3.4760   -1.5020    2.6330 c3        1 E41     -0.019000
     25 C19         5.0690   -3.7210    1.0010 c3        1 E41     -0.211500
     26 C20         6.7590   -3.4360    2.8010 c3        1 E41     -0.211500
     27 H1          1.2530    1.9320    1.8410 h4        1 E41      0.137000
     28 HA          3.2910   -0.1350    0.6120 h1        1 E41      0.138000
     29 H181        2.9620   -2.0030    1.7630 h1        1 E41      0.098500
     30 H182        3.1160   -2.0110    3.5760 h1        1 E41      0.098500
     31 HB          7.1970    1.8390   -1.1450 hc        1 E41      0.066750
     32 HG11        3.6980    2.6410    1.9790 ha        1 E41      0.154000
     33 HG12        9.0030    1.9150   -1.3300 hc        1 E41      0.066750
     34 HG13        8.0070    0.9750   -2.5220 hc        1 E41      0.066750
     35 HG21        7.9320    2.7890   -2.5070 hc        1 E41      0.066750
     36 HG22        5.4120    0.8570    0.0640 ha        1 E41      0.120500
     37 HG23        5.7880    2.5900    0.6050 ha        1 E41      0.120500
     38 H7          4.3670   -0.6590    6.8460 ha        1 E41      0.254000
     39 H9          2.0600   -0.8610    5.8080 h4        1 E41      0.209000
     40 H8          2.0060   -2.6990    9.7260 ha        1 E41      0.134000
     41 H15        -1.1120   -1.6130    3.7370 ha        1 E41      0.199000
     42 H12         2.4990   -5.1320    9.7030 ha        1 E41      0.117500
     43 H13         3.7460   -4.9000    8.3490 ha        1 E41      0.117500
     44 H14        -3.4410    3.1040    5.5380 ha        1 E41      0.236000
     45 H161        5.4990   -1.2790    3.4060 hc        1 E41      0.095000
     46 H162        5.3750   -1.1770    1.6040 hc        1 E41      0.095000
     47 H17         4.6550   -3.7660    3.1160 hc        1 E41      0.085000
     48 H191        4.0090   -3.5520    0.6950 hc        1 E41      0.076167
     49 H192        5.2810   -4.8170    0.9580 hc        1 E41      0.076167
     50 H193        5.7350   -3.2050    0.2670 hc        1 E41      0.076167
     51 H201        7.4480   -2.8530    2.1440 hc        1 E41      0.076167
     52 H202        7.0110   -4.5200    2.7050 hc        1 E41      0.076167
     53 H203        6.9290   -3.1240    3.8590 hc        1 E41      0.076167
     54 H1O         0.9050   -0.4870   -1.5520 ho        1 E41      0.154000
     55 S1          2.8630    0.6170    4.1460 s6        1 E41      2.848000
@<TRIPOS>BOND
     1    1    2 1   
     2    1   54 1   
     3    3    4 1   
     4    3   24 1   
     5    3   55 1   
     6    4    5 1   
     7    4    7 1   
     8    4   28 1   
     9    5    6 1   
    10    5   27 1   
    11    7    9 1   
    12    7   32 1   
    13    8   31 1   
    14    8   33 1   
    15    8   34 1   
    16    8   35 1   
    17    9   36 1   
    18    9   37 1   
    19   10   55 1   
    20   11   55 1   
    21   12   15 1   
    22   12   39 1   
    23   12   55 1   
    24   13   14 1   
    25   13   38 1   
    26   14   17 1   
    27   15   16 1   
    28   16   21 1   
    29   16   41 1   
    30   17   18 1   
    31   17   40 1   
    32   18   42 1   
    33   18   43 1   
    34   19   20 1   
    35   19   44 1   
    36   20   21 1   
    37   22   23 1   
    38   22   24 1   
    39   22   45 1   
    40   22   46 1   
    41   23   25 1   
    42   23   26 1   
    43   23   47 1   
    44   24   29 1   
    45   24   30 1   
    46   25   48 1   
    47   25   49 1   
    48   25   50 1   
    49   26   51 1   
    50   26   52 1   
    51   26   53 1   
@<TRIPOS>SUBSTRUCTURE
     1 E41         1 TEMP              0 ****  ****    0 ROOT
