@<TRIPOS>MOLECULE
E41
   55    51     1     0     0
SMALL
bcc


@<TRIPOS>ATOM
      1 O1         -2.9560    3.9270   -0.6540 oh        1 E41     -0.241000
      2 N1         -2.7200    2.6790   -1.1810 n         1 E41     -0.196000
      3 N          -0.4490   -0.0990   -1.0300 n3        1 E41     -0.815000
      4 CA         -1.0840    0.8760   -1.8980 c3        1 E41      0.055000
      5 C          -1.4070    2.1100   -1.1120 c2        1 E41      0.221000
      6 O          -0.5360    2.6710   -0.4780 o         1 E41     -0.324000
      7 CB         -0.1500    1.2290   -3.0280 c3        1 E41     -0.129000
      8 CG1        -0.7770    0.8140   -4.3520 c3        1 E41     -0.219500
      9 CG2         0.0920    2.7050   -3.0340 c3        1 E41     -0.219500
     10 S1          1.0700    0.2000   -0.4140 s4        1 E41      2.060800
     11 O3          1.9720   -0.8860   -0.6980 o         1 E41     -0.539900
     12 O4          1.7070    1.2780   -1.1040 o         1 E41     -0.539900
     13 C6          0.9740    0.5200    1.3440 c1        1 E41     -0.824000
     14 C7         -0.0450    0.2940    2.2680 c2        1 E41     -0.027000
     15 C8          0.1730    0.5480    3.6210 c1        1 E41     -0.136000
     16 C9          2.2080    1.0000    1.7710 c1        1 E41      0.020000
     17 C10         2.4300    1.2590    3.1420 c1        1 E41     -0.031500
     18 C11         1.4250    1.0360    4.0550 c1        1 E41     -0.031500
     19 C12         1.6560    1.2640    5.4240 c1        1 E41     -0.116000
     20 C13         2.9000    1.7150    5.8540 c1        1 E41     -0.120500
     21 C14         3.9150    1.9400    4.9300 c1        1 E41     -0.120500
     22 C15         3.6880    1.7150    3.5780 c1        1 E41     -0.116000
     23 C16        -0.4620   -2.5490   -1.0880 c3        1 E41     -0.173000
     24 C17        -1.4430   -3.7360   -1.0630 c3        1 E41     -0.104000
     25 C18        -1.1860   -1.2730   -0.5980 c3        1 E41     -0.043000
     26 C19        -1.1400   -4.6650   -2.2100 c3        1 E41     -0.210500
     27 C20        -1.2980   -4.4950    0.2630 c3        1 E41     -0.210500
     28 H1         -3.3910    2.2270   -1.5970 hn        1 E41      0.212000
     29 HA         -1.9060    0.5000   -2.2630 h1        1 E41      0.099000
     30 H181       -2.0870   -1.2470   -0.9730 h1        1 E41      0.108000
     31 H182       -1.2390   -1.2830    0.3770 h1        1 E41      0.108000
     32 HB          0.6940    0.7630   -2.9090 hc        1 E41      0.134000
     33 HG11       -0.0640    0.5860   -4.9970 hc        1 E41      0.085333
     34 HG12       -1.3530    0.0340   -4.2100 hc        1 E41      0.085333
     35 HG13       -1.3200    1.5650   -4.7100 hc        1 E41      0.085333
     36 HG21       -0.7690    3.1780   -3.0620 hc        1 E41      0.085333
     37 HG22        0.6220    2.9450   -3.8220 hc        1 E41      0.085333
     38 HG23        0.5770    2.9580   -2.2260 hc        1 E41      0.085333
     39 H7         -0.9140   -0.0270    1.9670 ha        1 E41      0.155000
     40 H9          2.9230    1.1490    1.1250 ha        1 E41      0.159000
     41 H8         -0.5390    0.3900    4.2670 ha        1 E41      0.143000
     42 H15         4.3990    1.8730    2.9310 ha        1 E41      0.138500
     43 H12         0.9420    1.1060    6.0740 ha        1 E41      0.138500
     44 H13         3.0600    1.8730    6.7990 ha        1 E41      0.136500
     45 H14         4.7860    2.2560    5.2310 ha        1 E41      0.136500
     46 H161       -0.1370   -2.4100   -2.0070 hc        1 E41      0.087000
     47 H162        0.2980   -2.7400   -0.4980 hc        1 E41      0.087000
     48 H17        -2.3590   -3.4030   -1.1480 hc        1 E41      0.084000
     49 H191       -1.7850   -5.4040   -2.2120 hc        1 E41      0.076333
     50 H192       -1.2040   -4.1750   -3.0510 hc        1 E41      0.076333
     51 H193       -0.2290   -5.0250   -2.1090 hc        1 E41      0.076333
     52 H201       -0.3590   -4.7510    0.3920 hc        1 E41      0.076333
     53 H202       -1.5840   -3.9190    1.0020 hc        1 E41      0.076333
     54 H203       -1.8620   -5.3080    0.2420 hc        1 E41      0.076333
     55 H1O        -3.7550    4.2150   -0.9190 ho        1 E41      0.234000
@<TRIPOS>BOND
     1    1    2 1   
     2    1   55 1   
     3    2    5 1   
     4    2   28 1   
     5    3    4 1   
     6    3   10 1   
     7    3   25 1   
     8    4    5 1   
     9    4    7 1   
    10    4   29 1   
    11    5    6 1   
    12    7    8 1   
    13    7    9 1   
    14    7   32 1   
    15    8   33 1   
    16    8   34 1   
    17    8   35 1   
    18    9   36 1   
    19    9   37 1   
    20    9   38 1   
    21   10   11 1   
    22   10   12 1   
    23   13   14 1   
    24   13   16 1   
    25   14   15 1   
    26   14   39 1   
    27   15   41 1   
    28   16   40 1   
    29   17   18 1   
    30   17   22 1   
    31   18   19 1   
    32   19   43 1   
    33   20   21 1   
    34   20   44 1   
    35   21   45 1   
    36   22   42 1   
    37   23   24 1   
    38   23   25 1   
    39   23   46 1   
    40   23   47 1   
    41   24   26 1   
    42   24   27 1   
    43   24   48 1   
    44   25   30 1   
    45   25   31 1   
    46   26   49 1   
    47   26   50 1   
    48   26   51 1   
    49   27   52 1   
    50   27   53 1   
    51   27   54 1   
@<TRIPOS>SUBSTRUCTURE
     1 E41         1 TEMP              0 ****  ****    0 ROOT
