@<TRIPOS>MOLECULE
E46
   47    50     1     0     0
SMALL
bcc


@<TRIPOS>ATOM
      1 FAA         0.9010    0.6280   -1.6860 f         1 E46     -0.215967
      2 CBB         1.5170    0.1870   -0.5620 c3        1 E46      0.820700
      3 FAB         0.5820   -0.3030    0.2910 f         1 E46     -0.215967
      4 FAC         2.3870   -0.8010   -0.8830 f         1 E46     -0.215967
      5 OAT         2.3060    1.1780    0.0440 os        1 E46     -0.366900
      6 CAU         1.6870    2.3830    0.3840 ca        1 E46      0.091100
      7 CAI         2.0700    3.5180   -0.3360 ca        1 E46     -0.112000
      8 CAE         0.8250    2.4510    1.4840 ca        1 E46     -0.135000
      9 CAD         0.3460    3.7000    1.8730 ca        1 E46     -0.110000
     10 CAF         0.7180    4.8570    1.1910 ca        1 E46     -0.119000
     11 CAW         1.5780    4.7740    0.0760 ca        1 E46      0.046800
     12 NBA         1.9590    5.9450   -0.6260 na        1 E46     -0.000900
     13 NAP         3.1780    6.1250   -1.2370 nc        1 E46     -0.126400
     14 NAO         3.2550    7.2260   -1.8390 nd        1 E46     -0.180400
     15 CAX         2.0290    7.9280   -1.6970 ca        1 E46     -0.147900
     16 CAH         1.5370    9.1580   -2.1390 ca        1 E46      0.027000
     17 CAG         0.2410    9.4900   -1.7900 ca        1 E46     -0.318300
     18 CAY         1.1520    7.0840   -0.8920 ca        1 E46      0.468800
     19 NAQ        -0.1120    7.3870   -0.5240 nb        1 E46     -0.736000
     20 CAV        -0.5700    8.5940   -1.0000 ca        1 E46      0.690200
     21 NAS        -1.9060    8.9090   -0.7490 nh        1 E46     -0.846900
     22 CAN        -2.3230   10.2900   -0.7470 c3        1 E46      0.200800
     23 CAZ        -3.6460   10.5320   -0.0080 c3        1 E46     -0.079700
     24 CAL        -4.1260   11.9430   -0.3150 c3        1 E46     -0.077400
     25 CAM        -3.4850   10.3540    1.4930 c3        1 E46     -0.077400
     26 CAK        -4.7770   10.7160    2.2260 c3        1 E46      0.164300
     27 NAR        -5.2710   12.0360    1.8870 n3        1 E46     -0.821200
     28 CAJ        -5.4020   12.2630    0.4620 c3        1 E46      0.164300
     29 HAI         2.7560    3.4110   -1.1920 ha        1 E46      0.175000
     30 HAE         0.5380    1.5350    2.0210 ha        1 E46      0.158000
     31 HAD        -0.3310    3.7770    2.7370 ha        1 E46      0.146000
     32 HAF         0.3290    5.8290    1.5340 ha        1 E46      0.163000
     33 HAH         2.1600    9.8340   -2.7450 ha        1 E46      0.158000
     34 HAG        -0.1820   10.4440   -2.1340 ha        1 E46      0.151000
     35 HAS        -2.3940    8.3110   -0.1150 hn        1 E46      0.430800
     36 HAN1       -2.4520   10.6080   -1.8240 h1        1 E46      0.047200
     37 HAN2       -1.5300   10.9510   -0.2900 h1        1 E46      0.047200
     38 HAZ        -4.4220    9.8040   -0.3790 hc        1 E46      0.060700
     39 HAL1       -4.3400   12.0460   -1.4100 hc        1 E46      0.050700
     40 HAL2       -3.3250   12.6800   -0.0480 hc        1 E46      0.050700
     41 HAM1       -3.2310    9.2900    1.7380 hc        1 E46      0.050700
     42 HAM2       -2.6470   11.0010    1.8610 hc        1 E46      0.050700
     43 HAJ1       -5.6510   13.3520    0.3190 h1        1 E46      0.030450
     44 HAJ2       -6.2460   11.6590    0.0120 h1        1 E46      0.030450
     45 HAK1       -4.5800   10.7080    3.3350 h1        1 E46      0.030450
     46 HAK2       -5.5390    9.9090    2.0090 h1        1 E46      0.030450
     47 HAR        -6.1500   12.2000    2.3430 hn        1 E46      0.366800
@<TRIPOS>BOND
     1    1    2 1   
     2    2    3 1   
     3    2    4 1   
     4    2    5 1   
     5    5    6 1   
     6    6    7 ar  
     7    6    8 ar  
     8    7   11 ar  
     9    7   29 1   
    10    8    9 ar  
    11    8   30 1   
    12    9   10 ar  
    13    9   31 1   
    14   10   11 ar  
    15   10   32 1   
    16   11   12 1   
    17   12   13 1   
    18   12   18 1   
    19   13   14 2   
    20   14   15 1   
    21   15   16 ar  
    22   15   18 ar  
    23   16   17 ar  
    24   16   33 1   
    25   17   20 ar  
    26   17   34 1   
    27   18   19 ar  
    28   19   20 ar  
    29   20   21 1   
    30   21   22 1   
    31   21   35 1   
    32   22   23 1   
    33   22   36 1   
    34   22   37 1   
    35   23   24 1   
    36   23   25 1   
    37   23   38 1   
    38   24   28 1   
    39   24   39 1   
    40   24   40 1   
    41   25   26 1   
    42   25   41 1   
    43   25   42 1   
    44   26   27 1   
    45   26   45 1   
    46   26   46 1   
    47   27   28 1   
    48   27   47 1   
    49   28   43 1   
    50   28   44 1   
@<TRIPOS>SUBSTRUCTURE
     1 E46         1 TEMP              0 ****  ****    0 ROOT
