@<TRIPOS>MOLECULE
E46
   48    51     1     0     0
SMALL
bcc


@<TRIPOS>ATOM
      1 FAA         0.6420    0.1870    1.7120 f         1 E46     -0.202967
      2 CBB         1.8410    0.5050    1.1650 c3        1 E46      0.829700
      3 FAB         2.7040    0.8590    2.1480 f         1 E46     -0.202967
      4 FAC         2.3270   -0.5550    0.4810 f         1 E46     -0.202967
      5 OAT         1.6970    1.5110    0.1900 os        1 E46     -0.367900
      6 CAU         1.4440    2.8210    0.5740 ca        1 E46      0.141100
      7 CAI         1.7680    3.7680   -0.4100 ca        1 E46     -0.112000
      8 CAE         0.8620    3.1910    1.7900 ca        1 E46     -0.152000
      9 CAD         0.6000    4.5390    2.0260 ca        1 E46     -0.086000
     10 CAF         0.9020    5.5080    1.0740 ca        1 E46     -0.137000
     11 CAW         1.4820    5.1190   -0.1500 ca        1 E46      0.016800
     12 NBA         1.8020    6.1040   -1.1330 na        1 E46      0.041100
     13 NAP         2.9520    6.1290   -1.8700 nc        1 E46     -0.054400
     14 NAO         2.9850    7.0770   -2.7000 nd        1 E46     -0.170400
     15 CAX         1.7800    7.8260   -2.6040 ca        1 E46     -0.050900
     16 CAH         1.2610    8.9390   -3.2550 ca        1 E46      0.028000
     17 CAG        -0.0090    9.3710   -2.8670 ca        1 E46     -0.252300
     18 CAY         0.9800    7.1750   -1.5530 ca        1 E46      0.429800
     19 NAQ        -0.2490    7.5840   -1.1640 nb        1 E46     -0.633000
     20 CAV        -0.7040    8.6700   -1.8450 ca        1 E46      0.485200
     21 NAS        -2.0560    9.1460   -1.4670 n4        1 E46     -0.745700
     22 CAN        -2.0140   10.0140   -0.2470 c3        1 E46      0.106800
     23 CAZ        -3.3840   10.6000    0.1040 c3        1 E46     -0.092700
     24 CAL        -3.1870   11.5590    1.2740 c3        1 E46     -0.083400
     25 CAM        -4.3830    9.5110    0.4660 c3        1 E46     -0.083400
     26 CAK        -5.6890   10.1220    0.9840 c3        1 E46      0.168300
     27 NAR        -5.4680   11.0440    2.0770 n3        1 E46     -0.826200
     28 CAJ        -4.5330   12.1020    1.7580 c3        1 E46      0.168300
     29 HAI         2.2360    3.4300   -1.3500 ha        1 E46      0.184000
     30 HAE         0.6250    2.4330    2.5540 ha        1 E46      0.170000
     31 HAD         0.1510    4.8430    2.9860 ha        1 E46      0.157000
     32 HAF         0.6940    6.5660    1.2910 ha        1 E46      0.147000
     33 HAH         1.8250    9.4610   -4.0470 ha        1 E46      0.198000
     34 HAG        -0.4540   10.2480   -3.3630 ha        1 E46      0.170000
     35 HAS        -2.6750    8.3420   -1.2800 hn        1 E46      0.464800
     36 HAN1       -1.2790   10.8460   -0.4420 hx        1 E46      0.112200
     37 HAN2       -1.6320    9.3840    0.6080 hx        1 E46      0.112200
     38 HAZ        -3.7830   11.1870   -0.7710 hc        1 E46      0.065700
     39 HAL1       -2.6710   11.0290    2.1160 hc        1 E46      0.055200
     40 HAL2       -2.5460   12.4220    0.9580 hc        1 E46      0.055200
     41 HAM1       -4.6330    8.8870   -0.4300 hc        1 E46      0.055200
     42 HAM2       -3.9470    8.8410    1.2520 hc        1 E46      0.055200
     43 HAJ1       -4.9330   12.8060    0.9700 h1        1 E46      0.046700
     44 HAJ2       -4.3620   12.7000    2.6980 h1        1 E46      0.046700
     45 HAK1       -6.2170   10.6080    0.1100 h1        1 E46      0.046700
     46 HAK2       -6.3480    9.2920    1.3660 h1        1 E46      0.046700
     47 HAR        -6.3370   11.4210    2.4060 hn        1 E46      0.391800
     48 HAS2       -2.4430    9.6760   -2.2560 hn        1 E46      0.464800
@<TRIPOS>BOND
     1    1    2 1   
     2    2    3 1   
     3    2    4 1   
     4    2    5 1   
     5    5    6 1   
     6    6    7 ar  
     7    6    8 ar  
     8    7   11 ar  
     9    7   29 1   
    10    8    9 ar  
    11    8   30 1   
    12    9   10 ar  
    13    9   31 1   
    14   10   11 ar  
    15   10   32 1   
    16   11   12 1   
    17   12   13 1   
    18   12   18 1   
    19   13   14 2   
    20   14   15 1   
    21   15   16 ar  
    22   15   18 ar  
    23   16   17 ar  
    24   16   33 1   
    25   17   20 ar  
    26   17   34 1   
    27   18   19 ar  
    28   19   20 ar  
    29   20   21 1   
    30   21   22 1   
    31   21   35 1   
    32   21   48 1   
    33   22   23 1   
    34   22   36 1   
    35   22   37 1   
    36   23   24 1   
    37   23   25 1   
    38   23   38 1   
    39   24   28 1   
    40   24   39 1   
    41   24   40 1   
    42   25   26 1   
    43   25   41 1   
    44   25   42 1   
    45   26   27 1   
    46   26   45 1   
    47   26   46 1   
    48   27   28 1   
    49   27   47 1   
    50   28   43 1   
    51   28   44 1   
@<TRIPOS>SUBSTRUCTURE
     1 E46         1 TEMP              0 ****  ****    0 ROOT
