@<TRIPOS>MOLECULE
E46
   47    45     1     0     0
SMALL
bcc


@<TRIPOS>ATOM
      1 FAA         3.2700   -7.3440    0.9190 f         1 E46     -0.144000
      2 CBB         2.9470   -6.7750   -0.2470 c3        1 E46      0.535000
      3 FAB         4.0060   -6.1120   -0.7300 f         1 E46     -0.144000
      4 FAC         2.5780   -7.7270   -1.1220 f         1 E46     -0.144000
      5 OAT         1.8710   -5.8700   -0.0500 os        1 E46     -0.252000
      6 CAU         2.1890   -4.7730    0.7960 c2        1 E46      0.046000
      7 CAI         2.5590   -3.5510    0.2400 c2        1 E46     -0.113000
      8 CAE         2.0390   -4.8920    2.1700 c1        1 E46     -0.135000
      9 CAD         2.2590   -3.7930    2.9910 c1        1 E46     -0.113500
     10 CAF         2.6300   -2.5730    2.4350 c1        1 E46     -0.113500
     11 CAW         2.7790   -2.4520    1.0610 c1        1 E46      0.091000
     12 NBA         3.0740   -1.1750    0.4840 n3        1 E46     -0.161000
     13 NAP         4.4300   -1.1180    0.3500 n2        1 E46      0.053000
     14 NAO         4.7570    0.1250   -0.1160 n2        1 E46     -0.042000
     15 CAX         3.6050    0.8330   -0.2700 c1        1 E46     -0.221000
     16 CAH         3.3630    2.1400   -0.6740 c1        1 E46     -0.113500
     17 CAG         2.0780    2.6230   -0.7010 c1        1 E46     -0.113500
     18 CAY         2.5610    0.0280    0.1010 c1        1 E46      0.076000
     19 NAQ         1.2620    0.5180    0.0740 n1        1 E46     -0.207000
     20 CAV         1.0230    1.8060   -0.3240 c1        1 E46      0.165000
     21 NAS        -0.4000    1.9090   -0.0530 n3        1 E46     -0.287000
     22 CAN        -1.2310    2.7790   -0.8620 c3        1 E46     -0.039000
     23 CAZ        -2.5600    2.6580   -0.4600 c3        1 E46     -0.113000
     24 CAL        -3.4370    1.9680   -1.5490 c3        1 E46     -0.161000
     25 CAM        -3.3080    4.0440   -0.4790 c3        1 E46     -0.161000
     26 CAK        -4.7630    3.9260   -0.0800 c3        1 E46     -0.070500
     27 NAR        -5.1850    2.7040   -0.1970 n3        1 E46     -0.302000
     28 CAJ        -4.9000    1.8640   -1.1430 c3        1 E46     -0.070500
     29 HAI         2.6640   -3.4660   -0.7260 ha        1 E46      0.175000
     30 HAE         1.7800   -5.7470    2.5600 ha        1 E46      0.158000
     31 HAD         2.1540   -3.8780    3.9610 ha        1 E46      0.155250
     32 HAF         2.7840   -1.7990    3.0130 ha        1 E46      0.155250
     33 HAH         4.1090    2.7160   -0.9400 ha        1 E46      0.155250
     34 HAG         1.9070    3.5410   -0.9840 ha        1 E46      0.155250
     35 HAS        -0.7790    1.3930    0.6000 hn        1 E46      0.226000
     36 HAN1       -1.1510    2.5240   -1.8020 h1        1 E46      0.084500
     37 HAN2       -0.9380    3.7080   -0.7490 h1        1 E46      0.084500
     38 HAZ        -2.6440    2.2140    0.4060 hc        1 E46      0.110000
     39 HAL1       -3.3750    2.4850   -2.3790 hc        1 E46      0.086750
     40 HAL2       -3.0900    1.0680   -1.7100 hc        1 E46      0.086750
     41 HAM1       -3.2590    4.4170   -1.3830 hc        1 E46      0.086750
     42 HAM2       -2.8590    4.6550    0.1410 hc        1 E46      0.086750
     43 HAJ1       -5.0830    0.9510   -0.8280 h1        1 E46      0.072500
     44 HAJ2       -5.4640    2.0540   -1.9230 h1        1 E46      0.072500
     45 HAK1       -4.8630    4.2120    0.8550 h1        1 E46      0.072500
     46 HAK2       -5.3030    4.5100   -0.6550 h1        1 E46      0.072500
     47 HAR        -6.0880    2.6730   -0.0210 hn        1 E46      0.161000
@<TRIPOS>BOND
     1    1    2 1   
     2    2    3 1   
     3    2    4 1   
     4    2    5 1   
     5    5    6 1   
     6    6    7 1   
     7    6    8 1   
     8    7   11 1   
     9    7   29 1   
    10    8   30 1   
    11    9   10 1   
    12    9   31 1   
    13   10   32 1   
    14   11   12 1   
    15   12   13 1   
    16   12   18 1   
    17   13   14 1   
    18   14   15 1   
    19   15   18 1   
    20   16   17 1   
    21   16   33 1   
    22   17   34 1   
    23   19   20 1   
    24   20   21 1   
    25   21   22 1   
    26   21   35 1   
    27   22   23 1   
    28   22   36 1   
    29   22   37 1   
    30   23   24 1   
    31   23   25 1   
    32   23   38 1   
    33   24   28 1   
    34   24   39 1   
    35   24   40 1   
    36   25   26 1   
    37   25   41 1   
    38   25   42 1   
    39   26   27 1   
    40   26   45 1   
    41   26   46 1   
    42   27   28 1   
    43   27   47 1   
    44   28   43 1   
    45   28   44 1   
@<TRIPOS>SUBSTRUCTURE
     1 E46         1 TEMP              0 ****  ****    0 ROOT
