@<TRIPOS>MOLECULE
E46
   47    50     1     0     0
SMALL
bcc


@<TRIPOS>ATOM
      1 FAA        -5.4420   -0.7300    1.9610 f         1 E46     -0.215967
      2 CBB        -6.0760   -0.9850    0.7900 c3        1 E46      0.820700
      3 FAB        -6.0560   -2.3230    0.5600 f         1 E46     -0.215967
      4 FAC        -7.3620   -0.5680    0.8730 f         1 E46     -0.215967
      5 OAT        -5.5320   -0.2650   -0.2860 os        1 E46     -0.366900
      6 CAU        -4.1670   -0.4100   -0.5410 ca        1 E46      0.091100
      7 CAI        -3.3560    0.7040   -0.3040 ca        1 E46     -0.112000
      8 CAE        -3.6770   -1.5810   -1.1290 ca        1 E46     -0.135000
      9 CAD        -2.3350   -1.6230   -1.4980 ca        1 E46     -0.110000
     10 CAF        -1.4970   -0.5290   -1.2950 ca        1 E46     -0.119000
     11 CAW        -2.0000    0.6420   -0.6900 ca        1 E46      0.046800
     12 NBA        -1.1550    1.7600   -0.4740 na        1 E46     -0.000900
     13 NAP        -1.5700    3.0700   -0.5210 nc        1 E46     -0.126400
     14 NAO        -0.6460    3.8770   -0.2440 nd        1 E46     -0.180400
     15 CAX         0.5410    3.1520    0.0430 ca        1 E46     -0.147900
     16 CAH         1.8440    3.4960    0.4100 ca        1 E46      0.027000
     17 CAG         2.7400    2.4640    0.6210 ca        1 E46     -0.318300
     18 CAY         0.2160    1.7370   -0.1030 ca        1 E46      0.468800
     19 NAQ         1.0730    0.7090    0.0820 nb        1 E46     -0.736000
     20 CAV         2.3390    1.0850    0.4680 ca        1 E46      0.690200
     21 NAS         3.2350    0.0640    0.7850 nh        1 E46     -0.846900
     22 CAN         4.6540    0.3110    0.7020 c3        1 E46      0.200800
     23 CAZ         5.4960   -0.9690    0.6030 c3        1 E46     -0.079700
     24 CAL         6.9600   -0.6070    0.8110 c3        1 E46     -0.077400
     25 CAM         5.3160   -1.6490   -0.7450 c3        1 E46     -0.077400
     26 CAK         6.2510   -2.8510   -0.8760 c3        1 E46      0.164300
     27 NAR         7.6390   -2.5230   -0.6160 n3        1 E46     -0.821200
     28 CAJ         7.8510   -1.8360    0.6430 c3        1 E46      0.164300
     29 HAI        -3.7920    1.6040    0.1570 ha        1 E46      0.175000
     30 HAE        -4.3430   -2.4400   -1.2910 ha        1 E46      0.158000
     31 HAD        -1.9280   -2.5340   -1.9650 ha        1 E46      0.146000
     32 HAF        -0.4440   -0.5940   -1.6090 ha        1 E46      0.163000
     33 HAH         2.1420    4.5490    0.5290 ha        1 E46      0.158000
     34 HAG         3.7700    2.6980    0.9250 ha        1 E46      0.151000
     35 HAS         2.9470   -0.8670    0.5660 hn        1 E46      0.430800
     36 HAN1        4.8980    0.9720   -0.1810 h1        1 E46      0.047200
     37 HAN2        4.9580    0.8670    1.6380 h1        1 E46      0.047200
     38 HAZ         5.1870   -1.6850    1.4150 hc        1 E46      0.060700
     39 HAL1        7.2610    0.1840    0.0760 hc        1 E46      0.050700
     40 HAL2        7.1100   -0.1960    1.8420 hc        1 E46      0.050700
     41 HAM1        4.2630   -2.0110   -0.8660 hc        1 E46      0.050700
     42 HAM2        5.5250   -0.9160   -1.5670 hc        1 E46      0.050700
     43 HAJ1        8.9290   -1.5100    0.6670 h1        1 E46      0.030450
     44 HAJ2        7.6810   -2.5160    1.5310 h1        1 E46      0.030450
     45 HAK1        5.8720   -3.6650   -0.1890 h1        1 E46      0.030450
     46 HAK2        6.1930   -3.2430   -1.9310 h1        1 E46      0.030450
     47 HAR         8.2000   -3.3540   -0.6520 hn        1 E46      0.366800
@<TRIPOS>BOND
     1    1    2 1   
     2    2    3 1   
     3    2    4 1   
     4    2    5 1   
     5    5    6 1   
     6    6    7 ar  
     7    6    8 ar  
     8    7   11 ar  
     9    7   29 1   
    10    8    9 ar  
    11    8   30 1   
    12    9   10 ar  
    13    9   31 1   
    14   10   11 ar  
    15   10   32 1   
    16   11   12 1   
    17   12   13 1   
    18   12   18 1   
    19   13   14 2   
    20   14   15 1   
    21   15   16 ar  
    22   15   18 ar  
    23   16   17 ar  
    24   16   33 1   
    25   17   20 ar  
    26   17   34 1   
    27   18   19 ar  
    28   19   20 ar  
    29   20   21 1   
    30   21   22 1   
    31   21   35 1   
    32   22   23 1   
    33   22   36 1   
    34   22   37 1   
    35   23   24 1   
    36   23   25 1   
    37   23   38 1   
    38   24   28 1   
    39   24   39 1   
    40   24   40 1   
    41   25   26 1   
    42   25   41 1   
    43   25   42 1   
    44   26   27 1   
    45   26   45 1   
    46   26   46 1   
    47   27   28 1   
    48   27   47 1   
    49   28   43 1   
    50   28   44 1   
@<TRIPOS>SUBSTRUCTURE
     1 E46         1 TEMP              0 ****  ****    0 ROOT
