@<TRIPOS>MOLECULE
E46
   47    50     1     0     0
SMALL
bcc


@<TRIPOS>ATOM
      1 FAA         0.9010    0.6310   -1.6830 f         1 E46     -0.215967
      2 CBB         1.5200    0.1900   -0.5600 c3        1 E46      0.820700
      3 FAB         0.5860   -0.2990    0.2950 f         1 E46     -0.215967
      4 FAC         2.3880   -0.7980   -0.8820 f         1 E46     -0.215967
      5 OAT         2.3100    1.1810    0.0440 os        1 E46     -0.366900
      6 CAU         1.6920    2.3860    0.3850 ca        1 E46      0.091100
      7 CAI         2.0730    3.5210   -0.3380 ca        1 E46     -0.112000
      8 CAE         0.8340    2.4550    1.4880 ca        1 E46     -0.135000
      9 CAD         0.3560    3.7040    1.8770 ca        1 E46     -0.110000
     10 CAF         0.7250    4.8600    1.1930 ca        1 E46     -0.119000
     11 CAW         1.5820    4.7770    0.0760 ca        1 E46      0.046800
     12 NBA         1.9600    5.9480   -0.6290 na        1 E46     -0.000900
     13 NAP         3.1770    6.1270   -1.2430 nc        1 E46     -0.126400
     14 NAO         3.2520    7.2270   -1.8470 nd        1 E46     -0.180400
     15 CAX         2.0260    7.9290   -1.7030 ca        1 E46     -0.147900
     16 CAH         1.5320    9.1590   -2.1450 ca        1 E46      0.027000
     17 CAG         0.2370    9.4890   -1.7930 ca        1 E46     -0.318300
     18 CAY         1.1510    7.0860   -0.8940 ca        1 E46      0.468800
     19 NAQ        -0.1120    7.3880   -0.5230 nb        1 E46     -0.736000
     20 CAV        -0.5720    8.5940   -0.9990 ca        1 E46      0.690200
     21 NAS        -1.9070    8.9080   -0.7450 nu        1 E46     -0.846900
     22 CAN        -2.3250   10.2890   -0.7450 c3        1 E46      0.200800
     23 CAZ        -3.6480   10.5300   -0.0030 c3        1 E46     -0.079700
     24 CAL        -4.1290   11.9410   -0.3100 c3        1 E46     -0.077400
     25 CAM        -3.4830   10.3540    1.4980 c3        1 E46     -0.077400
     26 CAK        -4.7740   10.7160    2.2330 c3        1 E46      0.164300
     27 NAR        -5.2700   12.0350    1.8940 n7        1 E46     -0.821200
     28 CAJ        -5.4040   12.2610    0.4690 c3        1 E46      0.164300
     29 HAI         2.7560    3.4130   -1.1950 ha        1 E46      0.175000
     30 HAE         0.5490    1.5390    2.0260 ha        1 E46      0.158000
     31 HAD        -0.3180    3.7820    2.7430 ha        1 E46      0.146000
     32 HAF         0.3380    5.8330    1.5360 ha        1 E46      0.163000
     33 HAH         2.1530    9.8340   -2.7530 ha        1 E46      0.158000
     34 HAG        -0.1890   10.4430   -2.1370 ha        1 E46      0.151000
     35 HAS        -2.3930    8.3110   -0.1080 hn        1 E46      0.430800
     36 HAN1       -1.5320   10.9510   -0.2890 h1        1 E46      0.047200
     37 HAN2       -2.4570   10.6050   -1.8210 h1        1 E46      0.047200
     38 HAZ        -4.4230    9.8010   -0.3720 hc        1 E46      0.060700
     39 HAL1       -3.3280   12.6790   -0.0460 hc        1 E46      0.050700
     40 HAL2       -4.3450   12.0430   -1.4050 hc        1 E46      0.050700
     41 HAM1       -2.6450   11.0020    1.8640 hc        1 E46      0.050700
     42 HAM2       -3.2280    9.2910    1.7440 hc        1 E46      0.050700
     43 HAJ1       -5.6540   13.3500    0.3250 h1        1 E46      0.030450
     44 HAJ2       -6.2480   11.6550    0.0210 h1        1 E46      0.030450
     45 HAK1       -4.5740   10.7100    3.3420 h1        1 E46      0.030450
     46 HAK2       -5.5360    9.9090    2.0190 h1        1 E46      0.030450
     47 HAR        -6.1470   12.1990    2.3510 hn        1 E46      0.366800
@<TRIPOS>BOND
     1    1    2 1   
     2    2    3 1   
     3    2    4 1   
     4    2    5 1   
     5    5    6 1   
     6    6    7 ar  
     7    6    8 ar  
     8    7   11 ar  
     9    7   29 1   
    10    8    9 ar  
    11    8   30 1   
    12    9   10 ar  
    13    9   31 1   
    14   10   11 ar  
    15   10   32 1   
    16   11   12 1   
    17   12   13 1   
    18   12   18 1   
    19   13   14 2   
    20   14   15 1   
    21   15   16 ar  
    22   15   18 ar  
    23   16   17 ar  
    24   16   33 1   
    25   17   20 ar  
    26   17   34 1   
    27   18   19 ar  
    28   19   20 ar  
    29   20   21 1   
    30   21   22 1   
    31   21   35 1   
    32   22   23 1   
    33   22   36 1   
    34   22   37 1   
    35   23   24 1   
    36   23   25 1   
    37   23   38 1   
    38   24   28 1   
    39   24   39 1   
    40   24   40 1   
    41   25   26 1   
    42   25   41 1   
    43   25   42 1   
    44   26   27 1   
    45   26   45 1   
    46   26   46 1   
    47   27   28 1   
    48   27   47 1   
    49   28   43 1   
    50   28   44 1   
@<TRIPOS>SUBSTRUCTURE
     1 E46         1 TEMP              0 ****  ****    0 ROOT
