@<TRIPOS>MOLECULE
E49
   38    39     1     0     0
SMALL
bcc


@<TRIPOS>ATOM
      1 N1          1.6220    1.1360    0.3070 n2        1 E49     -0.118000
      2 C2          2.3220   -0.0310   -0.1110 c2        1 E49     -0.314000
      3 N3          2.5790   -1.1070    0.5770 n2        1 E49     -0.107000
      4 C4          2.0540   -1.1740    1.9310 c3        1 E49     -0.181000
      5 C5          1.3010   -0.0250    2.4630 c1        1 E49      0.025000
      6 C6          1.1530    1.1230    1.5340 c2        1 E49     -0.041000
      7 S7          2.8570    0.1560   -1.7830 s4        1 E49      1.264000
      8 C8          2.9560   -1.4800   -2.4310 c3        1 E49     -0.611000
      9 C9          4.4270   -1.8190   -2.5290 c2        1 E49      0.254000
     10 O10         4.8740   -2.8880   -2.9280 o         1 E49     -0.232000
     11 C11         3.1220   -1.5970    2.9560 c3        1 E49     -0.162000
     12 C12         0.4160    2.2840    2.1110 c3        1 E49     -0.179000
     13 C13         5.2520   -0.6360   -2.1030 c2        1 E49     -0.251000
     14 C14         6.6700   -0.7120   -2.1960 c2        1 E49      0.250000
     15 C15         7.5310    0.3590   -2.2020 c2        1 E49     -0.998000
     16 C16         6.9620    1.7040   -2.2430 c2        1 E49     -0.140000
     17 C17         6.2380    2.2560   -1.2620 c2        1 E49     -0.015000
     18 C18         4.5130    0.3900   -1.6410 c1        1 E49     -0.486000
     19 S19         9.1200    0.2110   -2.0880 s6        1 E49      2.817000
     20 O20         9.7920    1.1480   -1.3310 o         1 E49     -0.857500
     21 O22         9.5570   -1.1040   -2.1040 o         1 E49     -0.857500
     22 N23         9.6020    0.7680   -3.8260 n4        1 E49     -0.525000
     23 H5          1.2800   -2.0250    1.9130 h1        1 E49      0.213000
     24 H8          2.4270   -2.2690   -1.8410 h1        1 E49      0.190000
     25 H8A         2.5040   -1.4940   -3.4580 h1        1 E49      0.190000
     26 H11         3.9290   -0.8290    3.0200 hc        1 E49      0.107667
     27 H11A        2.6290   -1.6960    3.9530 hc        1 E49      0.107667
     28 H11B        3.5700   -2.5750    2.6610 hc        1 E49      0.107667
     29 H12         0.9390    2.6080    3.0470 hc        1 E49      0.120667
     30 H12A       -0.6160    1.9470    2.3880 hc        1 E49      0.120667
     31 H12B        0.3440    3.1510    1.4090 hc        1 E49      0.120667
     32 H14         7.0860   -1.7470   -2.2580 ha        1 E49      0.175000
     33 H17         6.1180    1.7600   -0.2870 ha        1 E49      0.149000
     34 H18         5.7480    3.2350   -1.3650 ha        1 E49      0.149000
     35 HN23        8.8370    1.3100   -4.2580 hn        1 E49      0.255000
     36 HN2A        9.8190   -0.0230   -4.4260 hn        1 E49      0.255000
     37 CL21        7.1240    2.5010   -3.7630 cl        1 E49     -0.052000
     38 H233       10.4230    1.3690   -3.7930 hn        1 E49      0.255000
@<TRIPOS>BOND
     1    1    2 1   
     2    1    6 1   
     3    2    3 1   
     4    2    7 1   
     5    3    4 1   
     6    4    5 1   
     7    4   11 1   
     8    4   23 1   
     9    5    6 1   
    10    6   12 1   
    11    7    8 1   
    12    7   18 1   
    13    8    9 1   
    14    8   24 1   
    15    8   25 1   
    16    9   10 1   
    17    9   13 1   
    18   11   26 1   
    19   11   27 1   
    20   11   28 1   
    21   12   29 1   
    22   12   30 1   
    23   12   31 1   
    24   13   14 1   
    25   13   18 1   
    26   14   15 1   
    27   14   32 1   
    28   15   16 1   
    29   15   19 1   
    30   16   17 1   
    31   16   37 1   
    32   17   33 1   
    33   17   34 1   
    34   19   20 1   
    35   19   21 1   
    36   19   22 1   
    37   22   35 1   
    38   22   36 1   
    39   22   38 1   
@<TRIPOS>SUBSTRUCTURE
     1 E49         1 TEMP              0 ****  ****    0 ROOT
