@<TRIPOS>MOLECULE
E49
   38    39     1     0     0
SMALL
bcc


@<TRIPOS>ATOM
      1 N1          1.6270    1.1490    0.3080 n2        1 E49     -0.118000
      2 C2          2.3260   -0.0260   -0.0890 c2        1 E49     -0.314000
      3 N3          2.5920   -1.0860    0.6200 n2        1 E49     -0.107000
      4 C4          2.0780   -1.1240    1.9790 c3        1 E49     -0.181000
      5 C5          1.3250    0.0360    2.4920 c1        1 E49      0.025000
      6 C6          1.1670    1.1620    1.5380 c2        1 E49     -0.041000
      7 S7          2.8480    0.1260   -1.7690 s4        1 E49      1.264000
      8 C8          2.9480   -1.5240   -2.3820 c3        1 E49     -0.611000
      9 C9          4.4200   -1.8610   -2.4840 c2        1 E49      0.254000
     10 O10         4.8670   -2.9370   -2.8630 o         1 E49     -0.232000
     11 C11         3.1540   -1.5220    3.0040 c3        1 E49     -0.162000
     12 C12         0.4330    2.3340    2.0950 c3        1 E49     -0.179000
     13 C13         5.2430   -0.6660   -2.0900 c2        1 E49     -0.251000
     14 C14         6.6610   -0.7400   -2.1930 c2        1 E49      0.250000
     15 C15         7.5180    0.3340   -2.2300 c2        1 E49     -0.998000
     16 C16         6.9440    1.6760   -2.2950 c2        1 E49     -0.140000
     17 C17         6.2260    2.2470   -1.3210 c2        1 E49     -0.015000
     18 C18         4.5050    0.3680   -1.6460 c1        1 E49     -0.486000
     19 S19         9.1080    0.1940   -2.1250 s6        1 E49      2.817000
     20 O20         9.7830    1.1500   -1.3940 o         1 E49     -0.857500
     21 O22         9.5500   -1.1200   -2.1160 o         1 E49     -0.857500
     22 N23         9.5750    0.7140   -3.8780 nz        1 E49     -0.525000
     23 H5          1.3050   -1.9760    1.9860 h1        1 E49      0.213000
     24 H8          2.4260   -2.3010   -1.7700 h1        1 E49      0.190000
     25 H8A         2.4880   -1.5620   -3.4050 h1        1 E49      0.190000
     26 H11         3.9590   -0.7510    3.0460 hc        1 E49      0.107667
     27 H11A        2.6690   -1.6000    4.0080 hc        1 E49      0.107667
     28 H11B        3.6020   -2.5060    2.7280 hc        1 E49      0.107667
     29 H12         0.9630    2.6790    3.0200 hc        1 E49      0.120667
     30 H12A       -0.5960    2.0010    2.3880 hc        1 E49      0.120667
     31 H12B        0.3540    3.1850    1.3750 hc        1 E49      0.120667
     32 H14         7.0800   -1.7740   -2.2360 ha        1 E49      0.175000
     33 H17         6.1160    1.7720   -0.3350 ha        1 E49      0.149000
     34 H18         5.7320    3.2230   -1.4430 ha        1 E49      0.149000
     35 HN23        8.8060    1.2430   -4.3160 hn        1 E49      0.255000
     36 HN2A        9.7900   -0.0900   -4.4620 hn        1 E49      0.255000
     37 Cl21        7.0920    2.4400   -3.8340 cl        1 E49     -0.052000
     38 H233       10.3940    1.3180   -3.8650 hn        1 E49      0.255000
@<TRIPOS>BOND
     1    1    2 1   
     2    1    6 1   
     3    2    3 1   
     4    2    7 1   
     5    3    4 1   
     6    4    5 1   
     7    4   11 1   
     8    4   23 1   
     9    5    6 1   
    10    6   12 1   
    11    7    8 1   
    12    7   18 1   
    13    8    9 1   
    14    8   24 1   
    15    8   25 1   
    16    9   10 1   
    17    9   13 1   
    18   11   26 1   
    19   11   27 1   
    20   11   28 1   
    21   12   29 1   
    22   12   30 1   
    23   12   31 1   
    24   13   14 1   
    25   13   18 1   
    26   14   15 1   
    27   14   32 1   
    28   15   16 1   
    29   15   19 1   
    30   16   17 1   
    31   16   37 1   
    32   17   33 1   
    33   17   34 1   
    34   19   20 1   
    35   19   21 1   
    36   19   22 1   
    37   22   35 1   
    38   22   36 1   
    39   22   38 1   
@<TRIPOS>SUBSTRUCTURE
     1 E49         1 TEMP              0 ****  ****    0 ROOT
