@<TRIPOS>MOLECULE
E49
   37    38     1     0     0
SMALL
bcc


@<TRIPOS>ATOM
      1 N1         -5.4310   -1.0770    0.0670 nb        1 E49     -0.717000
      2 C2         -4.2700   -0.3890   -0.1750 ca        1 E49      0.721300
      3 N3         -4.1320    0.9700   -0.2010 nb        1 E49     -0.717000
      4 C4         -5.2510    1.7010    0.0370 ca        1 E49      0.466600
      5 C5         -6.4910    1.0820    0.2960 ca        1 E49     -0.385600
      6 C6         -6.5370   -0.3310    0.3010 ca        1 E49      0.466600
      7 S7         -2.9010   -1.3950   -0.4750 ss        1 E49     -0.125400
      8 C8         -1.5780   -0.2430   -0.6860 c3        1 E49     -0.163300
      9 C9         -0.2730   -0.9480   -0.9050 c         1 E49      0.594700
     10 O10        -0.1840   -2.1060   -1.3230 o         1 E49     -0.497100
     11 C11        -5.1630    3.1920    0.0250 c3        1 E49     -0.155900
     12 C12        -7.8350   -1.0190    0.5720 c3        1 E49     -0.155900
     13 C13         0.9350   -0.1460   -0.5960 ca        1 E49     -0.195600
     14 C14         2.1120   -0.8080   -0.2310 ca        1 E49      0.027000
     15 C15         3.2860   -0.1070    0.0750 ca        1 E49     -0.364500
     16 C16         3.2530    1.2910   -0.0250 ca        1 E49      0.144400
     17 C17         2.0880    1.9700   -0.3950 ca        1 E49     -0.162000
     18 C18         0.9290    1.2510   -0.6750 ca        1 E49     -0.032000
     19 S19         4.6450   -1.0230    0.5860 sy        1 E49      1.522200
     20 O20         5.0280   -0.5840    1.8640 o         1 E49     -0.646800
     21 O22         4.3020   -2.3850    0.4550 o         1 E49     -0.646800
     22 N23         5.7620   -0.6470   -0.4880 n3        1 E49     -1.026700
     23 H5         -7.3920    1.6760    0.4870 ha        1 E49      0.153000
     24 H8         -1.7700    0.4170   -1.5730 h1        1 E49      0.102200
     25 H8A        -1.4950    0.4220    0.2120 h1        1 E49      0.102200
     26 H11        -4.8030    3.5540   -0.9700 hc        1 E49      0.059533
     27 H11A       -6.1670    3.6390    0.2270 hc        1 E49      0.059533
     28 H11B       -4.4480    3.5470    0.8080 hc        1 E49      0.059533
     29 H12        -7.7510   -1.6630    1.4840 hc        1 E49      0.059533
     30 H12A       -8.6440   -0.2670    0.7350 hc        1 E49      0.059533
     31 H12B       -8.1170   -1.6720   -0.2920 hc        1 E49      0.059533
     32 H14         2.1090   -1.9180   -0.1850 ha        1 E49      0.192000
     33 H17         2.0840    3.0690   -0.4640 ha        1 E49      0.159000
     34 H18         0.0130    1.7910   -0.9660 ha        1 E49      0.149000
     35 HN23        6.3950    0.1070   -0.3840 hn        1 E49      0.452800
     36 HN2A        5.9090   -1.1550   -1.3250 hn        1 E49      0.452800
     37 CL21        4.6450    2.2120    0.2970 cl        1 E49     -0.072400
@<TRIPOS>BOND
     1    1    2 ar  
     2    1    6 ar  
     3    2    3 ar  
     4    2    7 1   
     5    3    4 ar  
     6    4    5 ar  
     7    4   11 1   
     8    5    6 ar  
     9    5   23 1   
    10    6   12 1   
    11    7    8 1   
    12    8    9 1   
    13    8   24 1   
    14    8   25 1   
    15    9   10 2   
    16    9   13 1   
    17   11   26 1   
    18   11   27 1   
    19   11   28 1   
    20   12   29 1   
    21   12   30 1   
    22   12   31 1   
    23   13   14 ar  
    24   13   18 ar  
    25   14   15 ar  
    26   14   32 1   
    27   15   16 ar  
    28   15   19 1   
    29   16   17 ar  
    30   16   37 1   
    31   17   18 ar  
    32   17   33 1   
    33   18   34 1   
    34   19   20 2   
    35   19   21 2   
    36   19   22 1   
    37   22   35 1   
    38   22   36 1   
@<TRIPOS>SUBSTRUCTURE
     1 E49         1 TEMP              0 ****  ****    0 ROOT
