@<TRIPOS>MOLECULE
E49
   37    32     1     0     0
SMALL
bcc


@<TRIPOS>ATOM
      1 N1         -3.3240   -0.5300    1.1850 n1        1 E49     -0.164000
      2 C2         -2.8230    0.7130    0.9400 c1        1 E49     -0.124000
      3 N3         -3.0890    1.7370    1.8000 n1        1 E49     -0.206000
      4 C4         -3.8440    1.5210    2.8880 c1        1 E49      0.045000
      5 C5         -4.3450    0.2760    3.1340 c1        1 E49     -0.250000
      6 C6         -4.0790   -0.7480    2.2730 c1        1 E49      0.043000
      7 S7         -1.9250    1.0270   -0.5580 ss        1 E49      0.332000
      8 C8         -0.1840    0.9900   -0.2220 c3        1 E49     -0.365000
      9 C9          0.5820    1.0050   -1.5290 c2        1 E49      0.281000
     10 O10         0.0320    1.3620   -2.5530 o         1 E49     -0.256000
     11 C11        -4.1450    2.6590    3.8380 c3        1 E49     -0.180000
     12 C12        -4.6830   -2.1150    2.5130 c3        1 E49     -0.180000
     13 C13         2.0430    0.6090   -1.5540 c2        1 E49     -0.178000
     14 C14         2.4300   -0.5700   -2.1740 c2        1 E49      0.029000
     15 C15         3.7750   -0.8960   -2.2660 c1        1 E49     -0.813000
     16 C16         4.7320   -0.0440   -1.7370 c1        1 E49      0.068000
     17 C17         4.3450    1.1350   -1.1170 c1        1 E49     -0.162000
     18 C18         3.0000    1.4610   -1.0260 c1        1 E49     -0.033000
     19 S19         4.2630   -2.4490   -2.9690 s4        1 E49      2.077800
     20 O20         5.2420   -3.1070   -2.1490 o         1 E49     -0.534900
     21 O22         3.1860   -3.4000   -2.9340 o         1 E49     -0.534900
     22 N23         4.8170   -2.2320   -4.4990 n2        1 E49     -0.953000
     23 H5         -4.8940    0.1180    3.9250 ha        1 E49      0.154000
     24 H8          0.0630    1.7740    0.3090 h1        1 E49      0.145000
     25 H8A         0.0350    0.1770    0.2750 h1        1 E49      0.145000
     26 H11        -3.5300    2.6200    4.6000 hc        1 E49      0.099667
     27 H11A       -4.0320    3.5120    3.3720 hc        1 E49      0.099667
     28 H11B       -5.0680    2.5820    4.1590 hc        1 E49      0.099667
     29 H12        -4.4590   -2.7080    1.7640 hc        1 E49      0.100667
     30 H12A       -5.6580   -2.0330    2.5840 hc        1 E49      0.100667
     31 H12B       -4.3250   -2.4890    3.3440 hc        1 E49      0.100667
     32 H14         1.7560   -1.1700   -2.5460 ha        1 E49      0.191000
     33 H17         5.0190    1.7340   -0.7450 ha        1 E49      0.160000
     34 H18         2.7280    2.2900   -0.5890 ha        1 E49      0.164000
     35 HN23        5.7090   -2.3100   -4.6770 hn        1 E49      0.247500
     36 HN2A        4.2280   -2.0630   -5.1780 hn        1 E49      0.247500
     37 CL21        6.4240   -0.4370   -1.8820 cl        1 E49      0.004000
@<TRIPOS>BOND
     1    1    6 1   
     2    2    3 1   
     3    2    7 1   
     4    4    5 1   
     5    4   11 1   
     6    5   23 1   
     7    6   12 1   
     8    7    8 1   
     9    8    9 1   
    10    8   24 1   
    11    8   25 1   
    12    9   10 1   
    13    9   13 1   
    14   11   26 1   
    15   11   27 1   
    16   11   28 1   
    17   12   29 1   
    18   12   30 1   
    19   12   31 1   
    20   13   14 1   
    21   13   18 1   
    22   14   15 1   
    23   14   32 1   
    24   15   19 1   
    25   16   17 1   
    26   16   37 1   
    27   17   33 1   
    28   18   34 1   
    29   19   20 1   
    30   19   21 1   
    31   22   35 1   
    32   22   36 1   
@<TRIPOS>SUBSTRUCTURE
     1 E49         1 TEMP              0 ****  ****    0 ROOT
