@<TRIPOS>MOLECULE
E49
   38    39     1     0     0
SMALL
bcc


@<TRIPOS>ATOM
      1 N1          1.6490    1.1920    0.3150 n2        1 E49     -0.118000
      2 C2          2.3210    0.0040   -0.0850 c2        1 E49     -0.314000
      3 N3          2.5650   -1.0630    0.6220 n2        1 E49     -0.107000
      4 C4          2.0520   -1.0920    1.9810 c3        1 E49     -0.181000
      5 C5          1.3260    0.0820    2.4980 c1        1 E49      0.025000
      6 C6          1.1910    1.2140    1.5460 c2        1 E49     -0.041000
      7 S7          2.8430    0.1460   -1.7660 s4        1 E49      1.263000
      8 C8          2.9260   -1.5040   -2.3770 c3        1 E49     -0.611000
      9 C9          4.3950   -1.8550   -2.4800 c2        1 E49      0.254000
     10 O10         4.8310   -2.9360   -2.8570 o         1 E49     -0.232000
     11 C11         3.1210   -1.5160    3.0050 c3        1 E49     -0.162000
     12 C12         0.4830    2.4010    2.1060 c3        1 E49     -0.179000
     13 C13         5.2300   -0.6680   -2.0880 c2        1 E49     -0.251000
     14 C14         6.6470   -0.7550   -2.1930 c2        1 E49      0.250000
     15 C15         7.5140    0.3100   -2.2320 c2        1 E49     -0.998000
     16 C16         6.9520    1.6580   -2.2980 c2        1 E49     -0.140000
     17 C17         6.2410    2.2370   -1.3240 c2        1 E49     -0.015000
     18 C18         4.5020    0.3730   -1.6440 c1        1 E49     -0.485000
     19 S19         9.1030    0.1560   -2.1280 s6        1 E49      2.817000
     20 O20         9.7870    1.1060   -1.3990 o         1 E49     -0.857500
     21 O22         9.5320   -1.1630   -2.1170 o         1 E49     -0.857500
     22 N23         9.5720    0.6680   -3.8830 n4        1 E49     -0.525000
     23 H5          1.2610   -1.9280    1.9880 h1        1 E49      0.213000
     24 H8          2.3980   -2.2770   -1.7640 h1        1 E49      0.190000
     25 H8A         2.4660   -1.5400   -3.4000 h1        1 E49      0.190000
     26 H11         3.9430   -0.7640    3.0460 hc        1 E49      0.108000
     27 H11A        3.5460   -2.5090    2.7250 hc        1 E49      0.108000
     28 H11B        2.6350   -1.5860    4.0080 hc        1 E49      0.108000
     29 H12        -0.5520    2.0900    2.4000 hc        1 E49      0.120667
     30 H12A        1.0220    2.7320    3.0310 hc        1 E49      0.120667
     31 H12B        0.4230    3.2540    1.3890 hc        1 E49      0.120667
     32 H14         7.0560   -1.7930   -2.2340 ha        1 E49      0.175000
     33 H17         6.1270    1.7640   -0.3370 ha        1 E49      0.149000
     34 H18         5.7550    3.2160   -1.4460 ha        1 E49      0.149000
     35 HN23        8.8070    1.2040   -4.3210 hn        1 E49      0.255000
     36 HN2A       10.3970    1.2650   -3.8720 hn        1 E49      0.255000
     37 CL21        7.1060    2.4180   -3.8380 cl        1 E49     -0.052000
     38 H233        9.7780   -0.1390   -4.4660 hn        1 E49      0.255000
@<TRIPOS>BOND
     1    1    2 1   
     2    1    6 1   
     3    2    3 1   
     4    2    7 1   
     5    3    4 1   
     6    4    5 1   
     7    4   11 1   
     8    4   23 1   
     9    5    6 1   
    10    6   12 1   
    11    7    8 1   
    12    7   18 1   
    13    8    9 1   
    14    8   24 1   
    15    8   25 1   
    16    9   10 1   
    17    9   13 1   
    18   11   26 1   
    19   11   27 1   
    20   11   28 1   
    21   12   29 1   
    22   12   30 1   
    23   12   31 1   
    24   13   14 1   
    25   13   18 1   
    26   14   15 1   
    27   14   32 1   
    28   15   16 1   
    29   15   19 1   
    30   16   17 1   
    31   16   37 1   
    32   17   33 1   
    33   17   34 1   
    34   19   20 1   
    35   19   21 1   
    36   19   22 1   
    37   22   35 1   
    38   22   36 1   
    39   22   38 1   
@<TRIPOS>SUBSTRUCTURE
     1 E49         1 TEMP              0 ****  ****    0 ROOT
