@<TRIPOS>MOLECULE
E4B
   22    22     1     0     0
SMALL
bcc


@<TRIPOS>ATOM
      1 C1          4.2950    1.2650   -0.0660 c3        1 E4B     -0.101100
      2 C6          3.5240   -0.0310   -0.0160 c3        1 E4B      0.140400
      3 O1          2.1310    0.3320    0.0000 os        1 E4B     -0.443900
      4 C7          1.2360   -0.7050    0.0460 c         1 E4B      0.651700
      5 O2          1.6870   -1.8560    0.0690 o         1 E4B     -0.552000
      6 C9         -0.1710   -0.2900    0.0610 ca        1 E4B     -0.173600
      7 C4         -1.1590   -1.2840    0.1070 ca        1 E4B     -0.034000
      8 C2         -2.5040   -0.9310    0.1220 ca        1 E4B     -0.205500
      9 C8         -2.8580    0.4270    0.0920 ca        1 E4B      0.158100
     10 O3         -4.1630    0.8510    0.1040 oh        1 E4B     -0.491100
     11 C3         -1.8740    1.4310    0.0450 ca        1 E4B     -0.205500
     12 C5         -0.5350    1.0630    0.0300 ca        1 E4B     -0.034000
     13 H1          4.0300    1.8450   -0.9830 hc        1 E4B      0.047700
     14 H2          4.0640    1.8940    0.8260 hc        1 E4B      0.047700
     15 H3          5.3880    1.0360   -0.0810 hc        1 E4B      0.047700
     16 H4          3.7180   -0.6710   -0.9160 h1        1 E4B      0.052700
     17 H5          3.7520   -0.6210    0.9100 h1        1 E4B      0.052700
     18 H6         -0.8580   -2.3440    0.1300 ha        1 E4B      0.158500
     19 H7         -3.2810   -1.7070    0.1580 ha        1 E4B      0.149000
     20 H8         -4.7350    0.0700    0.1370 ho        1 E4B      0.425000
     21 H9         -2.1770    2.4870    0.0220 ha        1 E4B      0.149000
     22 H10         0.2510    1.8360   -0.0060 ha        1 E4B      0.158500
@<TRIPOS>BOND
     1    1    2 1   
     2    1   13 1   
     3    1   14 1   
     4    1   15 1   
     5    2    3 1   
     6    2   16 1   
     7    2   17 1   
     8    3    4 1   
     9    4    5 2   
    10    4    6 1   
    11    6    7 ar  
    12    6   12 ar  
    13    7    8 ar  
    14    7   18 1   
    15    8    9 ar  
    16    8   19 1   
    17    9   10 1   
    18    9   11 ar  
    19   10   20 1   
    20   11   12 ar  
    21   11   21 1   
    22   12   22 1   
@<TRIPOS>SUBSTRUCTURE
     1 E4B         1 TEMP              0 ****  ****    0 ROOT
