@<TRIPOS>MOLECULE
E4B
   22    20     1     0     0
SMALL
bcc


@<TRIPOS>ATOM
      1 C1         -0.0520    3.7890   -1.7230 c3        1 E4B     -0.219000
      2 C6         -0.9460    2.6290   -1.3400 c3        1 E4B     -0.010000
      3 O1         -0.1680    1.6080   -0.7600 os        1 E4B     -0.283000
      4 C7         -0.8800    0.4240   -0.5080 c2        1 E4B      0.352000
      5 O2         -2.0210    0.3040   -0.9100 o         1 E4B     -0.361000
      6 C9         -0.2200   -0.7100    0.2440 c2        1 E4B     -0.153000
      7 C4          0.8810   -1.3540   -0.2990 c2        1 E4B     -0.029000
      8 C2          1.4800   -2.3990    0.3870 c1        1 E4B     -0.235000
      9 C8          0.9800   -2.8000    1.6160 c1        1 E4B      0.113000
     10 O3          1.5590   -3.8910    2.2890 oh        1 E4B     -0.245000
     11 C3         -0.1210   -2.1560    2.1590 c1        1 E4B     -0.175000
     12 C5         -0.7210   -1.1110    1.4730 c1        1 E4B     -0.039000
     13 H1          0.6650    3.4680   -2.3090 hc        1 E4B      0.087000
     14 H2          0.3370    4.1820   -0.9140 hc        1 E4B      0.087000
     15 H3         -0.5810    4.4670   -2.1940 hc        1 E4B      0.087000
     16 H4         -1.3940    2.2840   -2.1400 h1        1 E4B      0.092000
     17 H5         -1.6180    2.9340   -0.6960 h1        1 E4B      0.092000
     18 H6          1.2330   -1.0720   -1.1640 ha        1 E4B      0.157000
     19 H7          2.2550   -2.8530    0.0050 ha        1 E4B      0.140000
     20 H8          1.3010   -4.6490    1.9020 ho        1 E4B      0.223000
     21 H9         -0.4740   -2.4380    3.0240 ha        1 E4B      0.158000
     22 H10        -1.4960   -0.6570    1.8560 ha        1 E4B      0.161000
@<TRIPOS>BOND
     1    1    2 1   
     2    1   13 1   
     3    1   14 1   
     4    1   15 1   
     5    2    3 1   
     6    2   16 1   
     7    2   17 1   
     8    3    4 1   
     9    4    5 1   
    10    4    6 1   
    11    6    7 1   
    12    6   12 1   
    13    7    8 1   
    14    7   18 1   
    15    8   19 1   
    16    9   10 1   
    17    9   11 1   
    18   10   20 1   
    19   11   21 1   
    20   12   22 1   
@<TRIPOS>SUBSTRUCTURE
     1 E4B         1 TEMP              0 ****  ****    0 ROOT
