@<TRIPOS>MOLECULE
E4B
   22    22     1     0     0
SMALL
bcc


@<TRIPOS>ATOM
      1 C1          0.0600    0.0810    0.1000 c3        1 E4B     -0.101100
      2 C6          1.5650    0.0240   -0.0090 c3        1 E4B      0.140400
      3 O1          2.0640    0.0040    1.3410 os        1 E4B     -0.443900
      4 C7          3.4260   -0.0480    1.4820 c         1 E4B      0.651700
      5 O2          4.1110   -0.0730    0.4540 o         1 E4B     -0.552000
      6 C9          3.8900   -0.0680    2.8730 ca        1 E4B     -0.173600
      7 C4          5.2700   -0.1200    3.1160 ca        1 E4B     -0.034000
      8 C2          5.7500   -0.1400    4.4200 ca        1 E4B     -0.205500
      9 C8          4.8380   -0.1070    5.4880 ca        1 E4B      0.158100
     10 O3          5.2370   -0.1240    6.8010 oh        1 E4B     -0.491100
     11 C3          3.4520   -0.0540    5.2550 ca        1 E4B     -0.205500
     12 C5          2.9880   -0.0350    3.9460 ca        1 E4B     -0.034000
     13 H1         -0.3770    0.0990   -0.9270 hc        1 E4B      0.047700
     14 H2         -0.2600    0.9980    0.6490 hc        1 E4B      0.047700
     15 H3         -0.3280   -0.8100    0.6470 hc        1 E4B      0.047700
     16 H4          1.9140   -0.9020   -0.5350 h1        1 E4B      0.052700
     17 H5          1.9830    0.9230   -0.5330 h1        1 E4B      0.052700
     18 H6          5.9680   -0.1460    2.2620 ha        1 E4B      0.158500
     19 H7          6.8310   -0.1810    4.6140 ha        1 E4B      0.149000
     20 H8          6.2050   -0.1610    6.8230 ho        1 E4B      0.425000
     21 H9          2.7590   -0.0290    6.1080 ha        1 E4B      0.149000
     22 H10         1.9050    0.0070    3.7440 ha        1 E4B      0.158500
@<TRIPOS>BOND
     1    1    2 1   
     2    1   13 1   
     3    1   14 1   
     4    1   15 1   
     5    2    3 1   
     6    2   16 1   
     7    2   17 1   
     8    3    4 1   
     9    4    5 2   
    10    4    6 1   
    11    6    7 ar  
    12    6   12 ar  
    13    7    8 ar  
    14    7   18 1   
    15    8    9 ar  
    16    8   19 1   
    17    9   10 1   
    18    9   11 ar  
    19   10   20 1   
    20   11   12 ar  
    21   11   21 1   
    22   12   22 1   
@<TRIPOS>SUBSTRUCTURE
     1 E4B         1 TEMP              0 ****  ****    0 ROOT
