@<TRIPOS>MOLECULE
E4B
   22    22     1     0     0
SMALL
bcc


@<TRIPOS>ATOM
      1 C1          0.0540    0.0740    0.1070 c3        1 E4B     -0.101100
      2 C6          1.5580    0.0240   -0.0050 c3        1 E4B      0.140400
      3 O1          2.0610    0.0020    1.3430 os        1 E4B     -0.443900
      4 C7          3.4230   -0.0450    1.4810 c         1 E4B      0.651700
      5 O2          4.1060   -0.0650    0.4510 o         1 E4B     -0.552000
      6 C9          3.8900   -0.0650    2.8720 ca        1 E4B     -0.173600
      7 C4          5.2710   -0.1140    3.1110 ca        1 E4B     -0.034000
      8 C2          5.7540   -0.1350    4.4150 ca        1 E4B     -0.205500
      9 C8          4.8450   -0.1060    5.4840 ca        1 E4B      0.158100
     10 O3          5.2460   -0.1240    6.7960 oh        1 E4B     -0.491100
     11 C3          3.4580   -0.0570    5.2540 ca        1 E4B     -0.205500
     12 C5          2.9910   -0.0370    3.9460 ca        1 E4B     -0.034000
     13 H1         -0.3850    0.0930   -0.9190 hc        1 E4B      0.047700
     14 H2         -0.2680    0.9890    0.6590 hc        1 E4B      0.047700
     15 H3         -0.3290   -0.8200    0.6530 hc        1 E4B      0.047700
     16 H4          1.9100   -0.9000   -0.5340 h1        1 E4B      0.052700
     17 H5          1.9720    0.9250   -0.5280 h1        1 E4B      0.052700
     18 H6          5.9670   -0.1360    2.2560 ha        1 E4B      0.158500
     19 H7          6.8360   -0.1730    4.6060 ha        1 E4B      0.149000
     20 H8          6.2140   -0.1580    6.8160 ho        1 E4B      0.425000
     21 H9          2.7670   -0.0350    6.1090 ha        1 E4B      0.149000
     22 H10         1.9070    0.0020    3.7470 ha        1 E4B      0.158500
@<TRIPOS>BOND
     1    1    2 1   
     2    1   13 1   
     3    1   14 1   
     4    1   15 1   
     5    2    3 1   
     6    2   16 1   
     7    2   17 1   
     8    3    4 1   
     9    4    5 2   
    10    4    6 1   
    11    6    7 ar  
    12    6   12 ar  
    13    7    8 ar  
    14    7   18 1   
    15    8    9 ar  
    16    8   19 1   
    17    9   10 1   
    18    9   11 ar  
    19   10   20 1   
    20   11   12 ar  
    21   11   21 1   
    22   12   22 1   
@<TRIPOS>SUBSTRUCTURE
     1 E4B         1 TEMP              0 ****  ****    0 ROOT
