@<TRIPOS>MOLECULE
E4D
   62    66     1     0     0
SMALL
bcc


@<TRIPOS>ATOM
      1 C1         -0.0070    0.2380    0.3410 c3        1 E4D      0.026700
      2 C2          1.5120    0.2790    0.1510 c3        1 E4D      0.201400
      3 O3          2.2200    0.2850    1.4050 os        1 E4D     -0.321900
      4 C4          1.9880    1.4130    2.1810 ca        1 E4D      0.058100
      5 C5          3.0510    1.8030    3.0130 ca        1 E4D     -0.096000
      6 C6          2.8910    2.8760    3.8760 ca        1 E4D     -0.143000
      7 C7          1.6630    3.5650    3.8920 ca        1 E4D      0.119100
      8 O8          1.5730    4.6260    4.7650 oh        1 E4D     -0.496100
      9 C9          0.6070    3.1820    3.0620 ca        1 E4D     -0.186000
     10 C10         0.7610    2.0920    2.1950 ca        1 E4D     -0.013100
     11 S11        -0.5600    1.7000    1.2160 ss        1 E4D     -0.172000
     12 C12        -0.5670   -0.9910    0.9550 ca        1 E4D     -0.109300
     13 C13        -0.0500   -1.5340    2.1380 ca        1 E4D     -0.075500
     14 C14        -0.6140   -2.6740    2.7040 ca        1 E4D     -0.185500
     15 C15        -1.7120   -3.2810    2.0800 ca        1 E4D      0.131100
     16 O16        -2.3250   -4.4060    2.5810 oh        1 E4D     -0.497100
     17 C17        -2.2420   -2.7530    0.8910 ca        1 E4D     -0.185500
     18 C18        -1.6650   -1.6150    0.3420 ca        1 E4D     -0.075500
     19 C19         2.0240   -0.8810   -0.6470 ca        1 E4D     -0.125300
     20 C20         1.9420   -0.8250   -2.0410 ca        1 E4D     -0.073500
     21 C21         2.4110   -1.8770   -2.8240 ca        1 E4D     -0.184500
     22 C22         2.9760   -2.9970   -2.2000 ca        1 E4D      0.141100
     23 C23         3.0670   -3.0620   -0.7960 ca        1 E4D     -0.184500
     24 C24         2.5910   -2.0050   -0.0330 ca        1 E4D     -0.073500
     25 O25         3.4940   -4.0880   -2.8650 os        1 E4D     -0.323900
     26 C26         3.3000   -4.1090   -4.2840 c3        1 E4D      0.127400
     27 C27         3.8620   -5.4590   -4.7550 c3        1 E4D      0.173800
     28 N28         2.8630   -6.5140   -4.7760 n3        1 E4D     -0.737600
     29 C29         2.0830   -6.5210   -6.0050 c3        1 E4D      0.176800
     30 C30         0.9990   -7.5980   -6.0240 c3        1 E4D     -0.077900
     31 C31         1.5840   -8.9610   -5.7230 c3        1 E4D     -0.078400
     32 C32         2.3560   -8.9260   -4.4220 c3        1 E4D     -0.077900
     33 C33         3.4090   -7.8190   -4.4320 c3        1 E4D      0.176800
     34 H1         -0.4560    0.3660   -0.6860 h1        1 E4D      0.095700
     35 H2          1.7630    1.2390   -0.3930 h1        1 E4D      0.065700
     36 H5          3.9970    1.2440    2.9740 ha        1 E4D      0.153000
     37 H6          3.7040    3.1990    4.5420 ha        1 E4D      0.155000
     38 HO8         0.6830    5.0010    4.6880 ho        1 E4D      0.420000
     39 H9         -0.3490    3.7270    3.0870 ha        1 E4D      0.145000
     40 H13         0.8180   -1.0580    2.6250 ha        1 E4D      0.142000
     41 H14        -0.2010   -3.0920    3.6330 ha        1 E4D      0.143000
     42 H16        -1.8590   -4.6630    3.3900 ho        1 E4D      0.419000
     43 H17        -3.1010   -3.2440    0.4140 ha        1 E4D      0.143000
     44 H18        -2.0790   -1.2030   -0.5910 ha        1 E4D      0.142000
     45 H20         1.5030    0.0590   -2.5310 ha        1 E4D      0.139500
     46 H21         2.3360   -1.8140   -3.9180 ha        1 E4D      0.144000
     47 H23         3.5130   -3.9500   -0.3250 ha        1 E4D      0.144000
     48 H24         2.6540   -2.0450    1.0670 ha        1 E4D      0.139500
     49 H261        2.2140   -3.9830   -4.5250 h1        1 E4D      0.044700
     50 H262        3.8930   -3.2740   -4.7440 h1        1 E4D      0.044700
     51 H271        4.3170   -5.2920   -5.7760 h1        1 E4D      0.048200
     52 H272        4.6960   -5.7450   -4.0510 h1        1 E4D      0.048200
     53 H291        1.5940   -5.5110   -6.1010 h1        1 E4D      0.027700
     54 H292        2.7430   -6.6660   -6.9120 h1        1 E4D      0.027700
     55 H301        0.2080   -7.3520   -5.2690 hc        1 E4D      0.048200
     56 H302        0.5190   -7.5980   -7.0360 hc        1 E4D      0.048200
     57 H311        0.7620   -9.7210   -5.6570 hc        1 E4D      0.039700
     58 H312        2.2650   -9.2720   -6.5580 hc        1 E4D      0.039700
     59 H321        1.6480   -8.7640   -3.5680 hc        1 E4D      0.048200
     60 H322        2.8770   -9.9040   -4.2560 hc        1 E4D      0.048200
     61 H331        4.2360   -8.1190   -5.1420 h1        1 E4D      0.027700
     62 H332        3.8550   -7.7370   -3.4010 h1        1 E4D      0.027700
@<TRIPOS>BOND
     1    1    2 1   
     2    1   11 1   
     3    1   12 1   
     4    1   34 1   
     5    2    3 1   
     6    2   19 1   
     7    2   35 1   
     8    3    4 1   
     9    4    5 ar  
    10    4   10 ar  
    11    5    6 ar  
    12    5   36 1   
    13    6    7 ar  
    14    6   37 1   
    15    7    8 1   
    16    7    9 ar  
    17    8   38 1   
    18    9   10 ar  
    19    9   39 1   
    20   10   11 1   
    21   12   13 ar  
    22   12   18 ar  
    23   13   14 ar  
    24   13   40 1   
    25   14   15 ar  
    26   14   41 1   
    27   15   16 1   
    28   15   17 ar  
    29   16   42 1   
    30   17   18 ar  
    31   17   43 1   
    32   18   44 1   
    33   19   20 ar  
    34   19   24 ar  
    35   20   21 ar  
    36   20   45 1   
    37   21   22 ar  
    38   21   46 1   
    39   22   23 ar  
    40   22   25 1   
    41   23   24 ar  
    42   23   47 1   
    43   24   48 1   
    44   25   26 1   
    45   26   27 1   
    46   26   49 1   
    47   26   50 1   
    48   27   28 1   
    49   27   51 1   
    50   27   52 1   
    51   28   29 1   
    52   28   33 1   
    53   29   30 1   
    54   29   53 1   
    55   29   54 1   
    56   30   31 1   
    57   30   55 1   
    58   30   56 1   
    59   31   32 1   
    60   31   57 1   
    61   31   58 1   
    62   32   33 1   
    63   32   59 1   
    64   32   60 1   
    65   33   61 1   
    66   33   62 1   
@<TRIPOS>SUBSTRUCTURE
     1 E4D         1 TEMP              0 ****  ****    0 ROOT
