@<TRIPOS>MOLECULE
E4D
   62    66     1     0     0
SMALL
bcc


@<TRIPOS>ATOM
      1 C1          0.1080    1.2400   -2.3670 c3        1 E4D      0.026700
      2 C2         -1.1230    0.4080   -1.9960 c3        1 E4D      0.201400
      3 O3         -1.1570   -0.8550   -2.6870 os        1 E4D     -0.321900
      4 C4         -1.2780   -0.7440   -4.0660 ca        1 E4D      0.058100
      5 C5         -1.9490   -1.8020   -4.7010 ca        1 E4D     -0.096000
      6 C6         -2.0600   -1.8170   -6.0830 ca        1 E4D     -0.143000
      7 C7         -1.5050   -0.7570   -6.8250 ca        1 E4D      0.119100
      8 O8         -1.6570   -0.8270   -8.1920 oh        1 E4D     -0.496100
      9 C9         -0.8410    0.2980   -6.1960 ca        1 E4D     -0.186000
     10 C10        -0.7190    0.3120   -4.8000 ca        1 E4D     -0.013100
     11 S11         0.0890    1.6300   -4.1150 ss        1 E4D     -0.172000
     12 C12         1.4260    0.6920   -1.9610 ca        1 E4D     -0.109300
     13 C13         1.7990   -0.6300   -2.2340 ca        1 E4D     -0.075500
     14 C14         3.0530   -1.1070   -1.8640 ca        1 E4D     -0.185500
     15 C15         3.9500   -0.2510   -1.2100 ca        1 E4D      0.131100
     16 O16         5.2070   -0.6490   -0.8180 oh        1 E4D     -0.497100
     17 C17         3.5930    1.0770   -0.9240 ca        1 E4D     -0.185500
     18 C18         2.3360    1.5340   -1.3010 ca        1 E4D     -0.075500
     19 C19        -1.2020    0.1190   -0.5290 ca        1 E4D     -0.125300
     20 C20        -1.7240    1.0990    0.3200 ca        1 E4D     -0.073500
     21 C21        -1.8240    0.8720    1.6910 ca        1 E4D     -0.184500
     22 C22        -1.4000   -0.3570    2.2150 ca        1 E4D      0.141100
     23 C23        -0.8770   -1.3530    1.3680 ca        1 E4D     -0.184500
     24 C24        -0.7820   -1.1060    0.0040 ca        1 E4D     -0.073500
     25 O25        -1.4690   -0.7080    3.5460 os        1 E4D     -0.323900
     26 C26        -1.8760    0.3280    4.4490 c3        1 E4D      0.127400
     27 C27        -1.7600   -0.2840    5.8540 c3        1 E4D      0.173800
     28 N28        -0.4590   -0.0670    6.4630 n3        1 E4D     -0.737600
     29 C29        -0.3590    1.2260    7.1250 c3        1 E4D      0.176800
     30 C30         1.0180    1.4870    7.7330 c3        1 E4D     -0.077900
     31 C31         1.4290    0.3540    8.6490 c3        1 E4D     -0.078400
     32 C32         1.3480   -0.9690    7.9200 c3        1 E4D     -0.077900
     33 C33        -0.0340   -1.1780    7.3010 c3        1 E4D      0.176800
     34 H1         -0.0320    2.2460   -1.8750 h1        1 E4D      0.095700
     35 H2         -2.0390    0.9970   -2.3060 h1        1 E4D      0.065700
     36 H5         -2.3740   -2.6130   -4.0900 ha        1 E4D      0.153000
     37 H6         -2.5760   -2.6340   -6.6060 ha        1 E4D      0.155000
     38 HO8        -1.2230   -0.0530   -8.5810 ho        1 E4D      0.420000
     39 H9         -0.4080    1.1180   -6.7880 ha        1 E4D      0.145000
     40 H13         1.0910   -1.3040   -2.7440 ha        1 E4D      0.142000
     41 H14         3.3370   -2.1460   -2.0840 ha        1 E4D      0.143000
     42 H16         5.3180   -1.5770   -1.0680 ho        1 E4D      0.419000
     43 H17         4.3070    1.7320   -0.4070 ha        1 E4D      0.143000
     44 H18         2.0560    2.5740   -1.0750 ha        1 E4D      0.142000
     45 H20        -2.0630    2.0610   -0.0930 ha        1 E4D      0.139500
     46 H21        -2.2360    1.6550    2.3420 ha        1 E4D      0.144000
     47 H23        -0.5490   -2.3090    1.7970 ha        1 E4D      0.144000
     48 H24        -0.3720   -1.8770   -0.6690 ha        1 E4D      0.139500
     49 H261       -2.9460    0.5920    4.2400 h1        1 E4D      0.044700
     50 H262       -1.2260    1.2310    4.3140 h1        1 E4D      0.044700
     51 H271       -1.9510   -1.3910    5.7600 h1        1 E4D      0.048200
     52 H272       -2.5940    0.1570    6.4770 h1        1 E4D      0.048200
     53 H291       -0.5710    2.0180    6.3520 h1        1 E4D      0.027700
     54 H292       -1.1350    1.3330    7.9410 h1        1 E4D      0.027700
     55 H301        0.9750    2.4500    8.3030 hc        1 E4D      0.048200
     56 H302        1.7760    1.6040    6.9160 hc        1 E4D      0.048200
     57 H311        0.7550    0.3320    9.5460 hc        1 E4D      0.039700
     58 H312        2.4740    0.5230    9.0170 hc        1 E4D      0.039700
     59 H321        1.5480   -1.8130    8.6280 hc        1 E4D      0.048200
     60 H322        2.1290   -1.0030    7.1160 hc        1 E4D      0.048200
     61 H331       -0.7720   -1.3700    8.1360 h1        1 E4D      0.027700
     62 H332       -0.0020   -2.0980    6.6530 h1        1 E4D      0.027700
@<TRIPOS>BOND
     1    1    2 1   
     2    1   11 1   
     3    1   12 1   
     4    1   34 1   
     5    2    3 1   
     6    2   19 1   
     7    2   35 1   
     8    3    4 1   
     9    4    5 ar  
    10    4   10 ar  
    11    5    6 ar  
    12    5   36 1   
    13    6    7 ar  
    14    6   37 1   
    15    7    8 1   
    16    7    9 ar  
    17    8   38 1   
    18    9   10 ar  
    19    9   39 1   
    20   10   11 1   
    21   12   13 ar  
    22   12   18 ar  
    23   13   14 ar  
    24   13   40 1   
    25   14   15 ar  
    26   14   41 1   
    27   15   16 1   
    28   15   17 ar  
    29   16   42 1   
    30   17   18 ar  
    31   17   43 1   
    32   18   44 1   
    33   19   20 ar  
    34   19   24 ar  
    35   20   21 ar  
    36   20   45 1   
    37   21   22 ar  
    38   21   46 1   
    39   22   23 ar  
    40   22   25 1   
    41   23   24 ar  
    42   23   47 1   
    43   24   48 1   
    44   25   26 1   
    45   26   27 1   
    46   26   49 1   
    47   26   50 1   
    48   27   28 1   
    49   27   51 1   
    50   27   52 1   
    51   28   29 1   
    52   28   33 1   
    53   29   30 1   
    54   29   53 1   
    55   29   54 1   
    56   30   31 1   
    57   30   55 1   
    58   30   56 1   
    59   31   32 1   
    60   31   57 1   
    61   31   58 1   
    62   32   33 1   
    63   32   59 1   
    64   32   60 1   
    65   33   61 1   
    66   33   62 1   
@<TRIPOS>SUBSTRUCTURE
     1 E4D         1 TEMP              0 ****  ****    0 ROOT
