@<TRIPOS>MOLECULE
E4D
   62    66     1     0     0
SMALL
bcc


@<TRIPOS>ATOM
      1 C1          0.0010    0.2120    0.3500 c3        1 E4D      0.026700
      2 C2          1.5180    0.2730    0.1470 c3        1 E4D      0.201400
      3 O3          2.2360    0.2850    1.3950 os        1 E4D     -0.321900
      4 C4          1.9960    1.4070    2.1770 ca        1 E4D      0.058100
      5 C5          3.0610    1.8080    3.0010 ca        1 E4D     -0.096000
      6 C6          2.8940    2.8760    3.8700 ca        1 E4D     -0.143000
      7 C7          1.6570    3.5480    3.9000 ca        1 E4D      0.119100
      8 O8          1.5600    4.6040    4.7770 oh        1 E4D     -0.496100
      9 C9          0.5990    3.1530    3.0780 ca        1 E4D     -0.186000
     10 C10         0.7600    2.0690    2.2050 ca        1 E4D     -0.013100
     11 S11        -0.5650    1.6620    1.2360 ss        1 E4D     -0.172000
     12 C12        -0.5370   -1.0280    0.9640 ca        1 E4D     -0.109300
     13 C13         0.0000   -1.5720    2.1360 ca        1 E4D     -0.075500
     14 C14        -0.5440   -2.7220    2.7020 ca        1 E4D     -0.185500
     15 C15        -1.6420   -3.3380    2.0870 ca        1 E4D      0.131100
     16 O16        -2.2360   -4.4730    2.5880 oh        1 E4D     -0.497100
     17 C17        -2.1920   -2.8090    0.9080 ca        1 E4D     -0.185500
     18 C18        -1.6350   -1.6610    0.3590 ca        1 E4D     -0.075500
     19 C19         2.0370   -0.8770   -0.6600 ca        1 E4D     -0.125300
     20 C20         1.9280   -0.8220   -2.0520 ca        1 E4D     -0.074000
     21 C21         2.4040   -1.8650   -2.8440 ca        1 E4D     -0.184500
     22 C22         3.0020   -2.9740   -2.2300 ca        1 E4D      0.141100
     23 C23         3.1200   -3.0370   -0.8280 ca        1 E4D     -0.184500
     24 C24         2.6370   -1.9890   -0.0560 ca        1 E4D     -0.074000
     25 O25         3.5300   -4.0540   -2.9050 os        1 E4D     -0.323900
     26 C26         3.3000   -4.0850   -4.3190 c3        1 E4D      0.127400
     27 C27         3.8740   -5.4270   -4.7990 c3        1 E4D      0.173800
     28 N28         2.8970   -6.5030   -4.7770 n3        1 E4D     -0.737600
     29 C29         2.0760   -6.5380   -5.9790 c3        1 E4D      0.176800
     30 C30         1.0160   -7.6370   -5.9520 c3        1 E4D     -0.077900
     31 C31         1.6390   -8.9850   -5.6600 c3        1 E4D     -0.078400
     32 C32         2.4550   -8.9220   -4.3860 c3        1 E4D     -0.077900
     33 C33         3.4820   -7.7930   -4.4410 c3        1 E4D      0.176800
     34 H1         -0.4590    0.3380   -0.6720 h1        1 E4D      0.095700
     35 H2          1.7510    1.2390   -0.3960 h1        1 E4D      0.065700
     36 H5          4.0140    1.2620    2.9510 ha        1 E4D      0.153000
     37 H6          3.7080    3.2080    4.5290 ha        1 E4D      0.155000
     38 HO8         0.6640    4.9660    4.7100 ho        1 E4D      0.420000
     39 H9         -0.3640    3.6840    3.1140 ha        1 E4D      0.145000
     40 H13         0.8670   -1.0890    2.6160 ha        1 E4D      0.142000
     41 H14        -0.1160   -3.1410    3.6230 ha        1 E4D      0.143000
     42 H16        -1.7570   -4.7310    3.3900 ho        1 E4D      0.419000
     43 H17        -3.0510   -3.3080    0.4380 ha        1 E4D      0.143000
     44 H18        -2.0660   -1.2480   -0.5670 ha        1 E4D      0.142000
     45 H20         1.4640    0.0520   -2.5340 ha        1 E4D      0.139500
     46 H21         2.3080   -1.8040   -3.9360 ha        1 E4D      0.144000
     47 H23         3.5910   -3.9160   -0.3650 ha        1 E4D      0.144000
     48 H24         2.7220   -2.0280    1.0420 ha        1 E4D      0.139500
     49 H261        3.8650   -3.2420   -4.7970 h1        1 E4D      0.044700
     50 H262        2.2050   -3.9800   -4.5320 h1        1 E4D      0.044700
     51 H271        4.7370   -5.6900   -4.1220 h1        1 E4D      0.048200
     52 H272        4.2900   -5.2590   -5.8350 h1        1 E4D      0.048200
     53 H291        1.5630   -5.5390   -6.0650 h1        1 E4D      0.027700
     54 H292        2.7080   -6.6760   -6.9070 h1        1 E4D      0.027700
     55 H301        0.2460   -7.4010   -5.1720 hc        1 E4D      0.048200
     56 H302        0.5010   -7.6560   -6.9470 hc        1 E4D      0.048200
     57 H311        0.8370   -9.7610   -5.5600 hc        1 E4D      0.039700
     58 H312        2.2980   -9.2890   -6.5150 hc        1 E4D      0.039700
     59 H321        3.0010   -9.8870   -4.2300 hc        1 E4D      0.048200
     60 H322        1.7720   -8.7680   -3.5100 hc        1 E4D      0.048200
     61 H331        4.2910   -8.0820   -5.1770 h1        1 E4D      0.027700
     62 H332        3.9610   -7.6930   -3.4260 h1        1 E4D      0.027700
@<TRIPOS>BOND
     1    1    2 1   
     2    1   11 1   
     3    1   12 1   
     4    1   34 1   
     5    2    3 1   
     6    2   19 1   
     7    2   35 1   
     8    3    4 1   
     9    4    5 ar  
    10    4   10 ar  
    11    5    6 ar  
    12    5   36 1   
    13    6    7 ar  
    14    6   37 1   
    15    7    8 1   
    16    7    9 ar  
    17    8   38 1   
    18    9   10 ar  
    19    9   39 1   
    20   10   11 1   
    21   12   13 ar  
    22   12   18 ar  
    23   13   14 ar  
    24   13   40 1   
    25   14   15 ar  
    26   14   41 1   
    27   15   16 1   
    28   15   17 ar  
    29   16   42 1   
    30   17   18 ar  
    31   17   43 1   
    32   18   44 1   
    33   19   20 ar  
    34   19   24 ar  
    35   20   21 ar  
    36   20   45 1   
    37   21   22 ar  
    38   21   46 1   
    39   22   23 ar  
    40   22   25 1   
    41   23   24 ar  
    42   23   47 1   
    43   24   48 1   
    44   25   26 1   
    45   26   27 1   
    46   26   49 1   
    47   26   50 1   
    48   27   28 1   
    49   27   51 1   
    50   27   52 1   
    51   28   29 1   
    52   28   33 1   
    53   29   30 1   
    54   29   53 1   
    55   29   54 1   
    56   30   31 1   
    57   30   55 1   
    58   30   56 1   
    59   31   32 1   
    60   31   57 1   
    61   31   58 1   
    62   32   33 1   
    63   32   59 1   
    64   32   60 1   
    65   33   61 1   
    66   33   62 1   
@<TRIPOS>SUBSTRUCTURE
     1 E4D         1 TEMP              0 ****  ****    0 ROOT
