@<TRIPOS>MOLECULE
E4D
   62    66     1     0     0
SMALL
bcc


@<TRIPOS>ATOM
      1 C1         -0.0050    0.2370    0.3450 c3        1 E4D      0.026700
      2 C2          1.5140    0.2790    0.1520 c3        1 E4D      0.201400
      3 O3          2.2250    0.2840    1.4040 os        1 E4D     -0.321900
      4 C4          1.9930    1.4100    2.1830 ca        1 E4D      0.058100
      5 C5          3.0570    1.8000    3.0140 ca        1 E4D     -0.096000
      6 C6          2.8980    2.8710    3.8790 ca        1 E4D     -0.143000
      7 C7          1.6700    3.5580    3.8990 ca        1 E4D      0.119100
      8 O8          1.5800    4.6180    4.7750 oh        1 E4D     -0.496100
      9 C9          0.6120    3.1760    3.0710 ca        1 E4D     -0.186000
     10 C10         0.7650    2.0880    2.2010 ca        1 E4D     -0.013100
     11 S11        -0.5580    1.6960    1.2240 ss        1 E4D     -0.172000
     12 C12        -0.5620   -0.9940    0.9590 ca        1 E4D     -0.109300
     13 C13        -0.0420   -1.5400    2.1390 ca        1 E4D     -0.075500
     14 C14        -0.6030   -2.6800    2.7040 ca        1 E4D     -0.185500
     15 C15        -1.7020   -3.2870    2.0820 ca        1 E4D      0.131100
     16 O16        -2.3130   -4.4140    2.5820 oh        1 E4D     -0.497100
     17 C17        -2.2360   -2.7580    0.8950 ca        1 E4D     -0.185500
     18 C18        -1.6610   -1.6180    0.3460 ca        1 E4D     -0.075500
     19 C19         2.0250   -0.8790   -0.6490 ca        1 E4D     -0.125300
     20 C20         1.9360   -0.8220   -2.0430 ca        1 E4D     -0.073500
     21 C21         2.4040   -1.8720   -2.8290 ca        1 E4D     -0.184500
     22 C22         2.9740   -2.9910   -2.2080 ca        1 E4D      0.141100
     23 C23         3.0730   -3.0570   -0.8050 ca        1 E4D     -0.184500
     24 C24         2.5970   -2.0020   -0.0380 ca        1 E4D     -0.073500
     25 O25         3.4920   -4.0800   -2.8760 os        1 E4D     -0.323900
     26 C26         3.2910   -4.1020   -4.2950 c3        1 E4D      0.127400
     27 C27         3.8530   -5.4510   -4.7690 c3        1 E4D      0.173800
     28 N28         2.8570   -6.5080   -4.7810 n3        1 E4D     -0.737600
     29 C29         2.0660   -6.5190   -6.0030 c3        1 E4D      0.176800
     30 C30         0.9860   -7.5990   -6.0130 c3        1 E4D     -0.077900
     31 C31         1.5770   -8.9600   -5.7150 c3        1 E4D     -0.078400
     32 C32         2.3610   -8.9220   -4.4210 c3        1 E4D     -0.077900
     33 C33         3.4090   -7.8110   -4.4400 c3        1 E4D      0.176800
     34 H1         -0.4570    0.3660   -0.6800 h1        1 E4D      0.095700
     35 H2          1.7620    1.2410   -0.3910 h1        1 E4D      0.065700
     36 H5          4.0040    1.2420    2.9710 ha        1 E4D      0.153000
     37 H6          3.7120    3.1940    4.5430 ha        1 E4D      0.155000
     38 HO8         0.6900    4.9920    4.7000 ho        1 E4D      0.420000
     39 H9         -0.3440    3.7200    3.1000 ha        1 E4D      0.145000
     40 H13         0.8260   -1.0630    2.6250 ha        1 E4D      0.142000
     41 H14        -0.1880   -3.1000    3.6310 ha        1 E4D      0.143000
     42 H16        -1.8450   -4.6730    3.3890 ho        1 E4D      0.419000
     43 H17        -3.0960   -3.2490    0.4190 ha        1 E4D      0.143000
     44 H18        -2.0790   -1.2040   -0.5850 ha        1 E4D      0.142000
     45 H20         1.4930    0.0610   -2.5300 ha        1 E4D      0.139500
     46 H21         2.3240   -1.8080   -3.9220 ha        1 E4D      0.144000
     47 H23         3.5220   -3.9440   -0.3360 ha        1 E4D      0.144000
     48 H24         2.6660   -2.0430    1.0610 ha        1 E4D      0.139500
     49 H261        2.2020   -3.9780   -4.5280 h1        1 E4D      0.044700
     50 H262        3.8780   -3.2650   -4.7580 h1        1 E4D      0.044700
     51 H271        4.6930   -5.7340   -4.0710 h1        1 E4D      0.048200
     52 H272        4.2990   -5.2830   -5.7930 h1        1 E4D      0.048200
     53 H291        2.7200   -6.6620   -6.9160 h1        1 E4D      0.027700
     54 H292        1.5740   -5.5110   -6.0960 h1        1 E4D      0.027700
     55 H301        0.4980   -7.6010   -7.0210 hc        1 E4D      0.048200
     56 H302        0.2010   -7.3550   -5.2510 hc        1 E4D      0.048200
     57 H311        0.7590   -9.7220   -5.6430 hc        1 E4D      0.039700
     58 H312        2.2520   -9.2700   -6.5560 hc        1 E4D      0.039700
     59 H321        2.8850   -9.8980   -4.2580 hc        1 E4D      0.048200
     60 H322        1.6590   -8.7620   -3.5620 hc        1 E4D      0.048200
     61 H331        3.8630   -7.7280   -3.4130 h1        1 E4D      0.027700
     62 H332        4.2320   -8.1100   -5.1570 h1        1 E4D      0.027700
@<TRIPOS>BOND
     1    1    2 1   
     2    1   11 1   
     3    1   12 1   
     4    1   34 1   
     5    2    3 1   
     6    2   19 1   
     7    2   35 1   
     8    3    4 1   
     9    4    5 ar  
    10    4   10 ar  
    11    5    6 ar  
    12    5   36 1   
    13    6    7 ar  
    14    6   37 1   
    15    7    8 1   
    16    7    9 ar  
    17    8   38 1   
    18    9   10 ar  
    19    9   39 1   
    20   10   11 1   
    21   12   13 ar  
    22   12   18 ar  
    23   13   14 ar  
    24   13   40 1   
    25   14   15 ar  
    26   14   41 1   
    27   15   16 1   
    28   15   17 ar  
    29   16   42 1   
    30   17   18 ar  
    31   17   43 1   
    32   18   44 1   
    33   19   20 ar  
    34   19   24 ar  
    35   20   21 ar  
    36   20   45 1   
    37   21   22 ar  
    38   21   46 1   
    39   22   23 ar  
    40   22   25 1   
    41   23   24 ar  
    42   23   47 1   
    43   24   48 1   
    44   25   26 1   
    45   26   27 1   
    46   26   49 1   
    47   26   50 1   
    48   27   28 1   
    49   27   51 1   
    50   27   52 1   
    51   28   29 1   
    52   28   33 1   
    53   29   30 1   
    54   29   53 1   
    55   29   54 1   
    56   30   31 1   
    57   30   55 1   
    58   30   56 1   
    59   31   32 1   
    60   31   57 1   
    61   31   58 1   
    62   32   33 1   
    63   32   59 1   
    64   32   60 1   
    65   33   61 1   
    66   33   62 1   
@<TRIPOS>SUBSTRUCTURE
     1 E4D         1 TEMP              0 ****  ****    0 ROOT
