@<TRIPOS>MOLECULE
E4F
   55    47     1     0     0
SMALL
bcc


@<TRIPOS>ATOM
      1 C1         -1.9600   -0.8030   -5.2530 c1        1 E4F     -0.137833
      2 C2         -0.5580   -0.8790   -5.2640 c1        1 E4F     -0.137833
      3 C3         -2.6470   -0.7280   -4.0380 c1        1 E4F     -0.137833
      4 C4          0.1580   -0.8810   -4.0540 c1        1 E4F     -0.137833
      5 C5          2.8530    0.5730   -2.5780 c1        1 E4F     -0.137833
      6 C6          4.1480    0.2890   -2.9830 c1        1 E4F     -0.137833
      7 C7          3.0230   -1.1120   -0.8400 c1        1 E4F     -0.059000
      8 C8         -1.9390   -0.7300   -2.8360 c1        1 E4F     -0.069000
      9 C9         -0.5220   -0.8070   -2.8470 c1        1 E4F     -0.069000
     10 C10         2.2850   -0.1260   -1.5050 c1        1 E4F     -0.053000
     11 C11         4.8990   -0.7110   -2.3100 c1        1 E4F     -0.016000
     12 C12         4.3290   -1.4020   -1.2440 c2        1 E4F      0.030000
     13 C13         3.0770   -1.7800    0.5350 c1        1 E4F      0.364000
     14 C14        -1.6440    0.1540    1.7670 c1        1 E4F      0.300000
     15 C15        -2.4160   -0.7920   -1.3450 c2        1 E4F     -0.140000
     16 C16         6.4230   -2.2760   -1.5910 c3        1 E4F      0.095000
     17 C17        -0.0350   -0.9280   -1.3740 c2        1 E4F     -0.066000
     18 C18        -1.2280   -0.8970   -0.4930 c3        1 E4F      0.039000
     19 C19         0.8540    0.2030   -1.0530 c2        1 E4F     -0.129000
     20 C20        -1.6590    1.3870    2.6780 c2        1 E4F     -0.168000
     21 C21        -2.6420    1.1660    3.8100 c3        1 E4F     -0.186000
     22 C22        -2.5410    2.3530    4.8390 c3        1 E4F     -0.143000
     23 C23        -3.6200    2.1730    5.9480 c3        1 E4F     -0.108000
     24 N25        -1.1550    0.2650    0.4070 n3        1 E4F     -0.365000
     25 N24        -3.6110    3.2960    6.8050 n3        1 E4F     -0.346000
     26 O30         3.4670   -1.0920    1.5820 os        1 E4F     -0.583000
     27 O26         2.6340   -2.9820    0.6840 o         1 E4F     -0.535000
     28 O27        -2.1060   -0.8850    2.1550 o         1 E4F     -0.423000
     29 O28         6.2240   -1.2270   -2.5100 os        1 E4F     -0.239000
     30 O29         5.2920   -2.3480   -0.7630 os        1 E4F     -0.192000
     31 H1         -2.4590   -0.8010   -6.0980 ha        1 E4F      0.125333
     32 H2         -0.0810   -0.9310   -6.1100 ha        1 E4F      0.125333
     33 H3         -3.5880   -0.6770   -4.0300 ha        1 E4F      0.125333
     34 H4          1.1410   -0.9930   -4.0610 ha        1 E4F      0.125333
     35 H5          2.3380    1.2580   -3.0380 ha        1 E4F      0.125333
     36 H6          4.5190    0.7230   -3.8070 ha        1 E4F      0.125333
     37 H7         -2.9010    0.0050   -1.1250 ha        1 E4F      0.105000
     38 H8         -3.0010   -1.5940   -1.2110 ha        1 E4F      0.105000
     39 H9          6.5390   -3.1500   -2.0890 h2        1 E4F      0.092500
     40 H10         7.2280   -2.0940   -1.0440 h2        1 E4F      0.092500
     41 H11         0.4380   -1.7620   -1.2520 ha        1 E4F      0.119000
     42 H12        -1.2720   -1.7330    0.0430 h1        1 E4F      0.089000
     43 H13         0.8440    0.3650   -0.0890 ha        1 E4F      0.113000
     44 H14         0.5450    0.9990   -1.5180 ha        1 E4F      0.113000
     45 H15        -0.7700    1.5300    3.0450 ha        1 E4F      0.096500
     46 H16        -1.9350    2.1910    2.1470 ha        1 E4F      0.096500
     47 H17        -2.4280    0.3190    4.2670 hc        1 E4F      0.122000
     48 H18        -3.5230    1.1240    3.4590 hc        1 E4F      0.122000
     49 H19        -2.6870    3.1960    4.3800 hc        1 E4F      0.069000
     50 H20        -1.6760    2.3530    5.2370 hc        1 E4F      0.069000
     51 H21        -4.4990    2.0860    5.5360 h1        1 E4F      0.094000
     52 H22        -3.4130    1.3310    6.4910 h1        1 E4F      0.094000
     53 H23        -0.8720    1.0500    0.0980 hn        1 E4F      0.283000
     54 H24        -4.4510    3.7050    6.7920 hn        1 E4F      0.128500
     55 H25        -3.4210    3.0300    7.6410 hn        1 E4F      0.128500
@<TRIPOS>BOND
     1    1    3 1   
     2    1   31 1   
     3    2    4 1   
     4    2   32 1   
     5    3   33 1   
     6    4   34 1   
     7    5    6 1   
     8    5   35 1   
     9    6   36 1   
    10    7   10 1   
    11    7   12 1   
    12    8    9 1   
    13   11   12 1   
    14   11   29 1   
    15   12   30 1   
    16   13   27 1   
    17   14   24 1   
    18   14   28 1   
    19   15   18 1   
    20   15   37 1   
    21   15   38 1   
    22   16   29 1   
    23   16   30 1   
    24   16   39 1   
    25   16   40 1   
    26   17   18 1   
    27   17   19 1   
    28   17   41 1   
    29   18   24 1   
    30   18   42 1   
    31   19   43 1   
    32   19   44 1   
    33   20   21 1   
    34   20   45 1   
    35   20   46 1   
    36   21   22 1   
    37   21   47 1   
    38   21   48 1   
    39   22   23 1   
    40   22   49 1   
    41   22   50 1   
    42   23   25 1   
    43   23   51 1   
    44   23   52 1   
    45   24   53 1   
    46   25   54 1   
    47   25   55 1   
@<TRIPOS>SUBSTRUCTURE
     1 E4F         1 TEMP              0 ****  ****    0 ROOT
