@<TRIPOS>MOLECULE
E4F
   57    55     1     0     0
SMALL
bcc


@<TRIPOS>ATOM
      1 C1          0.8120    0.3900   -0.5300 c3        1 E4F     -0.264000
      2 C2          0.7510    1.8340   -0.2470 c2        1 E4F      0.055000
      3 C3          0.8190   -0.5220    0.6030 c1        1 E4F      0.012000
      4 C4          0.7110    2.3130    1.0320 c2        1 E4F     -0.266000
      5 C5          4.1100    2.5410    3.0000 ca        1 E4F     -0.131000
      6 C6          5.3910    1.9690    3.0090 ca        1 E4F     -0.063000
      7 C7          3.3880    1.2970    4.9840 ca        1 E4F     -0.051000
      8 C8          0.7660    0.0240    1.9300 c2        1 E4F     -0.144000
      9 C9          0.7170    1.4440    2.1540 c2        1 E4F      0.246000
     10 C10         3.1260    2.2220    3.9480 ca        1 E4F     -0.063000
     11 C11         5.6320    1.0560    4.0160 ca        1 E4F     -0.023000
     12 C12         4.6480    0.7260    4.9860 ca        1 E4F      0.000000
     13 C15         0.7770   -0.8190    2.9770 c1        1 E4F      0.066000
     14 C16         6.5140   -0.4540    5.4330 c1        1 E4F      0.211000
     15 C17         0.6430    2.0120    3.5170 c3        1 E4F     -0.206000
     16 C18         0.8150   -1.6900    3.9160 c1        1 E4F      0.067000
     17 C19         1.8110    2.9200    3.8840 c3        1 E4F     -0.119000
     18 C20        -0.1720   -2.7030    9.8930 c3        1 E4F     -0.230000
     19 C21        -0.3280   -1.1980    9.8710 c3        1 E4F     -0.164000
     20 C22         0.8140   -0.5160    9.1500 c3        1 E4F     -0.209000
     21 C23         0.7350    0.9540    9.0100 c1        1 E4F     -0.157000
     22 N25         0.8820   -2.5870    4.7570 n2        1 E4F      0.013000
     23 N24         0.0100    1.7400    9.7520 n3        1 E4F     -0.207000
     24 O30         1.6880   -0.0880    6.0060 o         1 E4F     -0.458000
     25 O26         2.2400    1.8210    7.0040 oh        1 E4F     -0.367000
     26 O27        -0.3450   -2.7910    7.4810 o         1 E4F     -0.342000
     27 O28         6.7730    0.2990    4.3330 os        1 E4F     -0.141000
     28 O29         5.2390   -0.2150    5.8450 os        1 E4F     -0.150000
     29 H1         -0.0570    0.0870   -1.2000 hc        1 E4F      0.210000
     30 H2          0.6640    3.4020    1.2190 ha        1 E4F      0.174000
     31 H3          1.7330    0.1540   -1.1560 hc        1 E4F      0.210000
     32 H4          0.7340    2.5280   -1.1080 ha        1 E4F      0.169000
     33 H5          3.8820    3.2870    2.2220 ha        1 E4F      0.146000
     34 H6          6.1570    2.2370    2.2670 ha        1 E4F      0.179000
     35 H7         -0.1330    4.8050    4.0180 ha        1 E4F      0.000833
     36 H8         -0.5950    5.2740    4.1780 ha        1 E4F      0.000833
     37 H9          8.6160    0.7710    2.7430 ha        1 E4F      0.000833
     38 H10         8.1190    1.1420    2.4710 ha        1 E4F      0.000833
     39 H11         0.5620    1.1920    4.2890 hc        1 E4F      0.147000
     40 H12        -0.3030    2.6280    3.5800 hc        1 E4F      0.147000
     41 H13         1.5890    3.3530    4.9030 hc        1 E4F      0.122500
     42 H14         1.8610    3.7770    3.1600 hc        1 E4F      0.122500
     43 H15        -0.7570   -0.4950    5.8890 ha        1 E4F      0.000833
     44 H16        -0.6900   -0.6240    6.5520 ha        1 E4F      0.000833
     45 H17        -0.9250   -3.1400   10.6040 hc        1 E4F      0.121000
     46 H18         0.8480   -2.9780   10.2790 hc        1 E4F      0.121000
     47 H19        -1.2950   -0.9370    9.3670 hc        1 E4F      0.087000
     48 H20        -0.3860   -0.8370   10.9330 hc        1 E4F      0.087000
     49 H21         0.8890   -0.9220    8.0960 hc        1 E4F      0.141000
     50 H22         1.7920   -0.7420    9.6590 hc        1 E4F      0.141000
     51 H23        -0.4700   -4.4830    8.6220 h4        1 E4F      0.105000
     52 H24         1.6170    1.4570    7.7830 ho        1 E4F      0.337000
     53 H25        -0.5840    1.4400   10.4980 hn        1 E4F      0.215500
     54 C14        -0.3450   -3.3760    8.5680 c2        1 E4F      0.210000
     55 H252        0.8520   -2.3820    5.7470 hn        1 E4F      0.285000
     56 H243        0.0420    2.7240    9.5920 hn        1 E4F      0.215500
     57 C13         2.3890    0.9430    6.0200 c2        1 E4F      0.383000
@<TRIPOS>BOND
     1    1    2 1   
     2    1    3 1   
     3    1   29 1   
     4    1   31 1   
     5    2    4 1   
     6    2   32 1   
     7    3    8 1   
     8    4    9 1   
     9    4   30 1   
    10    5    6 1   
    11    5   10 1   
    12    5   33 1   
    13    6   11 1   
    14    6   34 1   
    15    7   10 1   
    16    7   12 1   
    17    7   57 1   
    18    8    9 1   
    19    8   13 1   
    20    9   15 1   
    21   10   17 1   
    22   11   12 1   
    23   11   27 1   
    24   12   28 1   
    25   13   16 1   
    26   14   27 1   
    27   14   28 1   
    28   15   17 1   
    29   15   39 1   
    30   15   40 1   
    31   16   22 1   
    32   17   41 1   
    33   17   42 1   
    34   18   19 1   
    35   18   45 1   
    36   18   46 1   
    37   18   54 1   
    38   19   20 1   
    39   19   47 1   
    40   19   48 1   
    41   20   21 1   
    42   20   49 1   
    43   20   50 1   
    44   21   23 1   
    45   22   55 1   
    46   23   53 1   
    47   23   56 1   
    48   24   57 1   
    49   25   52 1   
    50   25   57 1   
    51   26   54 1   
    52   35   36 1   
    53   37   38 1   
    54   43   44 1   
    55   51   54 1   
@<TRIPOS>SUBSTRUCTURE
     1 E4F         1 TEMP              0 ****  ****    0 ROOT
