@<TRIPOS>MOLECULE
E4F
   55    58     1     0     0
SMALL
bcc


@<TRIPOS>ATOM
      1 C1          1.2010    6.0450    0.3900 ca        1 E4F     -0.141000
      2 C2          2.3150    5.2170    0.4930 ca        1 E4F     -0.142000
      3 C3         -0.0520    5.5180    0.0530 ca        1 E4F     -0.127000
      4 C4          2.2030    3.8390    0.2650 ca        1 E4F     -0.121000
      5 C5          2.8440   -0.1420    0.6020 ca        1 E4F     -0.159000
      6 C6          3.6690   -1.2730    0.5170 ca        1 E4F     -0.134000
      7 C7          0.7920   -1.4780    0.8040 ca        1 E4F     -0.079600
      8 C8         -0.1660    4.1560   -0.1760 ca        1 E4F     -0.073300
      9 C9          0.9650    3.3130   -0.0700 ca        1 E4F     -0.076300
     10 C10         1.4540   -0.2260    0.7560 ca        1 E4F     -0.054300
     11 C11         3.0270   -2.4910    0.6010 ca        1 E4F      0.026100
     12 C12         1.6200   -2.5890    0.7410 ca        1 E4F      0.079100
     13 C15        -1.3740    3.3720   -0.5510 c3        1 E4F     -0.061100
     14 C16         2.4850   -4.6970    0.6770 c3        1 E4F      0.316200
     15 C17         0.6110    1.8780   -0.3480 c3        1 E4F     -0.024400
     16 C18        -0.8040    1.9940   -1.0190 c3        1 E4F      0.116700
     17 C19         0.7100    1.0580    0.9350 c3        1 E4F     -0.047100
     18 C20        -3.3550   -0.7870   -1.5960 c3        1 E4F     -0.152400
     19 C21        -4.0830   -0.7700   -0.2700 c3        1 E4F     -0.093400
     20 C22        -5.1040   -1.8870   -0.2130 c3        1 E4F     -0.075400
     21 C23        -5.7560   -1.9270    1.1680 c3        1 E4F      0.144800
     22 N25        -1.6990    0.8950   -0.8360 n         1 E4F     -0.561900
     23 N24        -6.6910   -3.0180    1.3480 n3        1 E4F     -0.916800
     24 O30        -1.3800   -0.9320    1.6820 o         1 E4F     -0.824800
     25 O26        -1.2620   -2.4010    0.0240 o         1 E4F     -0.824800
     26 O27        -2.6030    1.0690   -2.9390 o         1 E4F     -0.672100
     27 O28         3.5860   -3.7690    0.5620 os        1 E4F     -0.355900
     28 O29         1.2690   -3.9390    0.8070 os        1 E4F     -0.304900
     29 H1          1.3020    7.1240    0.5740 ha        1 E4F      0.117000
     30 H2          3.2930    5.6440    0.7580 ha        1 E4F      0.118000
     31 H3         -0.9280    6.1760   -0.0280 ha        1 E4F      0.126000
     32 H4          3.0830    3.1860    0.3530 ha        1 E4F      0.131000
     33 H5          3.3140    0.8520    0.5520 ha        1 E4F      0.118000
     34 H6          4.7540   -1.1910    0.3960 ha        1 E4F      0.132000
     35 H7         -2.0540    3.2580    0.3320 hc        1 E4F      0.062200
     36 H8         -1.9520    3.8510   -1.3780 hc        1 E4F      0.062200
     37 H9          2.4340   -5.3070   -0.2590 h2        1 E4F      0.052700
     38 H10         2.6290   -5.3080    1.6020 h2        1 E4F      0.052700
     39 H11         1.3180    1.4490   -1.1090 hc        1 E4F      0.067700
     40 H12        -0.6140    2.0960   -2.1330 h1        1 E4F      0.068700
     41 H13        -0.2980    0.8640    1.3910 hc        1 E4F      0.077700
     42 H14         1.2750    1.6630    1.7000 hc        1 E4F      0.077700
     43 H15        -4.0790   -0.8870   -2.4450 hc        1 E4F      0.083200
     44 H16        -2.6530   -1.6700   -1.6090 hc        1 E4F      0.083200
     45 H17        -3.3320   -0.9180    0.5620 hc        1 E4F      0.070700
     46 H18        -4.5920    0.2170   -0.1150 hc        1 E4F      0.070700
     47 H19        -5.8870   -1.7390   -1.0020 hc        1 E4F      0.039700
     48 H20        -4.5880   -2.8610   -0.4230 hc        1 E4F      0.039700
     49 H21        -4.9290   -1.9460    1.9380 h1        1 E4F      0.034700
     50 H22        -6.3330   -0.9710    1.3260 h1        1 E4F      0.034700
     51 H23        -1.6580    0.3710    0.0160 hn        1 E4F      0.364500
     52 H24        -6.3700   -3.8390    0.8730 hn        1 E4F      0.336300
     53 H25        -6.7750   -3.2330    2.3220 hn        1 E4F      0.336300
     54 C14        -2.5330    0.4610   -1.8450 c         1 E4F      0.669100
     55 C13        -0.7150   -1.6250    0.8520 c         1 E4F      0.913200
@<TRIPOS>BOND
     1    1    2 ar  
     2    1    3 ar  
     3    1   29 1   
     4    2    4 ar  
     5    2   30 1   
     6    3    8 ar  
     7    3   31 1   
     8    4    9 ar  
     9    4   32 1   
    10    5    6 ar  
    11    5   10 ar  
    12    5   33 1   
    13    6   11 ar  
    14    6   34 1   
    15    7   10 ar  
    16    7   12 ar  
    17    7   55 1   
    18    8    9 ar  
    19    8   13 1   
    20    9   15 1   
    21   10   17 1   
    22   11   12 ar  
    23   11   27 1   
    24   12   28 1   
    25   13   16 1   
    26   13   35 1   
    27   13   36 1   
    28   14   27 1   
    29   14   28 1   
    30   14   37 1   
    31   14   38 1   
    32   15   16 1   
    33   15   17 1   
    34   15   39 1   
    35   16   22 1   
    36   16   40 1   
    37   17   41 1   
    38   17   42 1   
    39   18   19 1   
    40   18   43 1   
    41   18   44 1   
    42   18   54 1   
    43   19   20 1   
    44   19   45 1   
    45   19   46 1   
    46   20   21 1   
    47   20   47 1   
    48   20   48 1   
    49   21   23 1   
    50   21   49 1   
    51   21   50 1   
    52   22   51 1   
    53   22   54 1   
    54   23   52 1   
    55   23   53 1   
    56   24   55 1   
    57   25   55 1   
    58   26   54 2   
@<TRIPOS>SUBSTRUCTURE
     1 E4F         1 TEMP              0 ****  ****    0 ROOT
