@<TRIPOS>MOLECULE
E4H
   49    49     1     0     0
SMALL
bcc


@<TRIPOS>ATOM
      1 CAD        -1.8610    0.0860   -2.2330 c3        1 E4H     -0.095100
      2 CAR        -2.3410    0.7550   -0.9690 c3        1 E4H     -0.054700
      3 CAL        -3.2960   -0.1140   -0.1540 c3        1 E4H     -0.066400
      4 CAQ        -2.9720   -1.5560    0.2220 c3        1 E4H     -0.153700
      5 CAC        -3.0010   -2.5230   -0.9380 c3        1 E4H     -0.092100
      6 CAN        -1.7360   -1.6980    1.0870 c         1 E4H      0.565300
      7 OAF        -1.8400   -1.6000    2.3180 o         1 E4H     -0.541100
      8 CAI        -0.4330   -1.9420    0.4430 ce        1 E4H     -0.256200
      9 CAJ         0.7190   -1.6890    1.0790 c2        1 E4H     -0.091200
     10 CAP         2.0800   -1.7820    0.4800 c3        1 E4H     -0.052500
     11 CAB         2.1030   -2.4870   -0.8590 c3        1 E4H     -0.092100
     12 CAU         2.6840   -0.3650    0.3880 c3        1 E4H      0.150100
     13 CAK         4.0930   -0.3740   -0.1940 c3        1 E4H     -0.089400
     14 CAA         4.8420    0.8830    0.1650 c3        1 E4H     -0.096100
     15 OAM         1.8400    0.3950   -0.5010 os        1 E4H     -0.443900
     16 CAO         1.2280    1.5210   -0.0210 c         1 E4H      0.633100
     17 OAG         1.6800    2.0750    0.9820 o         1 E4H     -0.538000
     18 CAS         0.0030    1.8800   -0.8280 c3        1 E4H     -0.147700
     19 CAE        -0.1030    3.3760   -1.0120 c3        1 E4H     -0.088100
     20 CAT        -1.2070    1.2810   -0.0760 c3        1 E4H      0.148100
     21 OAH        -1.8050    2.2570    0.7670 oh        1 E4H     -0.596800
     22 HAD1       -1.0060   -0.6040   -2.0280 hc        1 E4H      0.039700
     23 HAD2       -2.6960   -0.5010   -2.6910 hc        1 E4H      0.039700
     24 HAD3       -1.5320    0.8470   -2.9830 hc        1 E4H      0.039700
     25 HAR        -2.9450    1.6640   -1.2720 hc        1 E4H      0.066700
     26 HAL1       -3.4920    0.4400    0.8080 hc        1 E4H      0.057700
     27 HAL2       -4.2650   -0.1520   -0.7250 hc        1 E4H      0.057700
     28 HAQ        -3.8330   -1.8620    0.9010 hc        1 E4H      0.072700
     29 HAC1       -2.1760   -2.3490   -1.6670 hc        1 E4H      0.039700
     30 HAC2       -2.9140   -3.5720   -0.5600 hc        1 E4H      0.039700
     31 HAC3       -3.9720   -2.4240   -1.4840 hc        1 E4H      0.039700
     32 HAI        -0.4570   -2.3040   -0.5960 ha        1 E4H      0.143000
     33 HAJ         0.7030   -1.3410    2.1290 ha        1 E4H      0.142000
     34 HAP         2.7310   -2.3610    1.2000 hc        1 E4H      0.069700
     35 HAB1        1.5880   -1.8680   -1.6330 hc        1 E4H      0.043033
     36 HAB2        3.1570   -2.6570   -1.1860 hc        1 E4H      0.043033
     37 HAB3        1.5910   -3.4770   -0.7860 hc        1 E4H      0.043033
     38 HAU         2.6900    0.1050    1.4120 h1        1 E4H      0.081700
     39 HAK1        4.0260   -0.4740   -1.3100 hc        1 E4H      0.053700
     40 HAK2        4.6380   -1.2720    0.1980 hc        1 E4H      0.053700
     41 HAA1        5.8060    0.9330   -0.3950 hc        1 E4H      0.040700
     42 HAA2        4.2300    1.7840   -0.0880 hc        1 E4H      0.040700
     43 HAA3        5.0650    0.9130    1.2590 hc        1 E4H      0.040700
     44 HAS         0.1060    1.3890   -1.8350 hc        1 E4H      0.093700
     45 HAE1        0.6670    3.7340   -1.7370 hc        1 E4H      0.052367
     46 HAE2       -1.1190    3.6310   -1.3990 hc        1 E4H      0.052367
     47 HAE3        0.0500    3.9050   -0.0400 hc        1 E4H      0.052367
     48 HAT        -0.8290    0.4290    0.5640 h1        1 E4H      0.044700
     49 HOAH       -1.1260    2.5330    1.3970 ho        1 E4H      0.414000
@<TRIPOS>BOND
     1    1    2 1   
     2    1   22 1   
     3    1   23 1   
     4    1   24 1   
     5    2    3 1   
     6    2   20 1   
     7    2   25 1   
     8    3    4 1   
     9    3   26 1   
    10    3   27 1   
    11    4    5 1   
    12    4    6 1   
    13    4   28 1   
    14    5   29 1   
    15    5   30 1   
    16    5   31 1   
    17    6    7 2   
    18    6    8 1   
    19    8    9 2   
    20    8   32 1   
    21    9   10 1   
    22    9   33 1   
    23   10   11 1   
    24   10   12 1   
    25   10   34 1   
    26   11   35 1   
    27   11   36 1   
    28   11   37 1   
    29   12   13 1   
    30   12   15 1   
    31   12   38 1   
    32   13   14 1   
    33   13   39 1   
    34   13   40 1   
    35   14   41 1   
    36   14   42 1   
    37   14   43 1   
    38   15   16 1   
    39   16   17 2   
    40   16   18 1   
    41   18   19 1   
    42   18   20 1   
    43   18   44 1   
    44   19   45 1   
    45   19   46 1   
    46   19   47 1   
    47   20   21 1   
    48   20   48 1   
    49   21   49 1   
@<TRIPOS>SUBSTRUCTURE
     1 E4H         1 TEMP              0 ****  ****    0 ROOT
