@<TRIPOS>MOLECULE
E4H
   49    48     1     0     0
SMALL
bcc


@<TRIPOS>ATOM
      1 CAD        -0.5590    2.6360   -0.3010 c3        1 E4H     -0.220000
      2 CAR         0.9360    2.6360   -0.3010 c3        1 E4H     -0.097000
      3 CAL         1.4540    2.6360    1.1610 c3        1 E4H     -0.142000
      4 CAQ         0.4540    1.8950    2.0870 c3        1 E4H     -0.147000
      5 CAC        -0.7870    2.7190    2.2450 c3        1 E4H     -0.208000
      6 CAN         0.0960    0.5570    1.4800 c2        1 E4H      0.265000
      7 OAF        -0.0840    0.4630    0.2900 o         1 E4H     -0.290000
      8 CAI         0.8520   -0.5810    2.2500 c2        1 E4H     -0.242000
      9 CAJ         0.3950   -2.1040    2.0780 c1        1 E4H     -0.066000
     10 CAP        -0.8310   -2.4450    1.2170 c2        1 E4H     -0.089000
     11 CAB        -1.9600   -1.4990    1.5520 c3        1 E4H     -0.205000
     12 CAU        -0.4790   -2.3080   -0.2410 c3        1 E4H      0.042000
     13 CAK        -1.3870   -3.2160   -1.0720 c3        1 E4H     -0.171000
     14 CAA        -0.7130   -4.5870   -1.2560 c3        1 E4H     -0.212000
     15 OAM        -0.6570   -0.9680   -0.6440 os        1 E4H     -0.266000
     16 CAO         0.2640   -0.6600   -1.7400 c2        1 E4H      0.304000
     17 OAG         1.2470   -1.3580   -1.9250 o         1 E4H     -0.363000
     18 CAS         0.3580    0.8530   -1.9160 c3        1 E4H     -0.138000
     19 CAE         0.6900    1.1720   -3.3610 c3        1 E4H     -0.205000
     20 CAT         1.4410    1.4010   -1.0170 c3        1 E4H      0.039000
     21 OAH         2.5680    1.7390   -1.7950 oh        1 E4H     -0.331000
     22 HAD1       -0.8840    1.8180    0.1210 hc        1 E4H      0.085000
     23 HAD2       -0.8840    3.4100    0.1970 hc        1 E4H      0.085000
     24 HAD3       -0.8840    2.6800   -1.2200 hc        1 E4H      0.085000
     25 HAR         1.2600    3.4330   -0.7600 hc        1 E4H      0.113000
     26 HAL1        1.5550    3.5570    1.4680 hc        1 E4H      0.087500
     27 HAL2        2.3200    2.1870    1.1970 hc        1 E4H      0.087500
     28 HAQ         0.8650    1.7550    2.9610 hc        1 E4H      0.096000
     29 HAC1       -0.6240    3.6210    1.9080 hc        1 E4H      0.082667
     30 HAC2       -1.0300    2.7640    3.1890 hc        1 E4H      0.082667
     31 HAC3       -1.5160    2.3110    1.7400 hc        1 E4H      0.082667
     32 HAI         1.6310   -0.3650    2.7980 ha        1 E4H      0.127000
     33 HAJ         0.8660   -2.8120    2.5580 ha        1 E4H      0.114000
     34 HAP        -1.1110   -3.3620    1.3990 ha        1 E4H      0.097000
     35 HAB1       -2.7830   -2.0080    1.6820 hc        1 E4H      0.088667
     36 HAB2       -1.7450   -1.0140    2.3710 hc        1 E4H      0.088667
     37 HAB3       -2.0820   -0.8650    0.8200 hc        1 E4H      0.088667
     38 HAU         0.4520   -2.5680   -0.3770 h1        1 E4H      0.114000
     39 HAK1       -1.5420   -2.8100   -1.9460 hc        1 E4H      0.097500
     40 HAK2       -2.2400   -3.3320   -0.6120 hc        1 E4H      0.097500
     41 HAA1        0.2340   -4.4590   -1.4580 hc        1 E4H      0.076333
     42 HAA2       -1.1400   -5.0640   -1.9930 hc        1 E4H      0.076333
     43 HAA3       -0.8030   -5.1070   -0.4360 hc        1 E4H      0.076333
     44 HAS        -0.4970    1.2620   -1.6810 hc        1 E4H      0.147000
     45 HAE1        0.8160    2.1350   -3.4610 hc        1 E4H      0.090333
     46 HAE2       -0.0420    0.8780   -3.9360 hc        1 E4H      0.090333
     47 HAE3        1.5100    0.7090   -3.6160 hc        1 E4H      0.090333
     48 HAT         1.6920    0.7240   -0.3600 h1        1 E4H      0.076000
     49 HOAH        3.3080    1.5420   -1.3460 ho        1 E4H      0.216000
@<TRIPOS>BOND
     1    1    2 1   
     2    1   22 1   
     3    1   23 1   
     4    1   24 1   
     5    2    3 1   
     6    2   20 1   
     7    2   25 1   
     8    3    4 1   
     9    3   26 1   
    10    3   27 1   
    11    4    5 1   
    12    4    6 1   
    13    4   28 1   
    14    5   29 1   
    15    5   30 1   
    16    5   31 1   
    17    6    7 1   
    18    6    8 1   
    19    8    9 1   
    20    8   32 1   
    21    9   33 1   
    22   10   11 1   
    23   10   12 1   
    24   10   34 1   
    25   11   35 1   
    26   11   36 1   
    27   11   37 1   
    28   12   13 1   
    29   12   15 1   
    30   12   38 1   
    31   13   14 1   
    32   13   39 1   
    33   13   40 1   
    34   14   41 1   
    35   14   42 1   
    36   14   43 1   
    37   15   16 1   
    38   16   17 1   
    39   16   18 1   
    40   18   19 1   
    41   18   20 1   
    42   18   44 1   
    43   19   45 1   
    44   19   46 1   
    45   19   47 1   
    46   20   21 1   
    47   20   48 1   
    48   21   49 1   
@<TRIPOS>SUBSTRUCTURE
     1 E4H         1 TEMP              0 ****  ****    0 ROOT
