@<TRIPOS>MOLECULE
E4H
   49    49     1     0     0
SMALL
bcc


@<TRIPOS>ATOM
      1 CAD         0.2490    0.2050    0.4000 c3        1 E4H     -0.095100
      2 CAR         1.7300    0.0110    0.2000 c3        1 E4H     -0.087700
      3 CAL         2.4010   -0.7530    1.3380 c3        1 E4H     -0.061400
      4 CAQ         1.7080   -1.9120    2.0420 c3        1 E4H     -0.152700
      5 CAC         0.5490   -1.4850    2.9180 c3        1 E4H     -0.089100
      6 CAN         1.3390   -3.0800    1.1540 c         1 E4H      0.579300
      7 OAF         1.9120   -3.3010    0.0830 o         1 E4H     -0.527100
      8 CAI         0.3690   -4.0190    1.7440 ce        1 E4H     -0.247200
      9 CAJ        -0.8140   -4.4370    1.2920 c2        1 E4H     -0.101200
     10 CAP        -1.6130   -4.0740    0.0900 c3        1 E4H     -0.041500
     11 CAB        -2.4420   -2.8340    0.3670 c3        1 E4H     -0.079100
     12 CAU        -0.8290   -3.9790   -1.2310 c3        1 E4H      0.150100
     13 CAK        -1.7160   -4.4540   -2.3840 c3        1 E4H     -0.095400
     14 CAA        -0.9930   -4.5170   -3.7020 c3        1 E4H     -0.093100
     15 OAM        -0.4740   -2.5970   -1.4320 os        1 E4H     -0.445900
     16 CAO         0.6850   -2.3270   -2.1140 c         1 E4H      0.638100
     17 OAG         1.3240   -3.2540   -2.6090 o         1 E4H     -0.522000
     18 CAS         0.9990   -0.8490   -2.1760 c3        1 E4H     -0.097700
     19 CAE         1.3840   -0.5060   -3.6040 c3        1 E4H     -0.081100
     20 CAT         2.1380   -0.5570   -1.1790 c3        1 E4H      0.141100
     21 OAH         2.9960    0.3960   -1.8090 oh        1 E4H     -0.602800
     22 HAD1        0.0470    0.5580    1.4410 hc        1 E4H      0.042700
     23 HAD2       -0.3060   -0.7490    0.2230 hc        1 E4H      0.042700
     24 HAD3       -0.1410    0.9840   -0.3000 hc        1 E4H      0.042700
     25 HAR         2.1850    1.0510    0.2360 hc        1 E4H      0.054700
     26 HAL1        2.6380   -0.0010    2.1430 hc        1 E4H      0.043200
     27 HAL2        3.3850   -1.1440    0.9550 hc        1 E4H      0.043200
     28 HAQ         2.4980   -2.3430    2.7360 hc        1 E4H      0.065700
     29 HAC1        0.3910   -2.2330    3.7340 hc        1 E4H      0.041700
     30 HAC2        0.7580   -0.4940    3.3870 hc        1 E4H      0.041700
     31 HAC3       -0.4000   -1.4140    2.3330 hc        1 E4H      0.041700
     32 HAI         0.7370   -4.4210    2.7090 ha        1 E4H      0.136000
     33 HAJ        -1.3580   -5.1610    1.9350 ha        1 E4H      0.116000
     34 HAP        -2.3410   -4.9310   -0.0590 hc        1 E4H      0.057700
     35 HAB1       -3.0230   -2.5570   -0.5460 hc        1 E4H      0.041700
     36 HAB2       -1.7880   -1.9730    0.6400 hc        1 E4H      0.041700
     37 HAB3       -3.1520   -3.0260    1.2070 hc        1 E4H      0.041700
     38 HAU         0.1120   -4.5960   -1.1730 h1        1 E4H      0.093700
     39 HAK1       -2.6000   -3.7680   -2.4680 hc        1 E4H      0.044200
     40 HAK2       -2.1000   -5.4780   -2.1290 hc        1 E4H      0.044200
     41 HAA1       -1.6440   -4.9880   -4.4770 hc        1 E4H      0.041033
     42 HAA2       -0.7140   -3.4910   -4.0450 hc        1 E4H      0.041033
     43 HAA3       -0.0510   -5.1120   -3.6090 hc        1 E4H      0.041033
     44 HAS         0.0760   -0.2670   -1.9150 hc        1 E4H      0.083700
     45 HAE1        0.5550   -0.7790   -4.2990 hc        1 E4H      0.050700
     46 HAE2        1.5880    0.5890   -3.6870 hc        1 E4H      0.050700
     47 HAE3        2.3050   -1.0630   -3.9010 hc        1 E4H      0.050700
     48 HAT         2.7150   -1.5190   -1.0320 h1        1 E4H      0.075700
     49 HOAH        3.8260    0.3780   -1.3190 ho        1 E4H      0.401000
@<TRIPOS>BOND
     1    1    2 1   
     2    1   22 1   
     3    1   23 1   
     4    1   24 1   
     5    2    3 1   
     6    2   20 1   
     7    2   25 1   
     8    3    4 1   
     9    3   26 1   
    10    3   27 1   
    11    4    5 1   
    12    4    6 1   
    13    4   28 1   
    14    5   29 1   
    15    5   30 1   
    16    5   31 1   
    17    6    7 2   
    18    6    8 1   
    19    8    9 2   
    20    8   32 1   
    21    9   10 1   
    22    9   33 1   
    23   10   11 1   
    24   10   12 1   
    25   10   34 1   
    26   11   35 1   
    27   11   36 1   
    28   11   37 1   
    29   12   13 1   
    30   12   15 1   
    31   12   38 1   
    32   13   14 1   
    33   13   39 1   
    34   13   40 1   
    35   14   41 1   
    36   14   42 1   
    37   14   43 1   
    38   15   16 1   
    39   16   17 2   
    40   16   18 1   
    41   18   19 1   
    42   18   20 1   
    43   18   44 1   
    44   19   45 1   
    45   19   46 1   
    46   19   47 1   
    47   20   21 1   
    48   20   48 1   
    49   21   49 1   
@<TRIPOS>SUBSTRUCTURE
     1 E4H         1 TEMP              0 ****  ****    0 ROOT
