@<TRIPOS>MOLECULE
E4H
   49    49     1     0     0
SMALL
bcc


@<TRIPOS>ATOM
      1 CAD         0.2140    0.3330    0.4720 c3        1 E4H     -0.094100
      2 CAR         1.6540   -0.0060    0.1730 c3        1 E4H     -0.082700
      3 CAL         2.4540   -0.3800    1.4180 c3        1 E4H     -0.066400
      4 CAQ         1.9520   -1.3930    2.4410 c3        1 E4H     -0.151700
      5 CAC         0.7960   -0.9080    3.2840 c3        1 E4H     -0.092100
      6 CAN         1.7310   -2.7820    1.8760 c         1 E4H      0.565300
      7 OAF         2.6640   -3.5970    1.8790 o         1 E4H     -0.533100
      8 CAI         0.4030   -3.1300    1.3410 ce        1 E4H     -0.258200
      9 CAJ         0.2440   -4.0990    0.4290 c2        1 E4H     -0.086200
     10 CAP        -1.0340   -4.4330   -0.2610 c3        1 E4H     -0.050500
     11 CAB        -2.2430   -3.7740    0.3660 c3        1 E4H     -0.092100
     12 CAU        -0.9030   -4.0780   -1.7580 c3        1 E4H      0.154100
     13 CAK        -2.1900   -4.3540   -2.5250 c3        1 E4H     -0.092400
     14 CAA        -1.9310   -4.5380   -3.9980 c3        1 E4H     -0.098100
     15 OAM        -0.6150   -2.6670   -1.8150 os        1 E4H     -0.453900
     16 CAO         0.4360   -2.2420   -2.5880 c         1 E4H      0.640100
     17 OAG         0.8440   -2.9660   -3.4930 o         1 E4H     -0.523000
     18 CAS         0.9210   -0.8800   -2.1490 c3        1 E4H     -0.138700
     19 CAE         1.6230   -0.1790   -3.2890 c3        1 E4H     -0.096100
     20 CAT         1.8210   -1.0840   -0.9110 c3        1 E4H      0.139100
     21 OAH         3.1840   -1.2050   -1.2780 oh        1 E4H     -0.581800
     22 HAD1       -0.2110    0.9990   -0.3190 hc        1 E4H      0.041367
     23 HAD2        0.1450    0.8820    1.4430 hc        1 E4H      0.041367
     24 HAD3       -0.4120   -0.5920    0.5290 hc        1 E4H      0.041367
     25 HAR         2.1430    0.9320   -0.2320 hc        1 E4H      0.041700
     26 HAL1        3.4560   -0.7520    1.0590 hc        1 E4H      0.055700
     27 HAL2        2.6310    0.5750    1.9880 hc        1 E4H      0.055700
     28 HAQ         2.8280   -1.5120    3.1590 hc        1 E4H      0.072700
     29 HAC1        1.0440    0.0880    3.7260 hc        1 E4H      0.039700
     30 HAC2       -0.1490   -0.8010    2.7010 hc        1 E4H      0.039700
     31 HAC3        0.6070   -1.6270    4.1180 hc        1 E4H      0.039700
     32 HAI        -0.4440   -2.5270    1.7010 ha        1 E4H      0.142000
     33 HAJ         1.1160   -4.6960    0.1000 ha        1 E4H      0.144000
     34 HAP        -1.1690   -5.5540   -0.2090 hc        1 E4H      0.069700
     35 HAB1       -2.2710   -3.9770    1.4640 hc        1 E4H      0.042700
     36 HAB2       -3.1810   -4.1730   -0.0910 hc        1 E4H      0.042700
     37 HAB3       -2.2120   -2.6690    0.2020 hc        1 E4H      0.042700
     38 HAU        -0.0490   -4.6590   -2.2070 h1        1 E4H      0.078700
     39 HAK1       -2.6690   -5.2780   -2.1060 hc        1 E4H      0.051700
     40 HAK2       -2.8990   -3.4990   -2.3650 hc        1 E4H      0.051700
     41 HAA1       -1.3640   -5.4820   -4.1850 hc        1 E4H      0.042033
     42 HAA2       -1.3250   -3.6870   -4.3960 hc        1 E4H      0.042033
     43 HAA3       -2.8960   -4.5880   -4.5580 hc        1 E4H      0.042033
     44 HAS         0.0110   -0.2870   -1.8560 hc        1 E4H      0.088700
     45 HAE1        0.9090   -0.0010   -4.1290 hc        1 E4H      0.051700
     46 HAE2        2.4670   -0.8040   -3.6730 hc        1 E4H      0.051700
     47 HAE3        2.0220    0.8040   -2.9420 hc        1 E4H      0.051700
     48 HAT         1.5850   -2.0930   -0.4570 h1        1 E4H      0.091700
     49 HOAH        3.4830   -0.3460   -1.6010 ho        1 E4H      0.398000
@<TRIPOS>BOND
     1    1    2 1   
     2    1   22 1   
     3    1   23 1   
     4    1   24 1   
     5    2    3 1   
     6    2   20 1   
     7    2   25 1   
     8    3    4 1   
     9    3   26 1   
    10    3   27 1   
    11    4    5 1   
    12    4    6 1   
    13    4   28 1   
    14    5   29 1   
    15    5   30 1   
    16    5   31 1   
    17    6    7 2   
    18    6    8 1   
    19    8    9 2   
    20    8   32 1   
    21    9   10 1   
    22    9   33 1   
    23   10   11 1   
    24   10   12 1   
    25   10   34 1   
    26   11   35 1   
    27   11   36 1   
    28   11   37 1   
    29   12   13 1   
    30   12   15 1   
    31   12   38 1   
    32   13   14 1   
    33   13   39 1   
    34   13   40 1   
    35   14   41 1   
    36   14   42 1   
    37   14   43 1   
    38   15   16 1   
    39   16   17 2   
    40   16   18 1   
    41   18   19 1   
    42   18   20 1   
    43   18   44 1   
    44   19   45 1   
    45   19   46 1   
    46   19   47 1   
    47   20   21 1   
    48   20   48 1   
    49   21   49 1   
@<TRIPOS>SUBSTRUCTURE
     1 E4H         1 TEMP              0 ****  ****    0 ROOT
