@<TRIPOS>MOLECULE
E4N
   29    28     1     0     0
SMALL
bcc


@<TRIPOS>ATOM
      1 N          -0.0000   -0.0000   -0.0000 n4        1 E4N     -0.611800
      2 C11         1.5070    0.0800    0.0390 c3        1 E4N      0.114800
      3 C12         2.1320    0.1220    1.4160 c3        1 E4N     -0.127100
      4 C21        -0.4820   -1.2740    0.6490 c3        1 E4N      0.114800
      5 C22        -0.0400   -2.5620   -0.0100 c3        1 E4N     -0.127100
      6 C31        -0.6130    1.1490    0.7630 c3        1 E4N      0.114800
      7 C32        -0.2000    2.5350    0.3180 c3        1 E4N     -0.127100
      8 C41        -0.4110    0.0460   -1.4520 c3        1 E4N      0.114800
      9 C42        -1.8930   -0.0950   -1.7250 c3        1 E4N     -0.127100
     10 H111        1.8030    1.0080   -0.5320 hx        1 E4N      0.095700
     11 H112        1.9000   -0.8170   -0.5220 hx        1 E4N      0.095700
     12 H121        1.8160    1.0260    1.9920 hc        1 E4N      0.074367
     13 H122        1.9010   -0.7920    2.0130 hc        1 E4N      0.074367
     14 H123        3.2440    0.1720    1.2790 hc        1 E4N      0.074367
     15 H211       -0.1200   -1.2580    1.7180 hx        1 E4N      0.095700
     16 H212       -1.6100   -1.2320    0.6610 hx        1 E4N      0.095700
     17 H221       -0.4230   -2.6510   -1.0550 hc        1 E4N      0.074367
     18 H222       -0.4670   -3.4100    0.5870 hc        1 E4N      0.074367
     19 H223        1.0710   -2.6740   -0.0160 hc        1 E4N      0.074367
     20 H311       -0.3360    1.0100    1.8480 hx        1 E4N      0.095700
     21 H312       -1.7340    1.0460    0.6720 hx        1 E4N      0.095700
     22 H321       -0.7400    3.2720    0.9680 hc        1 E4N      0.074367
     23 H322        0.8970    2.7050    0.4430 hc        1 E4N      0.074367
     24 H323       -0.4840    2.7410   -0.7420 hc        1 E4N      0.074367
     25 H411        0.1430   -0.7850   -1.9780 hx        1 E4N      0.095700
     26 H412       -0.0470    1.0290   -1.8680 hx        1 E4N      0.095700
     27 H421       -2.0380   -0.0340   -2.8350 hc        1 E4N      0.074367
     28 H422       -2.4890    0.7250   -1.2560 hc        1 E4N      0.074367
     29 H423       -2.2910   -1.0800   -1.3800 hc        1 E4N      0.074367
@<TRIPOS>BOND
     1    1    2 1   
     2    1    4 1   
     3    1    6 1   
     4    1    8 1   
     5    2    3 1   
     6    2   10 1   
     7    2   11 1   
     8    3   12 1   
     9    3   13 1   
    10    3   14 1   
    11    4    5 1   
    12    4   15 1   
    13    4   16 1   
    14    5   17 1   
    15    5   18 1   
    16    5   19 1   
    17    6    7 1   
    18    6   20 1   
    19    6   21 1   
    20    7   22 1   
    21    7   23 1   
    22    7   24 1   
    23    8    9 1   
    24    8   25 1   
    25    8   26 1   
    26    9   27 1   
    27    9   28 1   
    28    9   29 1   
@<TRIPOS>SUBSTRUCTURE
     1 E4N         1 TEMP              0 ****  ****    0 ROOT
