@<TRIPOS>MOLECULE
E4N
   29    28     1     0     0
SMALL
bcc


@<TRIPOS>ATOM
      1 N          -0.0000   -0.0000   -0.0000 n4        1 E4N     -0.611800
      2 C11         1.5080   -0.0290   -0.0570 c3        1 E4N      0.114800
      3 C12         2.2200   -0.0540    1.2770 c3        1 E4N     -0.127100
      4 C21        -0.5250   -1.1720    0.7940 c3        1 E4N      0.114800
      5 C22        -0.0930   -2.5420    0.3170 c3        1 E4N     -0.127100
      6 C31        -0.4830    1.2540    0.6860 c3        1 E4N      0.114800
      7 C32        -0.1260    2.5590    0.0070 c3        1 E4N     -0.127100
      8 C41        -0.5010   -0.0550   -1.4230 c3        1 E4N      0.114800
      9 C42        -2.0010    0.0370   -1.6010 c3        1 E4N     -0.127100
     10 H111        1.8340    0.8820   -0.6380 hx        1 E4N      0.095700
     11 H112        1.7980   -0.9450   -0.6500 hx        1 E4N      0.095700
     12 H121        3.3220   -0.0660    1.0710 hc        1 E4N      0.074367
     13 H122        1.9720   -0.9690    1.8680 hc        1 E4N      0.074367
     14 H123        1.9970    0.8510    1.8930 hc        1 E4N      0.074367
     15 H211       -1.6510   -1.1080    0.7740 hx        1 E4N      0.095700
     16 H212       -0.1840   -1.0270    1.8600 hx        1 E4N      0.095700
     17 H221       -0.5660   -3.2990    0.9950 hc        1 E4N      0.074367
     18 H222       -0.4350   -2.7540   -0.7250 hc        1 E4N      0.074367
     19 H223        1.0140   -2.6750    0.3720 hc        1 E4N      0.074367
     20 H311       -1.6060    1.1750    0.7680 hx        1 E4N      0.095700
     21 H312       -0.0540    1.2470    1.7300 hx        1 E4N      0.095700
     22 H321       -0.5760    2.6380   -1.0120 hc        1 E4N      0.074367
     23 H322       -0.5430    3.3900    0.6340 hc        1 E4N      0.074367
     24 H323        0.9780    2.7080   -0.0680 hc        1 E4N      0.074367
     25 H411       -0.1310   -1.0240   -1.8670 hx        1 E4N      0.095700
     26 H412       -0.0090    0.7950   -1.9790 hx        1 E4N      0.095700
     27 H421       -2.5380   -0.8030   -1.0990 hc        1 E4N      0.074367
     28 H422       -2.4080    1.0080   -1.2280 hc        1 E4N      0.074367
     29 H423       -2.2140   -0.0260   -2.7000 hc        1 E4N      0.074367
@<TRIPOS>BOND
     1    1    2 1   
     2    1    4 1   
     3    1    6 1   
     4    1    8 1   
     5    2    3 1   
     6    2   10 1   
     7    2   11 1   
     8    3   12 1   
     9    3   13 1   
    10    3   14 1   
    11    4    5 1   
    12    4   15 1   
    13    4   16 1   
    14    5   17 1   
    15    5   18 1   
    16    5   19 1   
    17    6    7 1   
    18    6   20 1   
    19    6   21 1   
    20    7   22 1   
    21    7   23 1   
    22    7   24 1   
    23    8    9 1   
    24    8   25 1   
    25    8   26 1   
    26    9   27 1   
    27    9   28 1   
    28    9   29 1   
@<TRIPOS>SUBSTRUCTURE
     1 E4N         1 TEMP              0 ****  ****    0 ROOT
