@<TRIPOS>MOLECULE
E4N
   29    28     1     0     0
SMALL
bcc


@<TRIPOS>ATOM
      1 N          -0.0000    0.0000    0.0000 n4        1 E4N     -0.611800
      2 C11        -0.0010    1.2140   -0.8960 c3        1 E4N      0.114800
      3 C12        -0.0020    2.5550   -0.1960 c3        1 E4N     -0.127100
      4 C21         1.2140    0.0010    0.8970 c3        1 E4N      0.114800
      5 C22         2.5550    0.0020    0.1960 c3        1 E4N     -0.127100
      6 C31        -1.2140   -0.0010    0.8970 c3        1 E4N      0.114800
      7 C32        -2.5550   -0.0020    0.1960 c3        1 E4N     -0.127100
      8 C41         0.0010   -1.2140   -0.8960 c3        1 E4N      0.114800
      9 C42         0.0020   -2.5550   -0.1960 c3        1 E4N     -0.127100
     10 H111       -0.9140    1.1380   -1.5550 hx        1 E4N      0.095700
     11 H112        0.9130    1.1390   -1.5550 hx        1 E4N      0.095700
     12 H121       -0.0030    3.3490   -0.9870 hc        1 E4N      0.074033
     13 H122       -0.9120    2.6990    0.4350 hc        1 E4N      0.074033
     14 H123        0.9080    2.7000    0.4350 hc        1 E4N      0.074033
     15 H211        1.1380    0.9140    1.5550 hx        1 E4N      0.095700
     16 H212        1.1390   -0.9120    1.5560 hx        1 E4N      0.095700
     17 H221        3.3490    0.0030    0.9880 hc        1 E4N      0.074033
     18 H222        2.7000   -0.9080   -0.4350 hc        1 E4N      0.074033
     19 H223        2.6990    0.9120   -0.4350 hc        1 E4N      0.074033
     20 H311       -1.1380   -0.9140    1.5550 hx        1 E4N      0.095700
     21 H312       -1.1390    0.9120    1.5550 hx        1 E4N      0.095700
     22 H321       -2.7000    0.9080   -0.4350 hc        1 E4N      0.074033
     23 H322       -2.6990   -0.9120   -0.4350 hc        1 E4N      0.074033
     24 H323       -3.3490   -0.0030    0.9870 hc        1 E4N      0.074033
     25 H411       -0.9120   -1.1390   -1.5550 hx        1 E4N      0.095700
     26 H412        0.9140   -1.1380   -1.5550 hx        1 E4N      0.095700
     27 H421       -0.9080   -2.7000    0.4350 hc        1 E4N      0.074033
     28 H422        0.0030   -3.3490   -0.9870 hc        1 E4N      0.074033
     29 H423        0.9120   -2.6990    0.4350 hc        1 E4N      0.074033
@<TRIPOS>BOND
     1    1    2 1   
     2    1    4 1   
     3    1    6 1   
     4    1    8 1   
     5    2    3 1   
     6    2   10 1   
     7    2   11 1   
     8    3   12 1   
     9    3   13 1   
    10    3   14 1   
    11    4    5 1   
    12    4   15 1   
    13    4   16 1   
    14    5   17 1   
    15    5   18 1   
    16    5   19 1   
    17    6    7 1   
    18    6   20 1   
    19    6   21 1   
    20    7   22 1   
    21    7   23 1   
    22    7   24 1   
    23    8    9 1   
    24    8   25 1   
    25    8   26 1   
    26    9   27 1   
    27    9   28 1   
    28    9   29 1   
@<TRIPOS>SUBSTRUCTURE
     1 E4N         1 TEMP              0 ****  ****    0 ROOT
