@<TRIPOS>MOLECULE
E4N
   29    28     1     0     0
SMALL
bcc


@<TRIPOS>ATOM
      1 N          -0.0000    0.0000   -0.0000 n4        1 E4N     -0.611800
      2 C11         1.5040    0.0980    0.0750 c3        1 E4N      0.114800
      3 C12         2.0980    0.1130    1.4670 c3        1 E4N     -0.127100
      4 C21        -0.4800   -1.2950    0.6070 c3        1 E4N      0.114800
      5 C22        -0.0050   -2.5610   -0.0720 c3        1 E4N     -0.127100
      6 C31        -0.6460    1.1220    0.7760 c3        1 E4N      0.114800
      7 C32        -0.2390    2.5240    0.3760 c3        1 E4N     -0.127100
      8 C41        -0.3790    0.0760   -1.4590 c3        1 E4N      0.114800
      9 C42        -1.8520   -0.0770   -1.7700 c3        1 E4N     -0.127100
     10 H111        1.8010    1.0440   -0.4650 hx        1 E4N      0.095700
     11 H112        1.9220   -0.7790   -0.4990 hx        1 E4N      0.095700
     12 H121        1.7560    0.9970    2.0580 hc        1 E4N      0.074367
     13 H122        1.8660   -0.8190    2.0350 hc        1 E4N      0.074367
     14 H123        3.2110    0.1810    1.3570 hc        1 E4N      0.074367
     15 H211       -0.1440   -1.3010    1.6840 hx        1 E4N      0.095700
     16 H212       -1.6090   -1.2680    0.5930 hx        1 E4N      0.095700
     17 H221       -0.3620   -2.6290   -1.1280 hc        1 E4N      0.074367
     18 H222       -0.4350   -3.4280    0.4930 hc        1 E4N      0.074367
     19 H223        1.1070   -2.6580   -0.0540 hc        1 E4N      0.074367
     20 H311       -0.3920    0.9600    1.8640 hx        1 E4N      0.095700
     21 H312       -1.7620    1.0090    0.6560 hx        1 E4N      0.095700
     22 H321       -0.8040    3.2380    1.0300 hc        1 E4N      0.074367
     23 H322        0.8520    2.7040    0.5320 hc        1 E4N      0.074367
     24 H323       -0.4990    2.7530   -0.6860 hc        1 E4N      0.074367
     25 H411        0.1990   -0.7330   -1.9930 hx        1 E4N      0.095700
     26 H412       -0.0190    1.0750   -1.8430 hx        1 E4N      0.095700
     27 H421       -1.9730    0.0100   -2.8810 hc        1 E4N      0.074367
     28 H422       -2.4700    0.7210   -1.2940 hc        1 E4N      0.074367
     29 H423       -2.2430   -1.0770   -1.4600 hc        1 E4N      0.074367
@<TRIPOS>BOND
     1    1    2 1   
     2    1    4 1   
     3    1    6 1   
     4    1    8 1   
     5    2    3 1   
     6    2   10 1   
     7    2   11 1   
     8    3   12 1   
     9    3   13 1   
    10    3   14 1   
    11    4    5 1   
    12    4   15 1   
    13    4   16 1   
    14    5   17 1   
    15    5   18 1   
    16    5   19 1   
    17    6    7 1   
    18    6   20 1   
    19    6   21 1   
    20    7   22 1   
    21    7   23 1   
    22    7   24 1   
    23    8    9 1   
    24    8   25 1   
    25    8   26 1   
    26    9   27 1   
    27    9   28 1   
    28    9   29 1   
@<TRIPOS>SUBSTRUCTURE
     1 E4N         1 TEMP              0 ****  ****    0 ROOT
