@<TRIPOS>MOLECULE
E4N
   29    28     1     0     0
SMALL
bcc


@<TRIPOS>ATOM
      1 N           0.0000   -0.0000    0.0000 n4        1 E4N     -0.611800
      2 C11         1.4520   -0.0000    0.0000 c3        1 E4N      0.114800
      3 C12         1.9620   -0.0000    1.4430 c3        1 E4N     -0.127100
      4 C21        -0.4860   -1.1190    0.7880 c3        1 E4N      0.114800
      5 C22        -0.0820   -2.4320    0.1110 c3        1 E4N     -0.127100
      6 C31        -0.4860    1.2410    0.5780 c3        1 E4N      0.114800
      7 C32         0.1260    2.4260   -0.1730 c3        1 E4N     -0.127100
      8 C41        -0.4810   -0.1210   -1.3650 c3        1 E4N      0.114800
      9 C42        -2.0060    0.0050   -1.3820 c3        1 E4N     -0.127100
     10 H111        1.7780   -0.7970   -0.4600 hx        1 E4N      0.095700
     11 H112        1.7780    0.7970   -0.4600 hx        1 E4N      0.095700
     12 H121        2.0770   -0.9200    1.7480 hc        1 E4N      0.074367
     13 H122        2.8190    0.4660    1.4860 hc        1 E4N      0.074367
     14 H123        1.3160    0.4540    2.0170 hc        1 E4N      0.074367
     15 H211       -0.0970   -1.0810    1.6820 hx        1 E4N      0.095700
     16 H212       -1.4590   -1.0730    0.8540 hx        1 E4N      0.095700
     17 H221        0.7500   -2.3010   -0.3820 hc        1 E4N      0.074367
     18 H222        0.0460   -3.1210    0.7900 hc        1 E4N      0.074367
     19 H223       -0.7860   -2.7100   -0.5060 hc        1 E4N      0.074367
     20 H311       -1.4590    1.2760    0.5030 hx        1 E4N      0.095700
     21 H312       -0.2300    1.2840    1.5190 hx        1 E4N      0.095700
     22 H321       -0.4970    3.1780   -0.1570 hc        1 E4N      0.074367
     23 H322        0.3040    2.1700   -1.0980 hc        1 E4N      0.074367
     24 H323        0.9620    2.6880    0.2580 hc        1 E4N      0.074367
     25 H411       -0.2230   -0.9910   -1.7250 hx        1 E4N      0.095700
     26 H412       -0.0890    0.5860   -1.9120 hx        1 E4N      0.095700
     27 H421       -2.3680   -0.5230   -2.1180 hc        1 E4N      0.074367
     28 H422       -2.2530    0.9420   -1.5000 hc        1 E4N      0.074367
     29 H423       -2.3690   -0.3220   -0.5370 hc        1 E4N      0.074367
@<TRIPOS>BOND
     1    1    2 1   
     2    1    4 1   
     3    1    6 1   
     4    1    8 1   
     5    2    3 1   
     6    2   10 1   
     7    2   11 1   
     8    3   12 1   
     9    3   13 1   
    10    3   14 1   
    11    4    5 1   
    12    4   15 1   
    13    4   16 1   
    14    5   17 1   
    15    5   18 1   
    16    5   19 1   
    17    6    7 1   
    18    6   20 1   
    19    6   21 1   
    20    7   22 1   
    21    7   23 1   
    22    7   24 1   
    23    8    9 1   
    24    8   25 1   
    25    8   26 1   
    26    9   27 1   
    27    9   28 1   
    28    9   29 1   
@<TRIPOS>SUBSTRUCTURE
     1 E4N         1 TEMP              0 ****  ****    0 ROOT
