@<TRIPOS>MOLECULE
E4P
   19    17     1     0     0
SMALL
bcc


@<TRIPOS>ATOM
      1 C1         -2.5680   -0.8190    1.1850 c1        1 E4P      0.178000
      2 O1         -3.0030   -0.2750    2.1830 o         1 E4P     -0.347000
      3 C2         -1.0740   -0.9530    0.9880 c2        1 E4P     -0.022000
      4 O2         -0.4540   -1.1660    2.2330 oh        1 E4P     -0.344000
      5 C3         -0.5330    0.3130    0.3640 c3        1 E4P     -0.058000
      6 O3         -1.5400    0.9250   -0.4050 oh        1 E4P     -0.396000
      7 C4          0.6440   -0.0260   -0.5230 c3        1 E4P      0.068000
      8 O4          1.2690    1.1630   -0.9480 os        1 E4P     -0.723000
      9 P           2.6280    1.0550   -1.7470 p5        1 E4P      1.544500
     10 O1P         3.7240    0.5940   -0.8160 o         1 E4P     -0.927833
     11 O2P         2.9860    2.4070   -2.3160 o         1 E4P     -0.927833
     12 O3P         2.4730    0.0610   -2.8730 o         1 E4P     -0.927833
     13 H1         -3.1830   -1.1680    0.5110 ha        1 E4P      0.097000
     14 H2         -0.8910   -1.7110    0.3980 h4        1 E4P      0.097000
     15 HO2        -0.4060   -2.0390    2.3950 ho        1 E4P      0.238000
     16 H3         -0.2440    0.9250    1.0690 h1        1 E4P      0.136000
     17 HO3        -1.4430    1.8090   -0.3720 ho        1 E4P      0.249000
     18 H41         1.2850   -0.5700   -0.0210 h1        1 E4P      0.033000
     19 H42         0.3300   -0.5270   -1.3040 h1        1 E4P      0.033000
@<TRIPOS>BOND
     1    1    2 1   
     2    1   13 1   
     3    3    4 1   
     4    3    5 1   
     5    3   14 1   
     6    4   15 1   
     7    5    6 1   
     8    5    7 1   
     9    5   16 1   
    10    6   17 1   
    11    7    8 1   
    12    7   18 1   
    13    7   19 1   
    14    8    9 1   
    15    9   10 1   
    16    9   11 1   
    17    9   12 1   
@<TRIPOS>SUBSTRUCTURE
     1 E4P         1 TEMP              0 ****  ****    0 ROOT
