@<TRIPOS>MOLECULE
E4P
   19    18     1     0     0
SMALL
bcc


@<TRIPOS>ATOM
      1 C1         -0.0130    0.6490   -3.7020 c         1 E4P      0.559900
      2 O1         -0.7030    0.9000   -4.6950 o         1 E4P     -0.586100
      3 C2         -0.4330   -0.2240   -2.5440 c3        1 E4P      0.039100
      4 O2         -1.8450   -0.2410   -2.4210 oh        1 E4P     -0.616800
      5 C3          0.2570    0.2220   -1.2470 c3        1 E4P      0.053100
      6 O3          1.6540    0.3070   -1.5050 oh        1 E4P     -0.668800
      7 C4         -0.0150   -0.7780   -0.0900 c3        1 E4P      0.218400
      8 O4          0.7710   -0.4620    0.9810 os        1 E4P     -0.561200
      9 P          -0.1460    0.3090    2.2770 p5        1 E4P      1.310900
     10 O1P        -1.0020   -0.8280    2.7560 o         1 E4P     -0.927833
     11 O2P         0.9390    0.7950    3.1910 o         1 E4P     -0.927833
     12 O3P        -0.8590    1.3360    1.4340 o         1 E4P     -0.927833
     13 H1          1.0250    1.0490   -3.6110 h4        1 E4P      0.004200
     14 H2         -0.1230   -1.2800   -2.7990 h1        1 E4P      0.057700
     15 HO2        -2.0670    0.1640   -1.5680 ho        1 E4P      0.439000
     16 H3         -0.1170    1.2420   -0.9410 h1        1 E4P      0.096700
     17 HO3         2.0730    0.1980   -0.6340 ho        1 E4P      0.450000
     18 H41        -1.1100   -0.7430    0.1700 h1        1 E4P     -0.006300
     19 H42         0.2470   -1.8100   -0.4730 h1        1 E4P     -0.006300
@<TRIPOS>BOND
     1    1    2 2   
     2    1    3 1   
     3    1   13 1   
     4    3    4 1   
     5    3    5 1   
     6    3   14 1   
     7    4   15 1   
     8    5    6 1   
     9    5    7 1   
    10    5   16 1   
    11    6   17 1   
    12    7    8 1   
    13    7   18 1   
    14    7   19 1   
    15    8    9 1   
    16    9   10 1   
    17    9   11 1   
    18    9   12 1   
@<TRIPOS>SUBSTRUCTURE
     1 E4P         1 TEMP              0 ****  ****    0 ROOT
