@<TRIPOS>MOLECULE
E50
   38    39     1     0     0
SMALL
bcc


@<TRIPOS>ATOM
      1 N1          2.5490   -1.0410    1.3490 nb        1 E50     -0.691000
      2 C2          2.8310    0.2440    0.9700 ca        1 E50      0.706300
      3 N3          2.1290    1.3590    1.3350 nb        1 E50     -0.691000
      4 C4          1.0620    1.1600    2.1310 ca        1 E50      0.441200
      5 C5          0.6730   -0.1220    2.5790 ca        1 E50     -0.286900
      6 C6          1.4760   -1.2020    2.1460 ca        1 E50      0.441200
      7 S7          4.2170    0.4120   -0.0560 ss        1 E50     -0.237400
      8 C8          4.3160    2.1440   -0.4060 c3        1 E50     -0.146300
      9 C9          5.3960    2.3470   -1.4180 c         1 E50      0.590700
     10 O10         5.4330    3.3200   -2.1710 o         1 E50     -0.473100
     11 C11        -0.5010   -0.3190    3.4590 c3        1 E50     -0.035100
     12 C12        -1.8010   -0.0040    2.7580 c3        1 E50     -0.094100
     13 C13         6.4370    1.2830   -1.4970 ca        1 E50     -0.191600
     14 C14         6.8910    0.8780   -2.7480 ca        1 E50      0.056000
     15 C15         7.8520   -0.1500   -2.9020 ca        1 E50     -0.545500
     16 C16         8.3780   -0.7120   -1.7100 ca        1 E50      0.147400
     17 C17         7.9370   -0.3090   -0.4550 ca        1 E50     -0.144000
     18 C18         6.9590    0.6860   -0.3400 ca        1 E50      0.052000
     19 S19         8.1780   -0.6370   -4.4040 sy        1 E50      1.484200
     20 O20         8.3190   -1.9880   -4.6160 o         1 E50     -0.556800
     21 CL21        9.6020   -1.8790   -1.8070 cl        1 E50     -0.035400
     22 O22         7.6470    0.1750   -5.3840 o         1 E50     -0.556800
     23 N23        10.0080   -0.0950   -4.4650 n4        1 E50     -0.788500
     24 H4          0.4940    2.0640    2.4210 h4        1 E50      0.042600
     25 H6          1.2510   -2.2420    2.4490 h4        1 E50      0.042600
     26 H8          4.5490    2.7360    0.5170 h1        1 E50      0.129200
     27 H8A         3.3480    2.5480   -0.8040 h1        1 E50      0.129200
     28 H11        -0.5250   -1.3800    3.8290 hc        1 E50      0.060200
     29 H11A       -0.3950    0.3430    4.3630 hc        1 E50      0.060200
     30 H12        -2.6550   -0.1380    3.4660 hc        1 E50      0.044367
     31 H12A       -1.9560   -0.6830    1.8850 hc        1 E50      0.044367
     32 H12B       -1.8070    1.0500    2.3900 hc        1 E50      0.044367
     33 H14         6.4750    1.3790   -3.6490 ha        1 E50      0.195000
     34 H17         8.3510   -0.7740    0.4580 ha        1 E50      0.192000
     35 H18         6.6210    1.0090    0.6640 ha        1 E50      0.193000
     36 HN23       10.3200    0.3310   -3.5970 hn        1 E50      0.459467
     37 HN2A       10.6100   -0.8960   -4.6530 hn        1 E50      0.459467
     38 H233       10.1500    0.5830   -5.2140 hn        1 E50      0.459467
@<TRIPOS>BOND
     1    1    2 ar  
     2    1    6 ar  
     3    2    3 ar  
     4    2    7 1   
     5    3    4 ar  
     6    4    5 ar  
     7    4   24 1   
     8    5    6 ar  
     9    5   11 1   
    10    6   25 1   
    11    7    8 1   
    12    8    9 1   
    13    8   26 1   
    14    8   27 1   
    15    9   10 2   
    16    9   13 1   
    17   11   12 1   
    18   11   28 1   
    19   11   29 1   
    20   12   30 1   
    21   12   31 1   
    22   12   32 1   
    23   13   14 ar  
    24   13   18 ar  
    25   14   15 ar  
    26   14   33 1   
    27   15   16 ar  
    28   15   19 1   
    29   16   17 ar  
    30   16   21 1   
    31   17   18 ar  
    32   17   34 1   
    33   18   35 1   
    34   19   20 2   
    35   19   22 2   
    36   19   23 1   
    37   23   36 1   
    38   23   37 1   
    39   23   38 1   
@<TRIPOS>SUBSTRUCTURE
     1 E50         1 TEMP              0 ****  ****    0 ROOT
