@<TRIPOS>MOLECULE
E50
   38    39     1     0     0
SMALL
bcc


@<TRIPOS>ATOM
      1 N1          2.5020   -1.0790    1.2660 nb        1 E50     -0.691000
      2 C2          2.8270    0.2170    0.9650 ca        1 E50      0.706300
      3 N3          2.1620    1.3300    1.3970 nb        1 E50     -0.691000
      4 C4          1.0890    1.1190    2.1820 ca        1 E50      0.441200
      5 C5          0.6570   -0.1740    2.5520 ca        1 E50     -0.286900
      6 C6          1.4240   -1.2510    2.0530 ca        1 E50      0.441200
      7 S7          4.2180    0.4010   -0.0520 ss        1 E50     -0.237400
      8 C8          4.3740    2.1470   -0.2970 c3        1 E50     -0.146300
      9 C9          5.4600    2.3750   -1.2960 c         1 E50      0.590700
     10 O10         5.5280    3.3890   -1.9910 o         1 E50     -0.473100
     11 C11        -0.5230   -0.3850    3.4210 c3        1 E50     -0.035100
     12 C12        -1.8120    0.0170    2.7430 c3        1 E50     -0.094100
     13 C13         6.4680    1.2850   -1.4400 ca        1 E50     -0.191600
     14 C14         6.9110    0.9430   -2.7130 ca        1 E50      0.056000
     15 C15         7.8400   -0.1040   -2.9280 ca        1 E50     -0.545500
     16 C16         8.3460   -0.7520   -1.7730 ca        1 E50      0.147400
     17 C17         7.9150   -0.4130   -0.4950 ca        1 E50     -0.144000
     18 C18         6.9690    0.6040   -0.3200 ca        1 E50      0.052000
     19 S19         8.1540   -0.5100   -4.4570 sy        1 E50      1.484200
     20 O20         8.2520   -1.8490   -4.7500 o         1 E50     -0.556800
     21 Cl21        9.5330   -1.9500   -1.9400 cl        1 E50     -0.035400
     22 O22         7.6500    0.3770   -5.3860 o         1 E50     -0.556800
     23 N23        10.0000   -0.0220   -4.4850 nz        1 E50     -0.788500
     24 H4          0.5510    2.0230    2.5270 h4        1 E50      0.042600
     25 H6          1.1650   -2.3000    2.2930 h4        1 E50      0.042600
     26 H8          4.6260    2.6740    0.6600 h1        1 E50      0.129200
     27 H8A         3.4200    2.6050   -0.6690 h1        1 E50      0.129200
     28 H11        -0.5830   -1.4650    3.7250 hc        1 E50      0.060200
     29 H11A       -0.3950    0.2170    4.3630 hc        1 E50      0.060200
     30 H12        -2.6690   -0.1320    3.4430 hc        1 E50      0.044367
     31 H12A       -1.9900   -0.6010    1.8300 hc        1 E50      0.044367
     32 H12B       -1.7810    1.0910    2.4410 hc        1 E50      0.044367
     33 H14         6.5130    1.5100   -3.5820 ha        1 E50      0.195000
     34 H17         8.3130   -0.9450    0.3880 ha        1 E50      0.192000
     35 H18         6.6390    0.8760    0.7020 ha        1 E50      0.193000
     36 HN23       10.3230    0.3410   -3.5930 hn        1 E50      0.459467
     37 HN2A       10.5770   -0.8290   -4.7210 hn        1 E50      0.459467
     38 H233       10.1650    0.6950   -5.1920 hn        1 E50      0.459467
@<TRIPOS>BOND
     1    1    2 ar  
     2    1    6 ar  
     3    2    3 ar  
     4    2    7 1   
     5    3    4 ar  
     6    4    5 ar  
     7    4   24 1   
     8    5    6 ar  
     9    5   11 1   
    10    6   25 1   
    11    7    8 1   
    12    8    9 1   
    13    8   26 1   
    14    8   27 1   
    15    9   10 2   
    16    9   13 1   
    17   11   12 1   
    18   11   28 1   
    19   11   29 1   
    20   12   30 1   
    21   12   31 1   
    22   12   32 1   
    23   13   14 ar  
    24   13   18 ar  
    25   14   15 ar  
    26   14   33 1   
    27   15   16 ar  
    28   15   19 1   
    29   16   17 ar  
    30   16   21 1   
    31   17   18 ar  
    32   17   34 1   
    33   18   35 1   
    34   19   20 2   
    35   19   22 2   
    36   19   23 1   
    37   23   36 1   
    38   23   37 1   
    39   23   38 1   
@<TRIPOS>SUBSTRUCTURE
     1 E50         1 TEMP              0 ****  ****    0 ROOT
