@<TRIPOS>MOLECULE
E50
   38    39     1     0     0
SMALL
bcc


@<TRIPOS>ATOM
      1 N1          2.5220   -1.0950    1.2750 nb        1 E50     -0.691000
      2 C2          2.8310    0.2040    0.9680 ca        1 E50      0.706300
      3 N3          2.1530    1.3110    1.3960 nb        1 E50     -0.691000
      4 C4          1.0830    1.0900    2.1830 ca        1 E50      0.441200
      5 C5          0.6680   -0.2070    2.5600 ca        1 E50     -0.286900
      6 C6          1.4480   -1.2770    2.0650 ca        1 E50      0.441200
      7 S7          4.2180    0.4000   -0.0510 ss        1 E50     -0.237400
      8 C8          4.3530    2.1460   -0.3040 c3        1 E50     -0.146300
      9 C9          5.4350    2.3840   -1.3060 c         1 E50      0.590700
     10 O10         5.4900    3.3960   -2.0050 o         1 E50     -0.473100
     11 C11        -0.5080   -0.4280    3.4310 c3        1 E50     -0.035100
     12 C12        -1.8030   -0.0470    2.7520 c3        1 E50     -0.094100
     13 C13         6.4550    1.3050   -1.4460 ca        1 E50     -0.191600
     14 C14         6.9000    0.9620   -2.7190 ca        1 E50      0.056000
     15 C15         7.8400   -0.0750   -2.9310 ca        1 E50     -0.545500
     16 C16         8.3550   -0.7120   -1.7740 ca        1 E50      0.147400
     17 C17         7.9230   -0.3720   -0.4970 ca        1 E50     -0.144000
     18 C18         6.9660    0.6340   -0.3250 ca        1 E50      0.052000
     19 S19         8.1550   -0.4840   -4.4590 sy        1 E50      1.484200
     20 O20         8.2690   -1.8230   -4.7460 o         1 E50     -0.556800
     21 CL21        9.5560   -1.8970   -1.9380 cl        1 E50     -0.035400
     22 O22         7.6400    0.3930   -5.3910 o         1 E50     -0.556800
     23 N23         9.9960    0.0250   -4.4930 n4        1 E50     -0.788500
     24 H4          0.5350    1.9880    2.5250 h4        1 E50      0.042600
     25 H6          1.2010   -2.3280    2.3090 h4        1 E50      0.042600
     26 H8          3.3920    2.5920   -0.6770 h1        1 E50      0.129200
     27 H8A         4.5990    2.6810    0.6500 h1        1 E50      0.129200
     28 H11        -0.3870    0.1800    4.3700 hc        1 E50      0.060200
     29 H11A       -0.5540   -1.5080    3.7410 hc        1 E50      0.060200
     30 H12        -1.7870    1.0260    2.4450 hc        1 E50      0.044367
     31 H12A       -2.6580   -0.2030    3.4540 hc        1 E50      0.044367
     32 H12B       -1.9740   -0.6720    1.8430 hc        1 E50      0.044367
     33 H14         6.4940    1.5210   -3.5900 ha        1 E50      0.195000
     34 H17         8.3290   -0.8950    0.3880 ha        1 E50      0.192000
     35 H18         6.6350    0.9070    0.6960 ha        1 E50      0.193000
     36 HN23       10.5810   -0.7770   -4.7260 hn        1 E50      0.459467
     37 HN2A       10.1510    0.7400   -5.2030 hn        1 E50      0.459467
     38 H233       10.3170    0.3950   -3.6030 hn        1 E50      0.459467
@<TRIPOS>BOND
     1    1    2 ar  
     2    1    6 ar  
     3    2    3 ar  
     4    2    7 1   
     5    3    4 ar  
     6    4    5 ar  
     7    4   24 1   
     8    5    6 ar  
     9    5   11 1   
    10    6   25 1   
    11    7    8 1   
    12    8    9 1   
    13    8   26 1   
    14    8   27 1   
    15    9   10 2   
    16    9   13 1   
    17   11   12 1   
    18   11   28 1   
    19   11   29 1   
    20   12   30 1   
    21   12   31 1   
    22   12   32 1   
    23   13   14 ar  
    24   13   18 ar  
    25   14   15 ar  
    26   14   33 1   
    27   15   16 ar  
    28   15   19 1   
    29   16   17 ar  
    30   16   21 1   
    31   17   18 ar  
    32   17   34 1   
    33   18   35 1   
    34   19   20 2   
    35   19   22 2   
    36   19   23 1   
    37   23   36 1   
    38   23   37 1   
    39   23   38 1   
@<TRIPOS>SUBSTRUCTURE
     1 E50         1 TEMP              0 ****  ****    0 ROOT
