@<TRIPOS>MOLECULE
E50
   37    38     1     0     0
SMALL
bcc


@<TRIPOS>ATOM
      1 N1         -5.2340   -1.3010    0.0150 nb        1 E50     -0.703500
      2 C2         -4.0840   -0.5730   -0.1890 ca        1 E50      0.699300
      3 N3         -4.0040    0.7940   -0.1540 nb        1 E50     -0.703500
      4 C4         -5.1440    1.4620    0.1010 ca        1 E50      0.444700
      5 C5         -6.3760    0.8140    0.3220 ca        1 E50     -0.321900
      6 C6         -6.3490   -0.6000    0.2650 ca        1 E50      0.444700
      7 S7         -2.6840   -1.5160   -0.5140 ss        1 E50     -0.115400
      8 C8         -1.4010   -0.3110   -0.6660 c3        1 E50     -0.165300
      9 C9         -0.0700   -0.9610   -0.9030 c         1 E50      0.595700
     10 O10         0.0610   -2.1000   -1.3590 o         1 E50     -0.497100
     11 C11        -7.6220    1.5600    0.6090 c3        1 E50     -0.026100
     12 C12        -8.6250    1.4540   -0.5150 c3        1 E50     -0.092100
     13 C13         1.1070   -0.1270   -0.5630 ca        1 E50     -0.195600
     14 C14         2.3090   -0.7590   -0.2250 ca        1 E50      0.028000
     15 C15         3.4560   -0.0270    0.1080 ca        1 E50     -0.364500
     16 C16         3.3710    1.3710    0.0660 ca        1 E50      0.144400
     17 C17         2.1800    2.0210   -0.2760 ca        1 E50     -0.162000
     18 C18         1.0490    1.2710   -0.5840 ca        1 E50     -0.032000
     19 S19         4.8500   -0.9120    0.5800 sy        1 E50      1.522200
     20 O20         5.2180   -0.5120    1.8760 o         1 E50     -0.646800
     21 CL21        4.7280    2.3300    0.4250 cl        1 E50     -0.071400
     22 O22         4.5580   -2.2790    0.3930 o         1 E50     -0.646800
     23 N23         5.9500   -0.4500   -0.4770 n3        1 E50     -1.026700
     24 H4         -5.0640    2.5640    0.1280 h4        1 E50      0.030100
     25 H6         -7.2690   -1.1910    0.4270 h4        1 E50      0.030100
     26 H8         -1.6100    0.3790   -1.5250 h1        1 E50      0.103200
     27 H8A        -1.3470    0.3170    0.2600 h1        1 E50      0.103200
     28 H11        -8.0800    1.1580    1.5550 hc        1 E50      0.051200
     29 H11A       -7.3830    2.6430    0.7940 hc        1 E50      0.051200
     30 H12        -8.2130    1.8940   -1.4560 hc        1 E50      0.039367
     31 H12A       -8.8850    0.3860   -0.7110 hc        1 E50      0.039367
     32 H12B       -9.5590    2.0040   -0.2460 hc        1 E50      0.039367
     33 H14         2.3480   -1.8690   -0.2250 ha        1 E50      0.192000
     34 H17         2.1350    3.1210   -0.2990 ha        1 E50      0.159000
     35 H18         0.1130    1.7890   -0.8520 ha        1 E50      0.149000
     36 HN23        6.1140   -0.9170   -1.3340 hn        1 E50      0.452800
     37 HN2A        6.5540    0.3220   -0.3420 hn        1 E50      0.452800
@<TRIPOS>BOND
     1    1    2 ar  
     2    1    6 ar  
     3    2    3 ar  
     4    2    7 1   
     5    3    4 ar  
     6    4    5 ar  
     7    4   24 1   
     8    5    6 ar  
     9    5   11 1   
    10    6   25 1   
    11    7    8 1   
    12    8    9 1   
    13    8   26 1   
    14    8   27 1   
    15    9   10 2   
    16    9   13 1   
    17   11   12 1   
    18   11   28 1   
    19   11   29 1   
    20   12   30 1   
    21   12   31 1   
    22   12   32 1   
    23   13   14 ar  
    24   13   18 ar  
    25   14   15 ar  
    26   14   33 1   
    27   15   16 ar  
    28   15   19 1   
    29   16   17 ar  
    30   16   21 1   
    31   17   18 ar  
    32   17   34 1   
    33   18   35 1   
    34   19   20 2   
    35   19   22 2   
    36   19   23 1   
    37   23   36 1   
    38   23   37 1   
@<TRIPOS>SUBSTRUCTURE
     1 E50         1 TEMP              0 ****  ****    0 ROOT
