@<TRIPOS>MOLECULE
E50
   37    32     1     0     0
SMALL
bcc


@<TRIPOS>ATOM
      1 N1         -2.7960   -0.2050    0.8250 n1        1 E50     -0.192000
      2 C2         -2.4080    1.1000    0.8110 c1        1 E50     -0.146000
      3 N3         -2.7960    1.9380    1.8140 n1        1 E50     -0.150000
      4 C4         -3.5610    1.4770    2.8150 c1        1 E50     -0.023000
      5 C5         -3.9500    0.1690    2.8300 c1        1 E50     -0.178000
      6 C6         -3.5600   -0.6680    1.8250 c1        1 E50     -0.020000
      7 S7         -1.4390    1.7240   -0.5400 ss        1 E50      0.342000
      8 C8          0.2740    1.3530   -0.2600 c3        1 E50     -0.367000
      9 C9          1.0590    1.6020   -1.5310 c2        1 E50      0.281000
     10 O10         0.5870    2.2960   -2.4100 o         1 E50     -0.256000
     11 C11        -4.7100   -0.3800    4.0190 c3        1 E50     -0.113000
     12 C12        -6.1970   -0.2850    3.7540 c3        1 E50     -0.210000
     13 C13         2.4420    1.0080   -1.6960 c2        1 E50     -0.178000
     14 C14         2.6270   -0.1040   -2.5030 c2        1 E50      0.029000
     15 C15         3.9020   -0.6090   -2.7070 c1        1 E50     -0.812000
     16 C16         4.9920   -0.0010   -2.1040 c1        1 E50      0.068000
     17 C17         4.8080    1.1110   -1.2980 c1        1 E50     -0.162000
     18 C18         3.5320    1.6160   -1.0940 c1        1 E50     -0.033000
     19 S19         4.1480   -1.9680   -3.8180 s4        1 E50      2.077800
     20 O20         3.1940   -1.9430   -4.8920 o         1 E50     -0.534400
     21 CL21        6.5870   -0.6770   -2.3040 cl        1 E50      0.005000
     22 O22         5.3830   -1.8350   -4.5400 o         1 E50     -0.534400
     23 N23         4.0870   -3.3900   -3.0000 n2        1 E50     -0.953000
     24 H4         -3.8390    2.0780    3.5330 ha        1 E50      0.171000
     25 H6         -3.8370   -1.6050    1.8340 ha        1 E50      0.168000
     26 H8          0.3660    0.4150    0.0020 h1        1 E50      0.146000
     27 H8A         0.6190    1.9260    0.4540 h1        1 E50      0.146000
     28 H11        -4.4880    0.1410    4.8170 hc        1 E50      0.091500
     29 H11A       -4.4630   -1.3150    4.1600 hc        1 E50      0.091500
     30 H12        -6.3930   -0.6420    2.8620 hc        1 E50      0.079333
     31 H12A       -6.6830   -0.8050    4.4280 hc        1 E50      0.079333
     32 H12B       -6.4780    0.6530    3.8000 hc        1 E50      0.079333
     33 H14         1.8590   -0.5320   -2.9270 ha        1 E50      0.192000
     34 H17         5.5760    1.5390   -0.8740 ha        1 E50      0.160000
     35 H18         3.4020    2.3990   -0.5260 ha        1 E50      0.163000
     36 HN23        4.6900   -3.5600   -2.3340 hn        1 E50      0.247500
     37 HN2A        3.4650   -4.0210   -3.2250 hn        1 E50      0.247500
@<TRIPOS>BOND
     1    1    6 1   
     2    2    3 1   
     3    2    7 1   
     4    4    5 1   
     5    4   24 1   
     6    5   11 1   
     7    6   25 1   
     8    7    8 1   
     9    8    9 1   
    10    8   26 1   
    11    8   27 1   
    12    9   10 1   
    13    9   13 1   
    14   11   12 1   
    15   11   28 1   
    16   11   29 1   
    17   12   30 1   
    18   12   31 1   
    19   12   32 1   
    20   13   14 1   
    21   13   18 1   
    22   14   15 1   
    23   14   33 1   
    24   15   19 1   
    25   16   17 1   
    26   16   21 1   
    27   17   34 1   
    28   18   35 1   
    29   19   20 1   
    30   19   22 1   
    31   23   36 1   
    32   23   37 1   
@<TRIPOS>SUBSTRUCTURE
     1 E50         1 TEMP              0 ****  ****    0 ROOT
