@<TRIPOS>MOLECULE
E57
   59    61     1     0     0
SMALL
bcc


@<TRIPOS>ATOM
      1 O1          0.1890   -0.1840   -0.2550 o         1 E57     -0.428100
      2 C8          1.4130   -0.1230   -0.2570 c         1 E57      0.594700
      3 N1          2.1060   -0.0570    1.0810 n4        1 E57     -0.674800
      4 C7          1.1710    0.1660    2.2590 c3        1 E57      0.168800
      5 C22         0.8010    1.6640    2.3830 c3        1 E57      0.116400
      6 O3          1.9530    2.4650    2.2230 oh        1 E57     -0.629800
      7 C3          1.8040   -0.3830    3.5000 ca        1 E57     -0.183300
      8 C2          1.2040   -1.4750    4.1360 ca        1 E57     -0.095000
      9 C4          2.9590    0.1970    4.0380 ca        1 E57     -0.132000
     10 C5          3.5100   -0.3110    5.2120 ca        1 E57     -0.105000
     11 C6          2.9170   -1.3960    5.8580 ca        1 E57     -0.075000
     12 C1          1.7620   -1.9770    5.3180 ca        1 E57      0.020400
     13 CL          1.0340   -3.2900    6.0910 cl        1 E57     -0.022400
     14 C9          2.2490   -0.1220   -1.4350 cc        1 E57     -0.276900
     15 C12         1.7390   -0.2260   -2.7560 cd        1 E57      0.022000
     16 C11         2.8570   -0.1710   -3.6420 cd        1 E57     -0.269500
     17 C10         4.0210   -0.0480   -2.8380 cc        1 E57     -0.010300
     18 N2          3.6530   -0.0210   -1.5150 na        1 E57     -0.150100
     19 C13         2.8000   -0.2610   -5.0910 ca        1 E57      0.543800
     20 C16         3.7020    0.4470   -5.9300 ca        1 E57     -0.235900
     21 C17         4.7550    1.3490   -5.4290 c3        1 E57     -0.073800
     22 C15         3.5500    0.2660   -7.3290 ca        1 E57      0.459200
     23 N4          2.6090   -0.5170   -7.8750 nb        1 E57     -0.656000
     24 C14         1.7740   -1.1450   -6.9770 ca        1 E57      0.706900
     25 N3          1.8210   -1.0560   -5.6160 nb        1 E57     -0.666000
     26 N5          0.7260   -2.0360   -7.5540 n4        1 E57     -0.738700
     27 C18        -0.3180   -1.2840   -8.3500 c3        1 E57      0.093500
     28 C21        -1.3210   -0.5940   -7.3980 c3        1 E57      0.110400
     29 O2         -1.8370   -1.5320   -6.4800 oh        1 E57     -0.606800
     30 C19        -1.0600   -2.2350   -9.2950 c3        1 E57     -0.113400
     31 C20        -0.1620   -2.9000  -10.3040 c3        1 E57     -0.123100
     32 H8          2.7740    0.7260    1.0810 hn        1 E57      0.464300
     33 H1          0.2120   -0.3990    2.0350 hx        1 E57      0.131700
     34 H25         0.0970    1.9420    1.5490 h1        1 E57      0.093700
     35 H24         0.2970    1.8160    3.3720 h1        1 E57      0.093700
     36 H26         2.1210    2.9310    3.0530 ho        1 E57      0.448000
     37 H4          0.2880   -1.9320    3.7260 ha        1 E57      0.160000
     38 H5          3.4230    1.0670    3.5470 ha        1 E57      0.135000
     39 H6          4.4160    0.1500    5.6400 ha        1 E57      0.167000
     40 H7          3.3530   -1.7910    6.7920 ha        1 E57      0.180000
     41 H10         0.6850   -0.3270   -3.0220 ha        1 E57      0.203000
     42 H9          5.0750    0.0030   -3.1420 h4        1 E57      0.209000
     43 H2          4.2780    0.0800   -0.7550 hn        1 E57      0.316700
     44 H12         4.4280    1.8720   -4.4950 hc        1 E57      0.075700
     45 H14         5.0090    2.1280   -6.1940 hc        1 E57      0.075700
     46 H13         5.6900    0.7690   -5.2100 hc        1 E57      0.075700
     47 H11         4.2210    0.7800   -8.0500 h4        1 E57      0.078100
     48 H15         0.2400   -2.5360   -6.7900 hn        1 E57      0.481300
     49 H3          0.2100   -0.4950   -8.9640 hx        1 E57      0.129700
     50 H21        -0.7980    0.1850   -6.7770 h1        1 E57      0.087700
     51 H22        -2.1180   -0.1050   -8.0160 h1        1 E57      0.087700
     52 H23        -2.6990   -1.8320   -6.8010 ho        1 E57      0.437000
     53 H16        -1.8230   -1.6090   -9.8360 hc        1 E57      0.084700
     54 H17        -1.6230   -3.0050   -8.7020 hc        1 E57      0.084700
     55 H19        -0.7840   -3.3380  -11.1260 hc        1 E57      0.061700
     56 H20         0.4250   -3.7380   -9.8540 hc        1 E57      0.061700
     57 H18         0.5460   -2.1670  -10.7630 hc        1 E57      0.061700
     58 H121        2.6150   -0.9340    1.2360 hn        1 E57      0.464300
     59 H52         1.1880   -2.7180   -8.1730 hn        1 E57      0.481300
@<TRIPOS>BOND
     1    1    2 2   
     2    2    3 1   
     3    2   14 1   
     4    3    4 1   
     5    3   32 1   
     6    3   58 1   
     7    4    5 1   
     8    4    7 1   
     9    4   33 1   
    10    5    6 1   
    11    5   34 1   
    12    5   35 1   
    13    6   36 1   
    14    7    8 ar  
    15    7    9 ar  
    16    8   12 ar  
    17    8   37 1   
    18    9   10 ar  
    19    9   38 1   
    20   10   11 ar  
    21   10   39 1   
    22   11   12 ar  
    23   11   40 1   
    24   12   13 1   
    25   14   15 2   
    26   14   18 1   
    27   15   16 1   
    28   15   41 1   
    29   16   17 2   
    30   16   19 1   
    31   17   18 1   
    32   17   42 1   
    33   18   43 1   
    34   19   20 ar  
    35   19   25 ar  
    36   20   21 1   
    37   20   22 ar  
    38   21   44 1   
    39   21   45 1   
    40   21   46 1   
    41   22   23 ar  
    42   22   47 1   
    43   23   24 ar  
    44   24   25 ar  
    45   24   26 1   
    46   26   27 1   
    47   26   48 1   
    48   26   59 1   
    49   27   28 1   
    50   27   30 1   
    51   27   49 1   
    52   28   29 1   
    53   28   50 1   
    54   28   51 1   
    55   29   52 1   
    56   30   31 1   
    57   30   53 1   
    58   30   54 1   
    59   31   55 1   
    60   31   56 1   
    61   31   57 1   
@<TRIPOS>SUBSTRUCTURE
     1 E57         1 TEMP              0 ****  ****    0 ROOT
