@<TRIPOS>MOLECULE
E57
   58    60     1     0     0
SMALL
bcc


@<TRIPOS>ATOM
      1 O1          0.1420    0.5290   -0.0500 o         1 E57     -0.450100
      2 C8          1.3590    0.4050   -0.1510 c         1 E57      0.600700
      3 N1          2.1280    0.2000    1.1450 n4        1 E57     -0.677800
      4 C7          1.2660    0.1950    2.3860 c3        1 E57      0.154800
      5 C22         0.9870    1.6420    2.8600 c3        1 E57      0.115400
      6 O3          2.1840    2.3890    2.8990 oh        1 E57     -0.616800
      7 C3          1.9110   -0.6410    3.4520 ca        1 E57     -0.168300
      8 C2          1.2220   -1.7540    3.9440 ca        1 E57     -0.095000
      9 C4          3.1710   -0.3110    3.9660 ca        1 E57     -0.138000
     10 C5          3.7380   -1.0890    4.9710 ca        1 E57     -0.106000
     11 C6          3.0580   -2.1990    5.4740 ca        1 E57     -0.085000
     12 C1          1.7980   -2.5280    4.9590 ca        1 E57      0.021400
     13 CL          0.9620   -3.8690    5.5600 cl        1 E57     -0.034400
     14 C9          2.1370    0.4000   -1.3530 cc        1 E57     -0.306900
     15 C12         1.5740    0.3140   -2.6580 cd        1 E57      0.033000
     16 C11         2.6570    0.3100   -3.5830 cd        1 E57     -0.216500
     17 C10         3.8530    0.3930   -2.8280 cc        1 E57     -0.019300
     18 N2          3.5430    0.4230   -1.4850 na        1 E57     -0.173100
     19 C13         2.5350    0.1870   -5.0320 ca        1 E57      0.538800
     20 C16         3.4230    0.8520   -5.9070 ca        1 E57     -0.363900
     21 C17         4.5300    1.7200   -5.4710 c3        1 E57     -0.035800
     22 C15         3.1820    0.6570   -7.2910 ca        1 E57      0.477200
     23 N4          2.2030   -0.0990   -7.7840 nb        1 E57     -0.728000
     24 C14         1.3790   -0.7360   -6.8490 ca        1 E57      0.884900
     25 N3          1.5120   -0.5850   -5.4750 nb        1 E57     -0.763000
     26 N5          0.4160   -1.6480   -7.2910 nh        1 E57     -0.800900
     27 C18        -0.0490   -1.6460   -8.6670 c3        1 E57      0.211500
     28 C21        -0.9290   -0.4260   -9.0240 c3        1 E57      0.096400
     29 O2         -2.0460   -0.4250   -8.1510 oh        1 E57     -0.611800
     30 C19        -0.8410   -2.9270   -8.9830 c3        1 E57     -0.083400
     31 C20        -0.0100   -4.1740   -8.8480 c3        1 E57     -0.093100
     32 H8          2.8110    0.9620    1.2510 hn        1 E57      0.458800
     33 H1          0.2670   -0.2600    2.0970 hx        1 E57      0.132700
     34 H25         0.4720    1.5930    3.8530 h1        1 E57      0.094200
     35 H24         0.3230    2.1580    2.1100 h1        1 E57      0.094200
     36 H26         2.4630    2.4670    3.8210 ho        1 E57      0.435000
     37 H4          0.2290   -2.0200    3.5480 ha        1 E57      0.162000
     38 H5          3.7100    0.5730    3.5900 ha        1 E57      0.134000
     39 H6          4.7290   -0.8270    5.3780 ha        1 E57      0.161000
     40 H7          3.5090   -2.8100    6.2740 ha        1 E57      0.174000
     41 H10         0.5090    0.2470   -2.8920 ha        1 E57      0.204000
     42 H9          4.8910    0.4090   -3.1800 h4        1 E57      0.205000
     43 H2          4.1880    0.6140   -0.7630 hn        1 E57      0.300700
     44 H12         4.7860    2.4640   -6.2670 hc        1 E57      0.043700
     45 H14         4.2590    2.2850   -4.5440 hc        1 E57      0.043700
     46 H13         5.4480    1.1130   -5.2620 hc        1 E57      0.043700
     47 H11         3.8250    1.1550   -8.0430 h4        1 E57      0.036100
     48 H15        -0.2990   -1.8710   -6.6260 hn        1 E57      0.438800
     49 H3          0.8530   -1.6140   -9.3490 h1        1 E57      0.090700
     50 H21        -0.3500    0.5280   -8.9010 h1        1 E57      0.039700
     51 H22        -1.2640   -0.5170  -10.0910 h1        1 E57      0.039700
     52 H23        -2.6370    0.2740   -8.4570 ho        1 E57      0.410000
     53 H16        -1.7450   -2.9830   -8.3220 hc        1 E57      0.056700
     54 H17        -1.2080   -2.8330  -10.0400 hc        1 E57      0.056700
     55 H19        -0.5880   -5.0580   -9.2130 hc        1 E57      0.039700
     56 H20         0.2730   -4.3580   -7.7830 hc        1 E57      0.039700
     57 H18         0.9280   -4.0930   -9.4490 hc        1 E57      0.039700
     58 H121        2.6310   -0.6920    1.0900 hn        1 E57      0.458800
@<TRIPOS>BOND
     1    1    2 2   
     2    2    3 1   
     3    2   14 1   
     4    3    4 1   
     5    3   32 1   
     6    3   58 1   
     7    4    5 1   
     8    4    7 1   
     9    4   33 1   
    10    5    6 1   
    11    5   34 1   
    12    5   35 1   
    13    6   36 1   
    14    7    8 ar  
    15    7    9 ar  
    16    8   12 ar  
    17    8   37 1   
    18    9   10 ar  
    19    9   38 1   
    20   10   11 ar  
    21   10   39 1   
    22   11   12 ar  
    23   11   40 1   
    24   12   13 1   
    25   14   15 2   
    26   14   18 1   
    27   15   16 1   
    28   15   41 1   
    29   16   17 2   
    30   16   19 1   
    31   17   18 1   
    32   17   42 1   
    33   18   43 1   
    34   19   20 ar  
    35   19   25 ar  
    36   20   21 1   
    37   20   22 ar  
    38   21   44 1   
    39   21   45 1   
    40   21   46 1   
    41   22   23 ar  
    42   22   47 1   
    43   23   24 ar  
    44   24   25 ar  
    45   24   26 1   
    46   26   27 1   
    47   26   48 1   
    48   27   28 1   
    49   27   30 1   
    50   27   49 1   
    51   28   29 1   
    52   28   50 1   
    53   28   51 1   
    54   29   52 1   
    55   30   31 1   
    56   30   53 1   
    57   30   54 1   
    58   31   55 1   
    59   31   56 1   
    60   31   57 1   
@<TRIPOS>SUBSTRUCTURE
     1 E57         1 TEMP              0 ****  ****    0 ROOT
