@<TRIPOS>MOLECULE
E57
   57    59     1     0     0
SMALL
bcc


@<TRIPOS>ATOM
      1 O1          1.5140   -1.4500    1.0380 o         1 E57     -0.589100
      2 C8          1.6430   -0.3360    0.4950 c         1 E57      0.692700
      3 N1          2.8850    0.2970    0.4140 n         1 E57     -0.544900
      4 C7          4.0290   -0.2660    1.1010 c3        1 E57      0.137000
      5 C22         4.1640    0.1910    2.5740 c3        1 E57      0.101400
      6 O3          4.0470    1.6040    2.6360 oh        1 E57     -0.615800
      7 C3          5.3050    0.0210    0.3450 ca        1 E57     -0.085300
      8 C2          5.9640   -1.0290   -0.3010 ca        1 E57     -0.109000
      9 C4          5.8220    1.3180    0.2740 ca        1 E57     -0.116000
     10 C5          6.9990    1.5640   -0.4310 ca        1 E57     -0.128000
     11 C6          7.6690    0.5230   -1.0730 ca        1 E57     -0.120000
     12 C1          7.1460   -0.7710   -1.0020 ca        1 E57      0.012400
     13 CL          7.9550   -2.0490   -1.7820 cl        1 E57     -0.093400
     14 C9          0.4960    0.3400   -0.1370 cc        1 E57     -0.209900
     15 C12        -0.8620    0.1270    0.1590 cd        1 E57     -0.059000
     16 C11        -1.6210    1.0000   -0.6920 cd        1 E57     -0.246500
     17 C10        -0.6970    1.6970   -1.5000 cc        1 E57     -0.099300
     18 N2          0.5810    1.3090   -1.1490 na        1 E57     -0.159100
     19 C13        -3.0720    1.1030   -0.7250 ca        1 E57      0.573800
     20 C16        -3.7200    2.3410   -0.9810 ca        1 E57     -0.366900
     21 C17        -3.0090    3.6070   -1.2280 c3        1 E57     -0.031800
     22 C15        -5.1310    2.3180   -0.9650 ca        1 E57      0.459200
     23 N4         -5.8650    1.2240   -0.7360 nb        1 E57     -0.750000
     24 C14        -5.1550    0.0480   -0.5110 ca        1 E57      0.862900
     25 N3         -3.7700   -0.0320   -0.4760 nb        1 E57     -0.744000
     26 N5         -5.8550   -1.1700   -0.3980 nh        1 E57     -0.802900
     27 C18        -7.2510   -1.1760   -0.0030 c3        1 E57      0.210500
     28 C21        -7.4890   -0.7540    1.4650 c3        1 E57      0.094400
     29 O2         -6.8320   -1.6950    2.2990 oh        1 E57     -0.606800
     30 C19        -7.8820   -2.5630   -0.2160 c3        1 E57     -0.079400
     31 C20        -7.8920   -2.9790   -1.6630 c3        1 E57     -0.092100
     32 H8          2.8960    1.2900    0.3530 hn        1 E57      0.306500
     33 H1          3.8770   -1.3910    1.1450 h1        1 E57      0.097700
     34 H25         3.3500   -0.2850    3.1850 h1        1 E57      0.042200
     35 H24         5.1650   -0.1290    2.9670 h1        1 E57      0.042200
     36 H26         4.0790    1.8410    3.5700 ho        1 E57      0.409000
     37 H4          5.5560   -2.0510   -0.2610 ha        1 E57      0.153000
     38 H5          5.3020    2.1390    0.7940 ha        1 E57      0.154000
     39 H6          7.4050    2.5860   -0.4810 ha        1 E57      0.138000
     40 H7          8.5980    0.7200   -1.6280 ha        1 E57      0.147000
     41 H10        -1.2570   -0.5740    0.8920 ha        1 E57      0.183000
     42 H9         -0.8770    2.4220   -2.2970 h4        1 E57      0.176000
     43 H2          1.4110    1.5710   -1.6150 hn        1 E57      0.304700
     44 H12        -2.7280    3.6950   -2.3090 hc        1 E57      0.040700
     45 H14        -3.6550    4.4820   -0.9690 hc        1 E57      0.040700
     46 H13        -2.0750    3.6670   -0.6150 hc        1 E57      0.040700
     47 H11        -5.7070    3.2460   -1.1420 h4        1 E57      0.021100
     48 H15        -5.3250   -1.9120    0.0190 hn        1 E57      0.431800
     49 H3         -7.8080   -0.4350   -0.6510 h1        1 E57      0.086700
     50 H21        -7.0870    0.2770    1.6490 h1        1 E57      0.034200
     51 H22        -8.5910   -0.7620    1.6780 h1        1 E57      0.034200
     52 H23        -6.9010   -1.3610    3.2010 ho        1 E57      0.403000
     53 H16        -7.3400   -3.3230    0.4060 hc        1 E57      0.051200
     54 H17        -8.9350   -2.5100    0.1680 hc        1 E57      0.051200
     55 H19        -8.3760   -2.1960   -2.2960 hc        1 E57      0.037367
     56 H20        -6.8540   -3.1420   -2.0420 hc        1 E57      0.037367
     57 H18        -8.4620   -3.9320   -1.7820 hc        1 E57      0.037367
@<TRIPOS>BOND
     1    1    2 2   
     2    2    3 1   
     3    2   14 1   
     4    3    4 1   
     5    3   32 1   
     6    4    5 1   
     7    4    7 1   
     8    4   33 1   
     9    5    6 1   
    10    5   34 1   
    11    5   35 1   
    12    6   36 1   
    13    7    8 ar  
    14    7    9 ar  
    15    8   12 ar  
    16    8   37 1   
    17    9   10 ar  
    18    9   38 1   
    19   10   11 ar  
    20   10   39 1   
    21   11   12 ar  
    22   11   40 1   
    23   12   13 1   
    24   14   15 2   
    25   14   18 1   
    26   15   16 1   
    27   15   41 1   
    28   16   17 2   
    29   16   19 1   
    30   17   18 1   
    31   17   42 1   
    32   18   43 1   
    33   19   20 ar  
    34   19   25 ar  
    35   20   21 1   
    36   20   22 ar  
    37   21   44 1   
    38   21   45 1   
    39   21   46 1   
    40   22   23 ar  
    41   22   47 1   
    42   23   24 ar  
    43   24   25 ar  
    44   24   26 1   
    45   26   27 1   
    46   26   48 1   
    47   27   28 1   
    48   27   30 1   
    49   27   49 1   
    50   28   29 1   
    51   28   50 1   
    52   28   51 1   
    53   29   52 1   
    54   30   31 1   
    55   30   53 1   
    56   30   54 1   
    57   31   55 1   
    58   31   56 1   
    59   31   57 1   
@<TRIPOS>SUBSTRUCTURE
     1 E57         1 TEMP              0 ****  ****    0 ROOT
