@<TRIPOS>MOLECULE
E57
   58    60     1     0     0
SMALL
bcc


@<TRIPOS>ATOM
      1 O1          0.1410    0.5440   -0.0520 o         1 E57     -0.450100
      2 C8          1.3570    0.4160   -0.1530 c         1 E57      0.600700
      3 N1          2.1250    0.2060    1.1430 ny        1 E57     -0.677800
      4 C7          1.2640    0.1990    2.3840 c3        1 E57      0.154800
      5 C22         0.9900    1.6450    2.8630 c3        1 E57      0.115400
      6 O3          2.1890    2.3870    2.9060 oh        1 E57     -0.616800
      7 C3          1.9040   -0.6440    3.4450 ca        1 E57     -0.168300
      8 C2          1.2120   -1.7560    3.9330 ca        1 E57     -0.095000
      9 C4          3.1660   -0.3220    3.9610 ca        1 E57     -0.138000
     10 C5          3.7300   -1.1070    4.9630 ca        1 E57     -0.106000
     11 C6          3.0450   -2.2160    5.4600 ca        1 E57     -0.085000
     12 C1          1.7840   -2.5380    4.9440 ca        1 E57      0.021400
     13 Cl          0.9430   -3.8780    5.5390 cl        1 E57     -0.034400
     14 C9          2.1350    0.4110   -1.3550 cc        1 E57     -0.306900
     15 C12         1.5720    0.3210   -2.6600 cd        1 E57      0.033000
     16 C11         2.6550    0.3180   -3.5850 cd        1 E57     -0.216500
     17 C10         3.8510    0.4040   -2.8290 cc        1 E57     -0.019300
     18 N2          3.5410    0.4360   -1.4870 na        1 E57     -0.173100
     19 C13         2.5340    0.1910   -5.0330 ca        1 E57      0.538800
     20 C16         3.4210    0.8560   -5.9100 ca        1 E57     -0.363900
     21 C17         4.5250    1.7280   -5.4760 c3        1 E57     -0.035800
     22 C15         3.1800    0.6570   -7.2940 ca        1 E57      0.477200
     23 N4          2.2040   -0.1030   -7.7840 nb        1 E57     -0.728000
     24 C14         1.3810   -0.7400   -6.8490 ca        1 E57      0.884900
     25 N3          1.5130   -0.5850   -5.4740 nb        1 E57     -0.763000
     26 N5          0.4200   -1.6550   -7.2880 nu        1 E57     -0.800900
     27 C18        -0.0440   -1.6590   -8.6640 c3        1 E57      0.211500
     28 C21        -0.9270   -0.4420   -9.0250 c3        1 E57      0.096400
     29 O2         -2.0450   -0.4420   -8.1520 oh        1 E57     -0.611800
     30 C19        -0.8320   -2.9420   -8.9770 c3        1 E57     -0.083400
     31 C20         0.0020   -4.1870   -8.8380 c3        1 E57     -0.093100
     32 H8          2.8090    0.9670    1.2510 hn        1 E57      0.458800
     33 H1          0.2620   -0.2510    2.0930 hx        1 E57      0.132700
     34 H25         0.3280    2.1670    2.1160 h1        1 E57      0.094200
     35 H24         0.4750    1.5930    3.8570 h1        1 E57      0.094200
     36 H26         2.4700    2.4600    3.8280 ho        1 E57      0.435000
     37 H4          0.2170   -2.0170    3.5350 ha        1 E57      0.162000
     38 H5          3.7090    0.5620    3.5890 ha        1 E57      0.134000
     39 H6          4.7220   -0.8510    5.3710 ha        1 E57      0.161000
     40 H7          3.4940   -2.8330    6.2570 ha        1 E57      0.174000
     41 H10         0.5070    0.2520   -2.8940 ha        1 E57      0.204000
     42 H9          4.8900    0.4220   -3.1820 h4        1 E57      0.205000
     43 H2          4.1850    0.6330   -0.7650 hn        1 E57      0.300700
     44 H12         4.7790    2.4710   -6.2740 hc        1 E57      0.043700
     45 H14         5.4450    1.1240   -5.2660 hc        1 E57      0.043700
     46 H13         4.2530    2.2940   -4.5500 hc        1 E57      0.043700
     47 H11         3.8220    1.1550   -8.0470 h4        1 E57      0.036100
     48 H15        -0.2940   -1.8790   -6.6230 hn        1 E57      0.438800
     49 H3          0.8580   -1.6260   -9.3460 h1        1 E57      0.090700
     50 H21        -0.3510    0.5140   -8.9040 h1        1 E57      0.039700
     51 H22        -1.2610   -0.5370  -10.0920 h1        1 E57      0.039700
     52 H23        -2.6370    0.2540   -8.4600 ho        1 E57      0.410000
     53 H16        -1.1990   -2.8530  -10.0340 hc        1 E57      0.056700
     54 H17        -1.7370   -3.0000   -8.3160 hc        1 E57      0.056700
     55 H19         0.9400   -4.1050   -9.4400 hc        1 E57      0.039700
     56 H20         0.2850   -4.3670   -7.7730 hc        1 E57      0.039700
     57 H18        -0.5740   -5.0730   -9.2000 hc        1 E57      0.039700
     58 H121        2.6260   -0.6860    1.0840 hn        1 E57      0.458800
@<TRIPOS>BOND
     1    1    2 2   
     2    2    3 1   
     3    2   14 1   
     4    3    4 1   
     5    3   32 1   
     6    3   58 1   
     7    4    5 1   
     8    4    7 1   
     9    4   33 1   
    10    5    6 1   
    11    5   34 1   
    12    5   35 1   
    13    6   36 1   
    14    7    8 ar  
    15    7    9 ar  
    16    8   12 ar  
    17    8   37 1   
    18    9   10 ar  
    19    9   38 1   
    20   10   11 ar  
    21   10   39 1   
    22   11   12 ar  
    23   11   40 1   
    24   12   13 1   
    25   14   15 2   
    26   14   18 1   
    27   15   16 1   
    28   15   41 1   
    29   16   17 2   
    30   16   19 1   
    31   17   18 1   
    32   17   42 1   
    33   18   43 1   
    34   19   20 ar  
    35   19   25 ar  
    36   20   21 1   
    37   20   22 ar  
    38   21   44 1   
    39   21   45 1   
    40   21   46 1   
    41   22   23 ar  
    42   22   47 1   
    43   23   24 ar  
    44   24   25 ar  
    45   24   26 1   
    46   26   27 1   
    47   26   48 1   
    48   27   28 1   
    49   27   30 1   
    50   27   49 1   
    51   28   29 1   
    52   28   50 1   
    53   28   51 1   
    54   29   52 1   
    55   30   31 1   
    56   30   53 1   
    57   30   54 1   
    58   31   55 1   
    59   31   56 1   
    60   31   57 1   
@<TRIPOS>SUBSTRUCTURE
     1 E57         1 TEMP              0 ****  ****    0 ROOT
