@<TRIPOS>MOLECULE
E57
   57    50     1     0     0
SMALL
bcc


@<TRIPOS>ATOM
      1 O1         -1.6490   -0.5230    3.1110 o         1 E57     -0.369000
      2 C8         -0.7040    0.2580    2.9400 c1        1 E57      0.379000
      3 N1         -0.2260    1.0880    4.0650 n2        1 E57     -0.387000
      4 C7         -1.0450    1.2390    5.2450 c3        1 E57      0.022000
      5 C22        -1.4910    2.7110    5.3710 c3        1 E57     -0.032000
      6 O3         -2.7070    2.7630    5.9460 oh        1 E57     -0.329000
      7 C3         -0.2700    0.8520    6.4320 c2        1 E57     -0.081000
      8 C2          0.9310    1.4730    6.7020 c1        1 E57     -0.128000
      9 C4         -0.7770   -0.1000    7.3180 c2        1 E57     -0.109000
     10 C5         -0.0680   -0.4230    8.4760 c1        1 E57     -0.119000
     11 C6          1.1370    0.2010    8.7440 c1        1 E57     -0.118000
     12 C1          1.6420    1.1510    7.8610 c1        1 E57     -0.061000
     13 CL          3.0170    2.0870    8.3100 cl        1 E57     -0.011000
     14 C9          0.0720    0.2340    1.6210 c2        1 E57     -0.169000
     15 C12        -0.4830    0.3260    0.3490 c1        1 E57     -0.075000
     16 C11         0.5260    0.3400   -0.5460 c1        1 E57     -0.144000
     17 C10         1.7250    0.2570    0.1580 c1        1 E57     -0.044000
     18 N2          1.4280    0.1920    1.4880 n2        1 E57     -0.160000
     19 C13         0.3710    0.2910   -2.0980 c1        1 E57      0.138000
     20 C16         0.3680    1.4590   -2.8240 c2        1 E57     -0.212000
     21 C17         0.4700    2.8250   -2.0910 c3        1 E57     -0.162000
     22 C15         0.1990    1.4190   -4.1770 c1        1 E57     -0.005000
     23 N4          0.0330    0.2190   -4.8120 n1        1 E57     -0.230000
     24 C14         0.0360   -0.9370   -4.0900 c1        1 E57      0.144000
     25 N3          0.2070   -0.8950   -2.7230 n2        1 E57     -0.235000
     26 N5         -0.0690   -2.2130   -4.7690 n2        1 E57     -0.265000
     27 C18        -0.1550   -2.2490   -6.1720 c3        1 E57     -0.028000
     28 C21        -1.5840   -2.3880   -6.5860 c3        1 E57     -0.039000
     29 O2         -1.7230   -1.9730   -7.9270 oh        1 E57     -0.329000
     30 C19         0.6590   -3.4520   -6.7120 c3        1 E57     -0.161000
     31 C20         1.4120   -3.0260   -8.0370 c3        1 E57     -0.215000
     32 H8          0.6430    1.4520    4.0460 hn        1 E57      0.221000
     33 H1         -1.8020    0.6860    5.1740 h1        1 E57      0.136000
     34 H25        -1.5330    3.1170    4.4780 h1        1 E57      0.090000
     35 H24        -0.8440    3.2060    5.9260 h1        1 E57      0.090000
     36 H26        -3.0840    3.5580    5.7740 ho        1 E57      0.226000
     37 H4          1.2980    2.1620    6.0590 ha        1 E57      0.145000
     38 H5         -1.6210   -0.5380    7.1290 ha        1 E57      0.146000
     39 H6         -0.4200   -1.0860    9.0930 ha        1 E57      0.143000
     40 H7          1.6490   -0.0310    9.5800 ha        1 E57      0.151000
     41 H10        -1.4460    0.3730    0.1390 DU        1 E57      0.206000
     42 H9          2.6460    0.2450   -0.2420 DU        1 E57      0.206000
     43 H2          2.0250    0.1320    2.1620 DU        1 E57      0.206000
     44 H12        -0.0530    3.5280   -2.6080 hc        1 E57      0.085333
     45 H14         0.1070    2.7420   -1.2130 hc        1 E57      0.085333
     46 H13         1.4240    3.0980   -2.0300 hc        1 E57      0.085333
     47 H11         0.1970    2.2540   -4.6960 ha        1 E57      0.162000
     48 H15        -0.2240   -2.9860   -4.2770 hn        1 E57      0.217000
     49 H3          0.2270   -1.3740   -6.5590 h1        1 E57      0.127000
     50 H21        -1.8490   -3.2870   -6.5080 h1        1 E57      0.087500
     51 H22        -2.1260   -1.8500   -6.0320 h1        1 E57      0.087500
     52 H23        -2.5830   -1.8260   -8.1050 ho        1 E57      0.214000
     53 H16         0.0200   -4.2380   -6.9180 hc        1 E57      0.084500
     54 H17         1.3240   -3.7350   -6.0260 hc        1 E57      0.084500
     55 H19         0.7930   -2.5880   -8.6280 hc        1 E57      0.082000
     56 H20         2.1700   -2.3890   -7.8070 hc        1 E57      0.082000
     57 H18         1.7800   -3.8300   -8.4830 hc        1 E57      0.082000
@<TRIPOS>BOND
     1    1    2 1   
     2    2   14 1   
     3    3    4 1   
     4    3   32 1   
     5    4    5 1   
     6    4    7 1   
     7    4   33 1   
     8    5    6 1   
     9    5   34 1   
    10    5   35 1   
    11    6   36 1   
    12    7    8 1   
    13    7    9 1   
    14    8   37 1   
    15    9   10 1   
    16    9   38 1   
    17   10   39 1   
    18   11   12 1   
    19   11   40 1   
    20   12   13 1   
    21   14   15 1   
    22   14   18 1   
    23   15   16 1   
    24   16   17 1   
    25   17   18 1   
    26   19   20 1   
    27   19   25 1   
    28   20   21 1   
    29   20   22 1   
    30   21   44 1   
    31   21   45 1   
    32   21   46 1   
    33   22   47 1   
    34   23   24 1   
    35   24   25 1   
    36   26   27 1   
    37   26   48 1   
    38   27   28 1   
    39   27   30 1   
    40   27   49 1   
    41   28   29 1   
    42   28   50 1   
    43   28   51 1   
    44   29   52 1   
    45   30   31 1   
    46   30   53 1   
    47   30   54 1   
    48   31   55 1   
    49   31   56 1   
    50   31   57 1   
@<TRIPOS>SUBSTRUCTURE
     1 E57         1 TEMP              0 ****  ****    0 ROOT
