@<TRIPOS>MOLECULE
E59
   36    37     1     0     0
SMALL
bcc


@<TRIPOS>ATOM
      1 N1         -1.1310   -0.6980    1.0990 n         1 E59     -0.465400
      2 C2         -0.1700   -1.6280    1.5790 c         1 E59      0.692700
      3 C3          0.3350   -1.3710    2.9270 cc        1 E59     -0.280200
      4 C4         -0.1310   -0.3020    3.6470 cd        1 E59      0.174400
      5 N5         -1.1030    0.5640    3.1450 nd        1 E59     -0.702300
      6 C6         -1.5390    0.3510    1.9060 cc        1 E59      0.492800
      7 O7          0.1550   -2.5680    0.8390 o         1 E59     -0.585500
      8 C8          0.4110   -0.0140    5.0090 c3        1 E59     -0.051900
      9 S9         -2.7080    1.4160    1.1790 ss        1 E59     -0.095300
     10 C10        -2.9300    2.7700    2.2750 c3        1 E59     -0.148300
     11 C11        -4.1770    2.6550    3.0930 c         1 E59      0.563700
     12 O12        -5.1430    3.4030    2.9330 o         1 E59     -0.458100
     13 C13        -4.2190    1.5890    4.1370 ca        1 E59     -0.024600
     14 C14        -3.2460    1.5250    5.1420 ca        1 E59     -0.103500
     15 C15        -3.3290    0.5450    6.1220 ca        1 E59      0.004500
     16 C16        -4.3840   -0.3950    6.1340 ca        1 E59     -0.544500
     17 C17        -5.3490   -0.3140    5.1050 ca        1 E59      0.004500
     18 C18        -5.2750    0.6650    4.1270 ca        1 E59     -0.103500
     19 S19        -4.4290   -1.5710    7.2170 sy        1 E59      1.492200
     20 O20        -5.2610   -2.6260    6.9140 o         1 E59     -0.563800
     21 O21        -3.2800   -1.7340    7.9590 o         1 E59     -0.563800
     22 N22        -5.5260   -0.6730    8.5230 n4        1 E59     -0.787500
     23 H1         -1.4720   -0.7840    0.1660 hn        1 E59      0.351500
     24 H3          1.1020   -2.0630    3.2990 ha        1 E59      0.181000
     25 H8          0.9960   -0.8890    5.3840 hc        1 E59      0.057033
     26 H8A        -0.4120    0.2070    5.7340 hc        1 E59      0.057033
     27 H8B         1.0890    0.8760    4.9640 hc        1 E59      0.057033
     28 H10        -3.0240    3.6670    1.5970 h1        1 E59      0.135200
     29 H10A       -2.0520    2.9530    2.9460 h1        1 E59      0.135200
     30 H14        -2.3980    2.2330    5.1440 ha        1 E59      0.185000
     31 H15        -2.5400    0.4850    6.8960 ha        1 E59      0.171000
     32 H17        -6.1710   -1.0550    5.0720 ha        1 E59      0.171000
     33 H18        -6.0450    0.7240    3.3370 ha        1 E59      0.185000
     34 HN22       -5.0270   -0.5910    9.4080 hn        1 E59      0.456467
     35 HN2A       -5.7960    0.2610    8.2300 hn        1 E59      0.456467
     36 H223       -6.3770   -1.2060    8.6960 hn        1 E59      0.456467
@<TRIPOS>BOND
     1    1    2 1   
     2    1    6 1   
     3    1   23 1   
     4    2    3 1   
     5    2    7 2   
     6    3    4 2   
     7    3   24 1   
     8    4    5 1   
     9    4    8 1   
    10    5    6 2   
    11    6    9 1   
    12    8   25 1   
    13    8   26 1   
    14    8   27 1   
    15    9   10 1   
    16   10   11 1   
    17   10   28 1   
    18   10   29 1   
    19   11   12 2   
    20   11   13 1   
    21   13   14 ar  
    22   13   18 ar  
    23   14   15 ar  
    24   14   30 1   
    25   15   16 ar  
    26   15   31 1   
    27   16   17 ar  
    28   16   19 1   
    29   17   18 ar  
    30   17   32 1   
    31   18   33 1   
    32   19   20 2   
    33   19   21 2   
    34   19   22 1   
    35   22   34 1   
    36   22   35 1   
    37   22   36 1   
@<TRIPOS>SUBSTRUCTURE
     1 E59         1 TEMP              0 ****  ****    0 ROOT
