@<TRIPOS>MOLECULE
E59
   35    32     1     0     0
SMALL
bcc


@<TRIPOS>ATOM
      1 N1         -0.4340   -4.8660   -0.8950 n         1 E59     -0.308000
      2 C2         -1.0170   -5.8430   -0.0470 c2        1 E59      0.335000
      3 C3         -1.8770   -5.4250    1.0680 c2        1 E59     -0.284000
      4 C4         -2.1860   -4.0020    1.2590 c1        1 E59      0.059000
      5 N5         -1.6010   -3.0310    0.4070 n1        1 E59     -0.250000
      6 C6         -0.7440   -3.4500   -0.7030 c2        1 E59     -0.027000
      7 O7         -0.7590   -7.0190   -0.2080 o         1 E59     -0.345000
      8 C8         -3.1980   -3.5820    2.3030 c3        1 E59     -0.177000
      9 S9         -0.1470   -2.2480   -1.8610 ss        1 E59      0.311000
     10 C10         0.9940   -1.1610   -1.0480 c3        1 E59     -0.351000
     11 C11         1.1200    0.1210   -1.8410 c2        1 E59      0.278000
     12 O12         1.1470    0.0840   -3.0550 o         1 E59     -0.259000
     13 C13         1.1680    1.4510   -1.1250 c2        1 E59     -0.096000
     14 C14         2.3340    2.2000   -1.1320 c2        1 E59     -0.102000
     15 C15         2.3590    3.4490   -0.5320 c1        1 E59     -0.030000
     16 C16         1.2180    3.9490    0.0750 c1        1 E59     -0.794000
     17 C17         0.0520    3.2000    0.0830 c1        1 E59     -0.031000
     18 C18         0.0270    1.9510   -0.5170 c1        1 E59     -0.122000
     19 S19         1.2650    5.5230    0.8900 s4        1 E59      2.078800
     20 O20         2.5410    5.7510    1.5100 o         1 E59     -0.540400
     21 O21         0.3920    5.5460    2.0310 o         1 E59     -0.540400
     22 N22         0.8940    6.7220   -0.1680 n2        1 E59     -0.954000
     23 H1          0.1000   -5.1250   -1.5880 hn        1 E59      0.258000
     24 H3         -2.2790   -6.0960    1.6530 ha        1 E59      0.171000
     25 H8         -2.8160   -3.7070    3.1970 hc        1 E59      0.098333
     26 H8A        -3.4270   -2.6380    2.1740 hc        1 E59      0.098333
     27 H8B        -4.0060   -4.1290    2.2130 hc        1 E59      0.098333
     28 H10         1.8690   -1.5940   -0.9860 h1        1 E59      0.151500
     29 H10A        0.6660   -0.9570   -0.1500 h1        1 E59      0.151500
     30 H14         3.1370    1.8480   -1.5600 ha        1 E59      0.162000
     31 H15         3.1800    3.9770   -0.5380 ha        1 E59      0.160000
     32 H17        -0.7520    3.5520    0.5110 ha        1 E59      0.160000
     33 H18        -0.7950    1.4240   -0.5120 ha        1 E59      0.146000
     34 HN22        0.0360    6.8180   -0.4670 hn        1 E59      0.246000
     35 HN2A        1.5420    7.3070   -0.4410 hn        1 E59      0.246000
@<TRIPOS>BOND
     1    1    2 1   
     2    1    6 1   
     3    1   23 1   
     4    2    3 1   
     5    2    7 1   
     6    3    4 1   
     7    3   24 1   
     8    4    8 1   
     9    5    6 1   
    10    6    9 1   
    11    8   25 1   
    12    8   26 1   
    13    8   27 1   
    14    9   10 1   
    15   10   11 1   
    16   10   28 1   
    17   10   29 1   
    18   11   12 1   
    19   11   13 1   
    20   13   14 1   
    21   13   18 1   
    22   14   15 1   
    23   14   30 1   
    24   15   31 1   
    25   16   17 1   
    26   16   19 1   
    27   17   32 1   
    28   18   33 1   
    29   19   20 1   
    30   19   21 1   
    31   22   34 1   
    32   22   35 1   
@<TRIPOS>SUBSTRUCTURE
     1 E59         1 TEMP              0 ****  ****    0 ROOT
