@<TRIPOS>MOLECULE
E59
   35    36     1     0     0
SMALL
bcc


@<TRIPOS>ATOM
      1 N1          5.1330    0.7390   -0.2550 n         1 E59     -0.468400
      2 C2          6.1840   -0.1890   -0.4570 c         1 E59      0.696700
      3 C3          5.8020   -1.5970   -0.3940 cc        1 E59     -0.303200
      4 C4          4.4970   -1.9490   -0.1490 cd        1 E59      0.195400
      5 N5          3.4980   -0.9980    0.0460 nd        1 E59     -0.678300
      6 C6          3.8430    0.2870   -0.0130 cc        1 E59      0.491800
      7 O7          7.3260    0.2530   -0.6690 o         1 E59     -0.620500
      8 C8          4.0990   -3.3870   -0.0840 c3        1 E59     -0.054900
      9 S9          2.6620    1.5340    0.2220 ss        1 E59     -0.095300
     10 C10         1.1510    0.6420    0.4530 c3        1 E59     -0.140300
     11 C11        -0.0100    1.5770    0.6160 c         1 E59      0.587700
     12 O12         0.1150    2.7660    0.9230 o         1 E59     -0.498100
     13 C13        -1.3440    0.9710    0.3860 ca        1 E59     -0.115600
     14 C14        -1.5730   -0.3960    0.5750 ca        1 E59     -0.112000
     15 C15        -2.8430   -0.9240    0.3560 ca        1 E59     -0.030500
     16 C16        -3.9010   -0.1060   -0.0560 ca        1 E59     -0.349500
     17 C17        -3.6600    1.2570   -0.2500 ca        1 E59     -0.030500
     18 C18        -2.3960    1.7980   -0.0270 ca        1 E59     -0.112000
     19 S19        -5.4420   -0.7670   -0.3500 sy        1 E59      1.523200
     20 O20        -6.0830    0.0370   -1.3130 o         1 E59     -0.652800
     21 O21        -5.2780   -2.1380   -0.6310 o         1 E59     -0.652800
     22 N22        -6.1790   -0.5980    1.0590 n3        1 E59     -1.027700
     23 H1          5.3280    1.7160   -0.2870 hn        1 E59      0.344500
     24 H3          6.6040   -2.3280   -0.5510 ha        1 E59      0.171000
     25 H8          3.6650   -3.6250    0.9190 hc        1 E59      0.059033
     26 H8A         3.3290   -3.6130   -0.8640 hc        1 E59      0.059033
     27 H8B         4.9890   -4.0400   -0.2560 hc        1 E59      0.059033
     28 H10         0.9650   -0.0360   -0.4210 h1        1 E59      0.112200
     29 H10A        1.2190   -0.0030    1.3680 h1        1 E59      0.112200
     30 H14        -0.7570   -1.0610    0.8990 ha        1 E59      0.154000
     31 H15        -3.0160   -2.0070    0.4890 ha        1 E59      0.160000
     32 H17        -4.4800    1.9090   -0.6020 ha        1 E59      0.160000
     33 H18        -2.2150    2.8760   -0.1700 ha        1 E59      0.154000
     34 HN22       -6.7170    0.1950    1.3050 hn        1 E59      0.450800
     35 HN2A       -6.1710   -1.2870    1.7680 hn        1 E59      0.450800
@<TRIPOS>BOND
     1    1    2 1   
     2    1    6 1   
     3    1   23 1   
     4    2    3 1   
     5    2    7 2   
     6    3    4 2   
     7    3   24 1   
     8    4    5 1   
     9    4    8 1   
    10    5    6 2   
    11    6    9 1   
    12    8   25 1   
    13    8   26 1   
    14    8   27 1   
    15    9   10 1   
    16   10   11 1   
    17   10   28 1   
    18   10   29 1   
    19   11   12 2   
    20   11   13 1   
    21   13   14 ar  
    22   13   18 ar  
    23   14   15 ar  
    24   14   30 1   
    25   15   16 ar  
    26   15   31 1   
    27   16   17 ar  
    28   16   19 1   
    29   17   18 ar  
    30   17   32 1   
    31   18   33 1   
    32   19   20 2   
    33   19   21 2   
    34   19   22 1   
    35   22   34 1   
    36   22   35 1   
@<TRIPOS>SUBSTRUCTURE
     1 E59         1 TEMP              0 ****  ****    0 ROOT
