@<TRIPOS>MOLECULE
E59
   36    37     1     0     0
SMALL
bcc


@<TRIPOS>ATOM
      1 N1         -1.2960   -0.9850    1.1100 n         1 E59     -0.465400
      2 C2         -0.3670   -1.9330    1.6150 c         1 E59      0.692700
      3 C3          0.1980   -1.6210    2.9280 cc        1 E59     -0.280200
      4 C4         -0.1890   -0.4870    3.5940 cd        1 E59      0.174400
      5 N5         -1.1340    0.3960    3.0710 nd        1 E59     -0.702300
      6 C6         -1.6230    0.1310    1.8620 cc        1 E59      0.492800
      7 O7         -0.1150   -2.9320    0.9250 o         1 E59     -0.585500
      8 C8          0.4140   -0.1450    4.9170 c3        1 E59     -0.051900
      9 S9         -2.7630    1.2080    1.1080 ss        1 E59     -0.095300
     10 C10        -2.8790    2.6360    2.1230 c3        1 E59     -0.148300
     11 C11        -4.1010    2.6360    2.9870 c         1 E59      0.563700
     12 O12        -5.0320    3.4220    2.8110 o         1 E59     -0.458100
     13 C13        -4.1590    1.6390    4.0960 ca        1 E59     -0.024600
     14 C14        -3.1550    1.5850    5.0710 ca        1 E59     -0.103500
     15 C15        -3.2530    0.6720    6.1120 ca        1 E59      0.004500
     16 C16        -4.3520   -0.2100    6.2170 ca        1 E59     -0.544500
     17 C17        -5.3480   -0.1410    5.2160 ca        1 E59      0.004500
     18 C18        -5.2600    0.7720    4.1760 ca        1 E59     -0.103500
     19 S19        -4.4180   -1.3140    7.3710 sy        1 E59      1.492200
     20 O20        -5.3120   -2.3410    7.1610 o         1 E59     -0.563800
     21 O21        -3.2530   -1.4920    8.0850 o         1 E59     -0.563800
     22 N22        -5.4210   -0.2830    8.6540 n4        1 E59     -0.787500
     23 H1         -1.6740   -1.1110    0.1940 hn        1 E59      0.351500
     24 H3          0.9420   -2.3280    3.3180 ha        1 E59      0.181000
     25 H8         -0.3700    0.1610    5.6530 hc        1 E59      0.057033
     26 H8A         0.9680   -1.0260    5.3270 hc        1 E59      0.057033
     27 H8B         1.1340    0.7040    4.7950 hc        1 E59      0.057033
     28 H10        -1.9700    2.8130    2.7530 h1        1 E59      0.135200
     29 H10A       -2.9520    3.4940    1.3940 h1        1 E59      0.135200
     30 H14        -2.2740    2.2470    5.0020 ha        1 E59      0.185000
     31 H15        -2.4410    0.6170    6.8620 ha        1 E59      0.171000
     32 H17        -6.2060   -0.8390    5.2550 ha        1 E59      0.171000
     33 H18        -6.0530    0.8230    3.4100 ha        1 E59      0.185000
     34 HN22       -5.6550    0.6440    8.3120 hn        1 E59      0.456467
     35 HN2A       -4.8880   -0.1740    9.5150 hn        1 E59      0.456467
     36 H223       -6.2920   -0.7590    8.8860 hn        1 E59      0.456467
@<TRIPOS>BOND
     1    1    2 1   
     2    1    6 1   
     3    1   23 1   
     4    2    3 1   
     5    2    7 2   
     6    3    4 2   
     7    3   24 1   
     8    4    5 1   
     9    4    8 1   
    10    5    6 2   
    11    6    9 1   
    12    8   25 1   
    13    8   26 1   
    14    8   27 1   
    15    9   10 1   
    16   10   11 1   
    17   10   28 1   
    18   10   29 1   
    19   11   12 2   
    20   11   13 1   
    21   13   14 ar  
    22   13   18 ar  
    23   14   15 ar  
    24   14   30 1   
    25   15   16 ar  
    26   15   31 1   
    27   16   17 ar  
    28   16   19 1   
    29   17   18 ar  
    30   17   32 1   
    31   18   33 1   
    32   19   20 2   
    33   19   21 2   
    34   19   22 1   
    35   22   34 1   
    36   22   35 1   
    37   22   36 1   
@<TRIPOS>SUBSTRUCTURE
     1 E59         1 TEMP              0 ****  ****    0 ROOT
