@<TRIPOS>MOLECULE
E59
   36    37     1     0     0
SMALL
bcc


@<TRIPOS>ATOM
      1 N1         -1.2980   -1.0510    1.1310 ns        1 E59     -0.465400
      2 C2         -0.3610   -1.9820    1.6540 c         1 E59      0.692700
      3 C3          0.2060   -1.6370    2.9580 cc        1 E59     -0.280200
      4 C4         -0.1870   -0.4920    3.6010 cd        1 E59      0.174400
      5 N5         -1.1400    0.3730    3.0610 nd        1 E59     -0.702300
      6 C6         -1.6310    0.0790    1.8590 cc        1 E59      0.492800
      7 O7         -0.1040   -2.9930    0.9860 o         1 E59     -0.585500
      8 C8          0.4170   -0.1170    4.9150 c3        1 E59     -0.051900
      9 S9         -2.7790    1.1310    1.0860 ss        1 E59     -0.095300
     10 C10        -2.9020    2.5800    2.0700 c3        1 E59     -0.148300
     11 C11        -4.1220    2.5910    2.9370 c         1 E59      0.563700
     12 O12        -5.0600    3.3660    2.7460 o         1 E59     -0.458100
     13 C13        -4.1700    1.6180    4.0680 ca        1 E59     -0.024600
     14 C14        -3.1630    1.5920    5.0410 ca        1 E59     -0.103500
     15 C15        -3.2520    0.7030    6.1020 ca        1 E59      0.004500
     16 C16        -4.3440   -0.1840    6.2300 ca        1 E59     -0.544500
     17 C17        -5.3430   -0.1440    5.2310 ca        1 E59      0.004500
     18 C18        -5.2640    0.7460    4.1710 ca        1 E59     -0.103500
     19 S19        -4.4000   -1.2620    7.4100 sy        1 E59      1.492200
     20 O20        -5.2860   -2.3000    7.2250 o         1 E59     -0.563800
     21 O21        -3.2320   -1.4160    8.1240 o         1 E59     -0.563800
     22 N22        -5.4070   -0.2100    8.6710 nz        1 E59     -0.787500
     23 H1         -1.6770   -1.2000    0.2200 hn        1 E59      0.351500
     24 H3          0.9560   -2.3300    3.3610 ha        1 E59      0.181000
     25 H8          0.9780   -0.9840    5.3420 hc        1 E59      0.057033
     26 H8A        -0.3670    0.2000    5.6450 hc        1 E59      0.057033
     27 H8B         1.1310    0.7340    4.7720 hc        1 E59      0.057033
     28 H10        -2.9840    3.4210    1.3220 h1        1 E59      0.135200
     29 H10A       -1.9930    2.7780    2.6930 h1        1 E59      0.135200
     30 H14        -2.2870    2.2590    4.9550 ha        1 E59      0.185000
     31 H15        -2.4380    0.6710    6.8520 ha        1 E59      0.171000
     32 H17        -6.1960   -0.8480    5.2880 ha        1 E59      0.171000
     33 H18        -6.0600    0.7730    3.4060 ha        1 E59      0.185000
     34 HN22       -4.8730   -0.0780    9.5280 hn        1 E59      0.456467
     35 HN2A       -5.6490    0.7080    8.3090 hn        1 E59      0.456467
     36 H223       -6.2730   -0.6870    8.9160 hn        1 E59      0.456467
@<TRIPOS>BOND
     1    1    2 1   
     2    1    6 1   
     3    1   23 1   
     4    2    3 1   
     5    2    7 2   
     6    3    4 2   
     7    3   24 1   
     8    4    5 1   
     9    4    8 1   
    10    5    6 2   
    11    6    9 1   
    12    8   25 1   
    13    8   26 1   
    14    8   27 1   
    15    9   10 1   
    16   10   11 1   
    17   10   28 1   
    18   10   29 1   
    19   11   12 2   
    20   11   13 1   
    21   13   14 ar  
    22   13   18 ar  
    23   14   15 ar  
    24   14   30 1   
    25   15   16 ar  
    26   15   31 1   
    27   16   17 ar  
    28   16   19 1   
    29   17   18 ar  
    30   17   32 1   
    31   18   33 1   
    32   19   20 2   
    33   19   21 2   
    34   19   22 1   
    35   22   34 1   
    36   22   35 1   
    37   22   36 1   
@<TRIPOS>SUBSTRUCTURE
     1 E59         1 TEMP              0 ****  ****    0 ROOT
