@<TRIPOS>MOLECULE
E5G
   40    40     1     0     0
SMALL
bcc


@<TRIPOS>ATOM
      1 O6          0.4670    0.0100   -5.0720 oh        1 E5G     -0.594800
      2 C6         -0.2220    1.0320   -4.3130 c3        1 E5G      0.138400
      3 C5          0.2810    1.0300   -2.8940 c3        1 E5G      0.148100
      4 O5          0.4260   -0.3740   -2.4420 os        1 E5G     -0.423600
      5 C4          1.5770    1.7920   -2.8330 c3        1 E5G      0.128100
      6 O4          1.3150    3.1810   -3.1140 oh        1 E5G     -0.599800
      7 C3          2.2320    1.6850   -1.5010 c3        1 E5G      0.074100
      8 O3          3.5500    2.2760   -1.5840 oh        1 E5G     -0.605800
      9 C2          2.3710    0.2700   -1.0560 c3        1 E5G      0.095100
     10 O2          2.8280    0.2560    0.2950 oh        1 E5G     -0.594800
     11 C1          1.0640   -0.4900   -1.1340 c3        1 E5G      0.302900
     12 O1          0.1840    0.0050   -0.1500 os        1 E5G     -0.465600
     13 C15        -0.5330   -1.0450    0.5890 c3        1 E5G      0.136400
     14 C14        -1.2150   -0.4400    1.7830 c3        1 E5G     -0.084400
     15 C13        -1.7900   -1.5560    2.6650 c3        1 E5G     -0.078400
     16 C12        -2.1910   -0.9750    4.0260 c3        1 E5G     -0.083400
     17 C11        -2.8050   -2.0780    4.8990 c3        1 E5G      0.132400
     18 O11        -2.9250   -1.6240    6.1860 oh        1 E5G     -0.600800
     19 H1          0.2940    0.1220   -5.9540 ho        1 E5G      0.401000
     20 H2         -1.1850    0.8460   -4.3170 h1        1 E5G      0.041200
     21 H3         -0.0510    1.9380   -4.7330 h1        1 E5G      0.041200
     22 H4         -0.3900    1.4890   -2.3120 h1        1 E5G      0.066700
     23 H5          2.1650    1.4510   -3.4930 h1        1 E5G      0.080700
     24 H6          1.8540    3.4570   -3.7640 ho        1 E5G      0.423000
     25 H7          1.6910    2.1880   -0.8280 h1        1 E5G      0.062700
     26 H8          3.6530    2.8560   -0.9340 ho        1 E5G      0.421000
     27 H9          3.0210   -0.1700   -1.6090 h1        1 E5G      0.103700
     28 H10         3.6110   -0.1990    0.3460 ho        1 E5G      0.420000
     29 H11         1.2370   -1.4200   -0.9560 h2        1 E5G      0.089700
     30 H12         0.1080   -1.7300    0.8910 h1        1 E5G      0.037700
     31 H13        -1.2060   -1.4620    0.0010 h1        1 E5G      0.037700
     32 H14        -1.9530    0.1570    1.4780 hc        1 E5G      0.055700
     33 H15        -0.5690    0.0800    2.2980 hc        1 E5G      0.055700
     34 H16        -1.1070   -2.2580    2.7950 hc        1 E5G      0.041200
     35 H17        -2.5830   -1.9460    2.2270 hc        1 E5G      0.041200
     36 H18        -1.4190   -0.6200    4.4590 hc        1 E5G      0.057700
     37 H19        -2.8590   -0.2490    3.8920 hc        1 E5G      0.057700
     38 H20        -2.2160   -2.8840    4.8830 h1        1 E5G      0.019700
     39 H21        -3.6650   -2.3070    4.5630 h1        1 E5G      0.019700
     40 H22        -3.0490   -2.2930    6.7170 ho        1 E5G      0.400000
@<TRIPOS>BOND
     1    1    2 1   
     2    1   19 1   
     3    2    3 1   
     4    2   20 1   
     5    2   21 1   
     6    3    4 1   
     7    3    5 1   
     8    3   22 1   
     9    4   11 1   
    10    5    6 1   
    11    5    7 1   
    12    5   23 1   
    13    6   24 1   
    14    7    8 1   
    15    7    9 1   
    16    7   25 1   
    17    8   26 1   
    18    9   10 1   
    19    9   11 1   
    20    9   27 1   
    21   10   28 1   
    22   11   12 1   
    23   11   29 1   
    24   12   13 1   
    25   13   14 1   
    26   13   30 1   
    27   13   31 1   
    28   14   15 1   
    29   14   32 1   
    30   14   33 1   
    31   15   16 1   
    32   15   34 1   
    33   15   35 1   
    34   16   17 1   
    35   16   36 1   
    36   16   37 1   
    37   17   18 1   
    38   17   38 1   
    39   17   39 1   
    40   18   40 1   
@<TRIPOS>SUBSTRUCTURE
     1 E5G         1 TEMP              0 ****  ****    0 ROOT
