@<TRIPOS>MOLECULE
E5G
   40    40     1     0     0
SMALL
bcc


@<TRIPOS>ATOM
      1 O6          0.7860   -3.3700    0.1640 oh        1 E5G     -0.598800
      2 C6          2.0460   -2.7210    0.2210 c3        1 E5G      0.135400
      3 C5          1.7890   -1.2320   -0.0110 c3        1 E5G      0.142100
      4 O5          1.4510   -0.6820    1.2680 os        1 E5G     -0.430600
      5 C4          3.0480   -0.5330   -0.5520 c3        1 E5G      0.125100
      6 O4          3.3420   -1.1020   -1.8160 oh        1 E5G     -0.595800
      7 C3          2.7600    0.9720   -0.6830 c3        1 E5G      0.074100
      8 O3          3.9630    1.5790   -1.1270 oh        1 E5G     -0.608800
      9 C2          2.3200    1.5440    0.6710 c3        1 E5G      0.095100
     10 O2          1.9460    2.8980    0.5340 oh        1 E5G     -0.594800
     11 C1          1.1780    0.7010    1.2700 c3        1 E5G      0.303900
     12 O1          0.0370    0.9170    0.4620 os        1 E5G     -0.465600
     13 C15        -1.1660    0.3670    1.0100 c3        1 E5G      0.134400
     14 C14        -2.2630    0.6420   -0.0030 c3        1 E5G     -0.083400
     15 C13        -3.5770    0.0680    0.4790 c3        1 E5G     -0.078400
     16 C12        -4.6840    0.3510   -0.5110 c3        1 E5G     -0.083400
     17 C11        -5.9960   -0.2430   -0.0280 c3        1 E5G      0.132400
     18 O11        -6.9820    0.0880   -0.9930 oh        1 E5G     -0.601800
     19 H1          0.9510   -4.3020    0.3480 ho        1 E5G      0.402000
     20 H2          2.5230   -2.8840    1.2230 h1        1 E5G      0.046200
     21 H3          2.7150   -3.1060   -0.5950 h1        1 E5G      0.046200
     22 H4          0.9270   -1.0880   -0.7190 h1        1 E5G      0.088700
     23 H5          3.9170   -0.6910    0.1440 h1        1 E5G      0.056700
     24 H6          4.0330   -0.5510   -2.2090 ho        1 E5G      0.425000
     25 H7          1.9510    1.1410   -1.4490 h1        1 E5G      0.065700
     26 H8          3.8410    2.5340   -1.0360 ho        1 E5G      0.424000
     27 H9          3.1880    1.5540    1.3880 h1        1 E5G      0.098700
     28 H10         1.1070    2.9210    0.0510 ho        1 E5G      0.422000
     29 H11         0.9890    0.9580    2.3500 h2        1 E5G      0.088700
     30 H12        -1.0260   -0.7350    1.1720 h1        1 E5G      0.043200
     31 H13        -1.3840    0.8660    1.9910 h1        1 E5G      0.043200
     32 H14        -2.3580    1.7480   -0.1610 hc        1 E5G      0.055200
     33 H15        -1.9800    0.1880   -0.9880 hc        1 E5G      0.055200
     34 H16        -3.4720   -1.0400    0.6240 hc        1 E5G      0.042700
     35 H17        -3.8390    0.5100    1.4760 hc        1 E5G      0.042700
     36 H18        -4.8080    1.4560   -0.6500 hc        1 E5G      0.057200
     37 H19        -4.4290   -0.0820   -1.5130 hc        1 E5G      0.057200
     38 H20        -5.9130   -1.3590    0.0680 h1        1 E5G      0.020200
     39 H21        -6.2800    0.1850    0.9710 h1        1 E5G      0.020200
     40 H22        -7.8080   -0.3060   -0.6890 ho        1 E5G      0.399000
@<TRIPOS>BOND
     1    1    2 1   
     2    1   19 1   
     3    2    3 1   
     4    2   20 1   
     5    2   21 1   
     6    3    4 1   
     7    3    5 1   
     8    3   22 1   
     9    4   11 1   
    10    5    6 1   
    11    5    7 1   
    12    5   23 1   
    13    6   24 1   
    14    7    8 1   
    15    7    9 1   
    16    7   25 1   
    17    8   26 1   
    18    9   10 1   
    19    9   11 1   
    20    9   27 1   
    21   10   28 1   
    22   11   12 1   
    23   11   29 1   
    24   12   13 1   
    25   13   14 1   
    26   13   30 1   
    27   13   31 1   
    28   14   15 1   
    29   14   32 1   
    30   14   33 1   
    31   15   16 1   
    32   15   34 1   
    33   15   35 1   
    34   16   17 1   
    35   16   36 1   
    36   16   37 1   
    37   17   18 1   
    38   17   38 1   
    39   17   39 1   
    40   18   40 1   
@<TRIPOS>SUBSTRUCTURE
     1 E5G         1 TEMP              0 ****  ****    0 ROOT
