@<TRIPOS>MOLECULE
E5S
   63    66     1     0     0
SMALL
bcc


@<TRIPOS>ATOM
      1 CAO        -0.3400   -0.0470    0.9400 c3        1 E5S     -0.076000
      2 CAM         0.9240   -0.7650    0.4600 c3        1 E5S     -0.164000
      3 CBB         2.0590   -0.7070    1.4770 c3        1 E5S     -0.170000
      4 CAN         2.1190   -1.9130    2.2870 c1        1 E5S     -0.046000
      5 CAP        -0.8160   -1.0790    3.0830 c3        1 E5S     -0.127000
      6 NBD        -0.4730    0.1350    2.3750 n3        1 E5S     -0.249000
      7 CAT         0.6490    0.8620    2.9390 c3        1 E5S     -0.093000
      8 CBF         2.0320    0.6340    2.2510 c3        1 E5S      0.152000
      9 OAC         3.0300    0.5020    3.2680 oh        1 E5S     -0.327000
     10 CAE         2.3440    1.7430    1.3730 c1        1 E5S     -0.205000
     11 CAD         2.6000    2.6620    0.6470 c1        1 E5S     -0.067000
     12 CAX         2.9190    3.7410   -0.1910 c2        1 E5S     -0.083000
     13 CAK         4.2020    4.3160   -0.1360 c2        1 E5S     -0.035000
     14 CAL         4.5230    5.3810   -0.9600 c2        1 E5S     -0.238000
     15 CAY         3.5300    5.8820   -1.8610 c2        1 E5S      0.147000
     16 NBE         3.8030    7.0280   -2.6250 nh        1 E5S     -0.240000
     17 CAS         2.9130    7.4230   -3.7080 c3        1 E5S     -0.042000
     18 CAR         5.1880    7.3370   -2.9460 c3        1 E5S     -0.079000
     19 CBA         5.2080    8.1880   -4.2390 c3        1 E5S     -0.001000
     20 OAB         6.0990    7.6520   -5.1890 oh        1 E5S     -0.317000
     21 CBC         3.7430    8.2260   -4.7370 c3        1 E5S     -0.023000
     22 OAV         3.6160    7.5440   -5.9800 os        1 E5S     -0.279000
     23 CAA         3.8790    8.3670   -7.1080 c3        1 E5S     -0.082000
     24 NAU         2.2810    5.3190   -1.9290 n2        1 E5S     -0.203000
     25 CAZ         1.9850    4.2890   -1.1120 c2        1 E5S      0.069000
     26 CAQ         0.6000    3.6950   -1.2140 c3        1 E5S     -0.083000
     27 CAW        -0.4230    4.5420   -0.5370 ca        1 E5S     -0.075000
     28 CAI        -0.9800    4.1360    0.6810 ca        1 E5S     -0.117500
     29 CAG        -1.9580    4.9130    1.3000 ca        1 E5S     -0.133000
     30 CAF        -2.3860    6.1010    0.7080 ca        1 E5S     -0.129000
     31 CAH        -1.8350    6.5090   -0.5070 ca        1 E5S     -0.133000
     32 CAJ        -0.8590    5.7330   -1.1290 ca        1 E5S     -0.117500
     33 H1         -0.3650    0.9860    0.4860 h1        1 E5S      0.095000
     34 H2         -1.2440   -0.6070    0.5690 h1        1 E5S      0.095000
     35 H3          1.2600   -0.2890   -0.4970 hc        1 E5S      0.100000
     36 H4          0.6960   -1.8420    0.2430 hc        1 E5S      0.100000
     37 H5          3.0510   -0.7620    0.9170 hc        1 E5S      0.164000
     38 H6         -0.0460   -1.8960    2.9890 h1        1 E5S      0.077667
     39 H7          2.4340   -1.7870    3.3350 ha        1 E5S      0.058000
     40 H8         -1.7860   -1.4650    2.6730 h1        1 E5S      0.077667
     41 H9         -0.9560   -0.8430    4.1710 h1        1 E5S      0.077667
     42 H11         0.3900    1.9560    2.8610 h1        1 E5S      0.101500
     43 H12         0.7670    0.6090    4.0300 h1        1 E5S      0.101500
     44 H13         3.1170    1.3620    3.6960 ho        1 E5S      0.213000
     45 H14         4.9500    3.9150    0.5660 ha        1 E5S      0.144000
     46 H15         5.5200    5.8370   -0.9060 ha        1 E5S      0.147000
     47 H16         2.4330    6.5440   -4.2220 h1        1 E5S      0.115500
     48 H17         2.1030    8.0680   -3.2720 h1        1 E5S      0.115500
     49 H18         5.6250    7.9210   -2.0900 h1        1 E5S      0.099500
     50 H19         5.8110    6.4110   -3.0950 h1        1 E5S      0.099500
     51 H20         5.5980    9.2190   -4.0310 h1        1 E5S      0.127000
     52 H21         5.6890    6.8600   -5.5660 ho        1 E5S      0.218000
     53 H22         3.3730    9.2800   -4.8230 h1        1 E5S      0.104000
     54 H23         3.1480    9.2110   -7.1560 h1        1 E5S      0.082667
     55 H24         3.7450    7.6820   -7.9830 h1        1 E5S      0.082667
     56 H25         4.9250    8.7600   -7.0680 h1        1 E5S      0.082667
     57 H26         0.6140    2.6670   -0.7580 hc        1 E5S      0.107500
     58 H27         0.3220    3.5760   -2.2980 hc        1 E5S      0.107500
     59 H28        -0.6480    3.1980    1.1530 ha        1 E5S      0.140000
     60 H29        -2.3920    4.5860    2.2560 ha        1 E5S      0.130500
     61 H30        -3.1570    6.7140    1.1970 ha        1 E5S      0.129000
     62 H31        -2.1720    7.4450   -0.9770 ha        1 E5S      0.130500
     63 H32        -0.4230    6.0570   -2.0870 ha        1 E5S      0.140000
@<TRIPOS>BOND
     1    1    2 1   
     2    1    6 1   
     3    1   33 1   
     4    1   34 1   
     5    2    3 1   
     6    2   35 1   
     7    2   36 1   
     8    3    4 1   
     9    3    8 1   
    10    3   37 1   
    11    4   39 1   
    12    5    6 1   
    13    5   38 1   
    14    5   40 1   
    15    5   41 1   
    16    6    7 1   
    17    7    8 1   
    18    7   42 1   
    19    7   43 1   
    20    8    9 1   
    21    8   10 1   
    22    9   44 1   
    23   10   11 1   
    24   11   12 1   
    25   12   13 1   
    26   12   25 1   
    27   13   14 1   
    28   13   45 1   
    29   14   15 1   
    30   14   46 1   
    31   15   16 1   
    32   15   24 1   
    33   16   17 1   
    34   16   18 1   
    35   17   21 1   
    36   17   47 1   
    37   17   48 1   
    38   18   19 1   
    39   18   49 1   
    40   18   50 1   
    41   19   20 1   
    42   19   21 1   
    43   19   51 1   
    44   20   52 1   
    45   21   22 1   
    46   21   53 1   
    47   22   23 1   
    48   23   54 1   
    49   23   55 1   
    50   23   56 1   
    51   24   25 1   
    52   25   26 1   
    53   26   27 1   
    54   26   57 1   
    55   26   58 1   
    56   27   28 1   
    57   27   32 1   
    58   28   29 1   
    59   28   59 1   
    60   29   30 1   
    61   29   60 1   
    62   30   31 1   
    63   30   61 1   
    64   31   32 1   
    65   31   62 1   
    66   32   63 1   
@<TRIPOS>SUBSTRUCTURE
     1 E5S         1 TEMP              0 ****  ****    0 ROOT
