@<TRIPOS>MOLECULE
E5S
   63    67     1     0     0
SMALL
bcc


@<TRIPOS>ATOM
      1 CAO        -0.2430   -0.4690    0.3290 c3        1 E5S      0.133800
      2 CAM         1.2800   -0.5500    0.5380 c3        1 E5S     -0.107400
      3 CBB         1.6060   -0.1550    1.9780 c3        1 E5S     -0.047700
      4 CAN         0.8490   -1.0890    2.9210 c3        1 E5S     -0.107400
      5 CAP        -0.6580   -0.9910    2.6200 c3        1 E5S      0.133800
      6 NBD        -0.9580   -0.0370    1.5410 n3        1 E5S     -0.660600
      7 CAT        -0.4610    1.2860    1.9310 c3        1 E5S      0.118800
      8 CBF         1.0820    1.2900    2.2110 c3        1 E5S      0.208900
      9 OAC         1.3220    1.5850    3.5860 oh        1 E5S     -0.585800
     10 CAE         1.7570    2.2420    1.3540 c1        1 E5S     -0.170100
     11 CAD         2.3230    3.0250    0.6440 cg        1 E5S     -0.072000
     12 CAX         2.9790    3.9500   -0.1820 ca        1 E5S     -0.151300
     13 CAK         2.5790    5.2980   -0.1910 ca        1 E5S     -0.034000
     14 CAL         3.2270    6.2100   -1.0060 ca        1 E5S     -0.305300
     15 CAY         4.3040    5.7560   -1.8340 ca        1 E5S      0.669200
     16 NBE         5.0320    6.6860   -2.5890 nh        1 E5S     -0.740300
     17 CAS         6.0290    6.2500   -3.5550 c3        1 E5S      0.171800
     18 CAR         4.3720    7.9020   -3.0340 c3        1 E5S      0.157800
     19 CBA         5.0170    8.3420   -4.3730 c3        1 E5S      0.132100
     20 OAB         5.4990    9.6660   -4.3260 oh        1 E5S     -0.553800
     21 CBC         6.2020    7.3750   -4.6060 c3        1 E5S      0.131100
     22 OAV         7.4110    8.0870   -4.3940 os        1 E5S     -0.378600
     23 CAA         8.5400    7.4590   -4.9820 c3        1 E5S      0.109700
     24 NAU         4.6940    4.4400   -1.8370 nb        1 E5S     -0.733000
     25 CAZ         4.0570    3.5720   -1.0280 ca        1 E5S      0.491600
     26 CAQ         4.5170    2.1330   -1.0500 c3        1 E5S     -0.090400
     27 CAW         5.7500    1.9350   -0.2370 ca        1 E5S     -0.081300
     28 CAI         6.9990    2.3070   -0.7480 ca        1 E5S     -0.116500
     29 CAG         8.1550    2.0980    0.0030 ca        1 E5S     -0.133000
     30 CAF         8.0720    1.5160    1.2680 ca        1 E5S     -0.128000
     31 CAH         6.8300    1.1450    1.7820 ca        1 E5S     -0.133000
     32 CAJ         5.6720    1.3530    1.0330 ca        1 E5S     -0.116500
     33 H1         -0.4810    0.2570   -0.4950 h1        1 E5S      0.055950
     34 H2         -0.6450   -1.4740    0.0300 h1        1 E5S      0.055950
     35 H3          1.6420   -1.5910    0.3460 hc        1 E5S      0.053950
     36 H4          1.8060    0.1340   -0.1750 hc        1 E5S      0.053950
     37 H5          2.7060   -0.1950    2.1740 hc        1 E5S      0.072700
     38 H6          1.2060   -2.1390    2.7770 hc        1 E5S      0.053950
     39 H7          1.0500   -0.7930    3.9820 hc        1 E5S      0.053950
     40 H8         -1.0580   -1.9950    2.3160 h1        1 E5S      0.055950
     41 H9         -1.2120   -0.6620    3.5400 h1        1 E5S      0.055950
     42 H11        -0.7060    2.0120    1.1110 h1        1 E5S      0.066200
     43 H12        -0.9960    1.6060    2.8660 h1        1 E5S      0.066200
     44 H13         1.0970    2.5130    3.7210 ho        1 E5S      0.407000
     45 H14         1.7510    5.6260    0.4550 ha        1 E5S      0.142000
     46 H15         2.9290    7.2670   -0.9970 ha        1 E5S      0.145000
     47 H16         6.9940    6.0740   -3.0060 h1        1 E5S      0.067200
     48 H17         5.7310    5.2970   -4.0740 h1        1 E5S      0.067200
     49 H18         3.2650    7.7540   -3.1710 h1        1 E5S      0.056200
     50 H19         4.5320    8.6970   -2.2520 h1        1 E5S      0.056200
     51 H20         4.2740    8.2370   -5.2100 h1        1 E5S      0.042700
     52 H21         4.7460   10.2230   -4.0900 ho        1 E5S      0.397000
     53 H22         6.1690    6.9550   -5.6460 h1        1 E5S      0.053700
     54 H23         8.6930    6.4370   -4.5560 h1        1 E5S      0.035700
     55 H24         8.4240    7.3970   -6.0930 h1        1 E5S      0.035700
     56 H25         9.3940    8.1290   -4.7130 h1        1 E5S      0.035700
     57 H26         3.6870    1.4840   -0.6590 hc        1 E5S      0.067700
     58 H27         4.7180    1.8160   -2.1110 hc        1 E5S      0.067700
     59 H28         7.0630    2.7730   -1.7430 ha        1 E5S      0.138000
     60 H29         9.1320    2.3950   -0.4030 ha        1 E5S      0.130500
     61 H30         8.9840    1.3530    1.8600 ha        1 E5S      0.129000
     62 H31         6.7610    0.6900    2.7800 ha        1 E5S      0.130500
     63 H32         4.6930    1.0640    1.4450 ha        1 E5S      0.138000
@<TRIPOS>BOND
     1    1    2 1   
     2    1    6 1   
     3    1   33 1   
     4    1   34 1   
     5    2    3 1   
     6    2   35 1   
     7    2   36 1   
     8    3    4 1   
     9    3    8 1   
    10    3   37 1   
    11    4    5 1   
    12    4   38 1   
    13    4   39 1   
    14    5    6 1   
    15    5   40 1   
    16    5   41 1   
    17    6    7 1   
    18    7    8 1   
    19    7   42 1   
    20    7   43 1   
    21    8    9 1   
    22    8   10 1   
    23    9   44 1   
    24   10   11 3   
    25   11   12 1   
    26   12   13 ar  
    27   12   25 ar  
    28   13   14 ar  
    29   13   45 1   
    30   14   15 ar  
    31   14   46 1   
    32   15   16 1   
    33   15   24 ar  
    34   16   17 1   
    35   16   18 1   
    36   17   21 1   
    37   17   47 1   
    38   17   48 1   
    39   18   19 1   
    40   18   49 1   
    41   18   50 1   
    42   19   20 1   
    43   19   21 1   
    44   19   51 1   
    45   20   52 1   
    46   21   22 1   
    47   21   53 1   
    48   22   23 1   
    49   23   54 1   
    50   23   55 1   
    51   23   56 1   
    52   24   25 ar  
    53   25   26 1   
    54   26   27 1   
    55   26   57 1   
    56   26   58 1   
    57   27   28 ar  
    58   27   32 ar  
    59   28   29 ar  
    60   28   59 1   
    61   29   30 ar  
    62   29   60 1   
    63   30   31 ar  
    64   30   61 1   
    65   31   32 ar  
    66   31   62 1   
    67   32   63 1   
@<TRIPOS>SUBSTRUCTURE
     1 E5S         1 TEMP              0 ****  ****    0 ROOT
