@<TRIPOS>MOLECULE
E5S
   63    67     1     0     0
SMALL
bcc


@<TRIPOS>ATOM
      1 CAO         0.5050   -0.5740    0.3130 c3        1 E5S      0.133800
      2 CAM         1.9280   -0.3190    0.8430 c3        1 E5S     -0.107400
      3 CBB         1.8390    0.1950    2.2790 c3        1 E5S     -0.047700
      4 CAN         1.0920   -0.8410    3.1200 c3        1 E5S     -0.107400
      5 CAP        -0.2970   -1.0800    2.5020 c3        1 E5S      0.133800
      6 NBD        -0.5330   -0.2560    1.3050 n3        1 E5S     -0.660600
      7 CAT        -0.4110    1.1570    1.6750 c3        1 E5S      0.118800
      8 CBF         0.9980    1.5030    2.2710 c3        1 E5S      0.208900
      9 OAC         0.8610    1.8970    3.6350 oh        1 E5S     -0.585800
     10 CAE         1.6430    2.5410    1.4960 c1        1 E5S     -0.171100
     11 CAD         2.1850    3.3970    0.8550 cg        1 E5S     -0.072000
     12 CAX         2.8100    4.4060    0.1070 ca        1 E5S     -0.151300
     13 CAK         2.1600    5.6340   -0.1070 ca        1 E5S     -0.034000
     14 CAL         2.7780    6.6290   -0.8450 ca        1 E5S     -0.306300
     15 CAY         4.0830    6.3840   -1.3810 ca        1 E5S      0.669200
     16 NBE         4.7610    7.4170   -2.0440 nh        1 E5S     -0.740300
     17 CAS         6.0170    7.1650   -2.7330 c3        1 E5S      0.171800
     18 CAR         3.9870    8.4410   -2.7250 c3        1 E5S      0.157800
     19 CBA         4.8170    8.9530   -3.9310 c3        1 E5S      0.132100
     20 OAB         4.9990   10.3500   -3.9010 oh        1 E5S     -0.553800
     21 CBC         6.1940    8.2560   -3.8200 c3        1 E5S      0.131100
     22 OAV         7.1550    9.2210   -3.4200 os        1 E5S     -0.378600
     23 CAA         8.4900    8.8270   -3.6960 c3        1 E5S      0.109700
     24 NAU         4.7210    5.1850   -1.1830 nb        1 E5S     -0.733000
     25 CAZ         4.1060    4.2350   -0.4530 ca        1 E5S      0.491600
     26 CAQ         4.8390    2.9300   -0.2480 c3        1 E5S     -0.090400
     27 CAW         5.8690    3.0380    0.8240 ca        1 E5S     -0.081300
     28 CAI         7.1000    3.6490    0.5590 ca        1 E5S     -0.116500
     29 CAG         8.0720    3.7270    1.5550 ca        1 E5S     -0.133000
     30 CAF         7.8230    3.1960    2.8210 ca        1 E5S     -0.128000
     31 CAH         6.5970    2.5870    3.0890 ca        1 E5S     -0.133000
     32 CAJ         5.6230    2.5080    2.0950 ca        1 E5S     -0.116500
     33 H1          0.3170    0.0500   -0.6020 h1        1 E5S      0.055950
     34 H2          0.3890   -1.6530    0.0240 h1        1 E5S      0.055950
     35 H3          2.5240   -1.2650    0.8220 hc        1 E5S      0.053950
     36 H4          2.4520    0.4320    0.2000 hc        1 E5S      0.053950
     37 H5          2.8520    0.3990    2.7040 hc        1 E5S      0.072700
     38 H6          1.6750   -1.7940    3.1460 hc        1 E5S      0.053950
     39 H7          0.9880   -0.4660    4.1690 hc        1 E5S      0.053950
     40 H8         -0.4110   -2.1580    2.2080 h1        1 E5S      0.055950
     41 H9         -1.0980   -0.8400    3.2530 h1        1 E5S      0.055950
     42 H11        -0.6070    1.7800    0.7620 h1        1 E5S      0.066200
     43 H12        -1.1940    1.3930    2.4470 h1        1 E5S      0.066200
     44 H13         0.4300    2.7600    3.6390 ho        1 E5S      0.407000
     45 H14         1.1580    5.8030    0.3170 ha        1 E5S      0.142000
     46 H15         2.2790    7.5960   -0.9940 ha        1 E5S      0.145000
     47 H16         6.8480    7.2250   -1.9780 h1        1 E5S      0.067200
     48 H17         6.0420    6.1500   -3.2160 h1        1 E5S      0.067200
     49 H18         2.9940    8.0510   -3.0810 h1        1 E5S      0.056200
     50 H19         3.8030    9.2840   -2.0020 h1        1 E5S      0.056200
     51 H20         4.3200    8.6550   -4.8940 h1        1 E5S      0.042700
     52 H21         4.1160   10.7410   -3.8810 ho        1 E5S      0.397000
     53 H22         6.4820    7.7950   -4.8010 h1        1 E5S      0.053700
     54 H23         8.7450    7.8810   -3.1590 h1        1 E5S      0.035700
     55 H24         8.6440    8.6950   -4.7960 h1        1 E5S      0.035700
     56 H25         9.1080    9.6770   -3.3130 h1        1 E5S      0.035700
     57 H26         4.0900    2.1330    0.0140 hc        1 E5S      0.067700
     58 H27         5.3350    2.6190   -1.2090 hc        1 E5S      0.067700
     59 H28         7.2930    4.0750   -0.4370 ha        1 E5S      0.138000
     60 H29         9.0360    4.2110    1.3420 ha        1 E5S      0.130500
     61 H30         8.5910    3.2590    3.6060 ha        1 E5S      0.129000
     62 H31         6.3960    2.1710    4.0870 ha        1 E5S      0.130500
     63 H32         4.6540    2.0320    2.3140 ha        1 E5S      0.138000
@<TRIPOS>BOND
     1    1    2 1   
     2    1    6 1   
     3    1   33 1   
     4    1   34 1   
     5    2    3 1   
     6    2   35 1   
     7    2   36 1   
     8    3    4 1   
     9    3    8 1   
    10    3   37 1   
    11    4    5 1   
    12    4   38 1   
    13    4   39 1   
    14    5    6 1   
    15    5   40 1   
    16    5   41 1   
    17    6    7 1   
    18    7    8 1   
    19    7   42 1   
    20    7   43 1   
    21    8    9 1   
    22    8   10 1   
    23    9   44 1   
    24   10   11 3   
    25   11   12 1   
    26   12   13 ar  
    27   12   25 ar  
    28   13   14 ar  
    29   13   45 1   
    30   14   15 ar  
    31   14   46 1   
    32   15   16 1   
    33   15   24 ar  
    34   16   17 1   
    35   16   18 1   
    36   17   21 1   
    37   17   47 1   
    38   17   48 1   
    39   18   19 1   
    40   18   49 1   
    41   18   50 1   
    42   19   20 1   
    43   19   21 1   
    44   19   51 1   
    45   20   52 1   
    46   21   22 1   
    47   21   53 1   
    48   22   23 1   
    49   23   54 1   
    50   23   55 1   
    51   23   56 1   
    52   24   25 ar  
    53   25   26 1   
    54   26   27 1   
    55   26   57 1   
    56   26   58 1   
    57   27   28 ar  
    58   27   32 ar  
    59   28   29 ar  
    60   28   59 1   
    61   29   30 ar  
    62   29   60 1   
    63   30   31 ar  
    64   30   61 1   
    65   31   32 ar  
    66   31   62 1   
    67   32   63 1   
@<TRIPOS>SUBSTRUCTURE
     1 E5S         1 TEMP              0 ****  ****    0 ROOT
