@<TRIPOS>MOLECULE
E63
   54    46     1     0     0
SMALL
bcc


@<TRIPOS>ATOM
      1 O          -5.7070    3.1110   -4.9410 o         1 E63     -0.292000
      2 C1         -5.7410    2.1710   -4.1680 c1        1 E63      0.312000
      3 C3         -4.8690    1.9860   -2.9780 c1        1 E63     -0.093000
      4 C4         -3.8670    2.7920   -2.4090 c1        1 E63     -0.119250
      5 C5         -3.1600    2.3430   -1.3010 c1        1 E63     -0.119250
      6 C6         -3.4420    1.0970   -0.7530 c1        1 E63      0.105000
      7 C23        -4.4330    0.2990   -1.3150 c1        1 E63     -0.125000
      8 C2         -5.1490    0.7530   -2.4360 c1        1 E63     -0.093000
      9 N2         -6.1970    0.1220   -3.2580 n2        1 E63     -0.143000
     10 N1         -6.5670    1.0370   -4.2800 n3        1 E63     -0.264000
     11 N3         -2.7410    0.5600    0.3720 n3        1 E63     -0.237000
     12 C7         -1.4940   -0.1310    0.1780 c2        1 E63      0.191000
     13 N9         -1.3410   -0.9820   -0.8830 n2        1 E63     -0.225000
     14 C22        -0.1950   -1.6740   -1.0340 c1        1 E63      0.004000
     15 C15         0.8180   -1.5270   -0.1230 c1        1 E63     -0.192000
     16 N8          2.0540   -2.2510   -0.2950 n2        1 E63     -0.222000
     17 C16         2.0290   -3.6290   -0.7020 c2        1 E63      0.032000
     18 C21         2.2210   -3.9630   -2.0380 c2        1 E63     -0.177000
     19 C20         2.1630   -5.2930   -2.4370 c1        1 E63     -0.101000
     20 C19         1.9120   -6.2900   -1.5000 c1        1 E63     -0.119250
     21 C18         1.7200   -5.9560   -0.1640 c1        1 E63     -0.119250
     22 C17         1.7780   -4.6260    0.2350 c1        1 E63     -0.164000
     23 C8          0.6650   -0.6750    0.9410 c1        1 E63      0.216000
     24 N4         -0.4820    0.0160    1.0890 n2        1 E63     -0.299000
     25 N5          1.7040   -0.5640    1.9310 n2        1 E63     -0.224000
     26 C9          2.0720    0.7270    2.4440 c2        1 E63      0.044000
     27 C11         3.3000    1.3200    2.3240 c1        1 E63     -0.254000
     28 C10         3.2650    2.5060    3.0080 c1        1 E63     -0.068000
     29 N7          2.0300    2.6430    3.5430 n2        1 E63     -0.087000
     30 N6          1.2880    1.5370    3.1930 n2        1 E63     -0.141000
     31 C12         4.4010    3.5350    3.0870 cu        1 E63     -0.105000
     32 C14         4.6030    4.1920    4.4440 cx        1 E63     -0.197000
     33 C13         3.9710    4.9770    3.3060 cx        1 E63     -0.197000
     34 H4         -3.6680    3.6700   -2.7950 ha        1 E63      0.142250
     35 H5         -2.4610    2.9060   -0.9050 ha        1 E63      0.142250
     36 H21        -4.6320   -0.5790   -0.9290 ha        1 E63      0.170000
     37 H3         -6.9270   -0.0620   -2.7340 hn        1 E63      0.193000
     38 H2         -7.2060    0.8980   -4.9220 hn        1 E63      0.219000
     39 H6         -3.1050    0.6230    1.2120 hn        1 E63      0.241000
     40 H20        -0.0860   -2.2830   -1.7940 ha        1 E63      0.171000
     41 H14         2.8570   -1.8180   -0.1930 hn        1 E63      0.196000
     42 H19         2.3990   -3.2600   -2.6990 ha        1 E63      0.132000
     43 H18         2.2990   -5.5290   -3.3800 ha        1 E63      0.133000
     44 H17         1.8710   -7.2290   -1.7820 ha        1 E63      0.142250
     45 H16         1.5430   -6.6600    0.4970 ha        1 E63      0.142250
     46 H15         1.6420   -4.3900    1.1770 ha        1 E63      0.141000
     47 H7          2.1000   -1.3210    2.2670 hn        1 E63      0.271000
     48 H8          4.0690    0.9600    1.8350 DU        1 E63      0.226500
     49 H1          0.4180    1.3780    3.4260 DU        1 E63      0.226500
     50 H9          5.2120    3.4100    2.5500 ha        1 E63      0.124000
     51 H12         3.9910    3.9020    5.1520 hc        1 E63      0.114750
     52 H13         5.5280    4.4340    4.6660 hc        1 E63      0.114750
     53 H11         4.5420    5.6600    2.8910 hc        1 E63      0.114750
     54 H10         3.0050    5.1270    3.3770 hc        1 E63      0.114750
@<TRIPOS>BOND
     1    1    2 1   
     2    2   10 1   
     3    3    8 1   
     4    4    5 1   
     5    4   34 1   
     6    5   35 1   
     7    6    7 1   
     8    6   11 1   
     9    7   36 1   
    10    9   10 1   
    11    9   37 1   
    12   10   38 1   
    13   11   12 1   
    14   11   39 1   
    15   12   13 1   
    16   12   24 1   
    17   13   14 1   
    18   14   40 1   
    19   15   23 1   
    20   16   17 1   
    21   16   41 1   
    22   17   18 1   
    23   17   22 1   
    24   18   19 1   
    25   18   42 1   
    26   19   43 1   
    27   20   21 1   
    28   20   44 1   
    29   21   45 1   
    30   22   46 1   
    31   23   24 1   
    32   25   26 1   
    33   25   47 1   
    34   26   27 1   
    35   26   30 1   
    36   27   28 1   
    37   28   29 1   
    38   29   30 1   
    39   31   32 1   
    40   31   33 1   
    41   31   50 1   
    42   32   33 1   
    43   32   51 1   
    44   32   52 1   
    45   33   53 1   
    46   33   54 1   
@<TRIPOS>SUBSTRUCTURE
     1 E63         1 TEMP              0 ****  ****    0 ROOT
