@<TRIPOS>MOLECULE
E63
   54    59     1     0     0
SMALL
bcc


@<TRIPOS>ATOM
      1 O          -0.8750   -1.5140   -0.3710 o         1 E63     -0.566500
      2 C1          0.2590   -1.0390   -0.4420 c         1 E63      0.675100
      3 C3          1.2680   -0.8020    0.6210 ca        1 E63     -0.215600
      4 C4          1.2660   -1.0070    1.9860 ca        1 E63     -0.016000
      5 C5          2.4180   -0.6930    2.7090 ca        1 E63     -0.203000
      6 C6          3.5690   -0.1710    2.0700 ca        1 E63      0.186600
      7 C23         3.5730    0.0500    0.6710 ca        1 E63     -0.124000
      8 C2          2.4260   -0.2830   -0.0370 ca        1 E63     -0.036200
      9 N2          2.2070   -0.2420   -1.4650 na        1 E63     -0.114800
     10 N1          0.8530   -0.5390   -1.6770 ns        1 E63     -0.450200
     11 N3          4.6700    0.2150    2.8650 nu        1 E63     -0.716300
     12 C7          5.9800   -0.2570    2.6350 ca        1 E63      0.909900
     13 N9          6.2950   -0.8470    1.4200 nb        1 E63     -0.752000
     14 C22         7.5730   -1.2100    1.2560 ca        1 E63      0.472200
     15 C15         8.5890   -1.0350    2.2220 ca        1 E63     -0.244000
     16 N8          9.9390   -1.4100    2.0210 nu        1 E63     -0.594000
     17 C16        10.2210   -2.7650    1.7280 ca        1 E63      0.118600
     18 C21        11.3760   -3.0930    0.9810 ca        1 E63     -0.172500
     19 C20        11.7270   -4.4230    0.7820 ca        1 E63     -0.100000
     20 C19        10.9440   -5.4510    1.3060 ca        1 E63     -0.157000
     21 C18         9.7990   -5.1390    2.0350 ca        1 E63     -0.100000
     22 C17         9.4320   -3.8140    2.2480 ca        1 E63     -0.172500
     23 C8          8.1750   -0.4140    3.4670 ca        1 E63      0.737200
     24 N4          6.8750   -0.0440    3.6670 nb        1 E63     -0.826000
     25 N5          9.1250   -0.1400    4.4490 nu        1 E63     -0.700300
     26 C9          8.8130    0.2320    5.7600 cc        1 E63      0.099300
     27 C11         9.4610   -0.1760    6.9520 cd        1 E63     -0.319300
     28 C10         8.8150    0.5830    7.9980 cd        1 E63      0.354600
     29 N7          7.8410    1.3810    7.4620 nc        1 E63     -0.519800
     30 N6          7.8660    1.2080    6.1440 na        1 E63      0.004400
     31 C12         9.1620    0.4940    9.4130 cx        1 E63     -0.160000
     32 C14         8.1030    0.6400   10.4790 cx        1 E63     -0.118400
     33 C13         9.1230    1.7200   10.2940 cx        1 E63     -0.118400
     34 H4          0.3770   -1.4120    2.4940 ha        1 E63      0.157000
     35 H5          2.4170   -0.8590    3.7980 ha        1 E63      0.142000
     36 H21         4.4530    0.4650    0.1580 ha        1 E63      0.170000
     37 H3          2.3830    0.6880   -1.8280 hn        1 E63      0.242700
     38 H2          0.7640   -1.1750   -2.4540 hn        1 E63      0.305500
     39 H6          4.4470    0.3780    3.8280 hn        1 E63      0.445800
     40 H20         7.7980   -1.6890    0.2820 h4        1 E63      0.038100
     41 H14        10.4070   -0.7760    1.3990 hn        1 E63      0.401800
     42 H19        12.0100   -2.2980    0.5580 ha        1 E63      0.135500
     43 H18        12.6320   -4.6630    0.2030 ha        1 E63      0.133500
     44 H17        11.2280   -6.5010    1.1430 ha        1 E63      0.135000
     45 H16         9.1740   -5.9450    2.4500 ha        1 E63      0.133500
     46 H15         8.5230   -3.5870    2.8250 ha        1 E63      0.135500
     47 H7         10.0040   -0.6100    4.3610 hn        1 E63      0.473800
     48 H8         10.2650   -0.8910    7.0640 ha        1 E63      0.167000
     49 H1          7.1420    1.5890    5.5770 hn        1 E63      0.335700
     50 H9          9.9730   -0.2430    9.5880 hc        1 E63      0.085700
     51 H12         8.1620   -0.0130   11.3670 hc        1 E63      0.075450
     52 H13         7.0580    0.8310   10.1740 hc        1 E63      0.075450
     53 H11         9.9190    1.8470   11.0490 hc        1 E63      0.075450
     54 H10         8.8100    2.6840    9.8550 hc        1 E63      0.075450
@<TRIPOS>BOND
     1    1    2 2   
     2    2    3 1   
     3    2   10 1   
     4    3    4 ar  
     5    3    8 ar  
     6    4    5 ar  
     7    4   34 1   
     8    5    6 ar  
     9    5   35 1   
    10    6    7 ar  
    11    6   11 1   
    12    7    8 ar  
    13    7   36 1   
    14    8    9 1   
    15    9   10 1   
    16    9   37 1   
    17   10   38 1   
    18   11   12 1   
    19   11   39 1   
    20   12   13 ar  
    21   12   24 ar  
    22   13   14 ar  
    23   14   15 ar  
    24   14   40 1   
    25   15   16 1   
    26   15   23 ar  
    27   16   17 1   
    28   16   41 1   
    29   17   18 ar  
    30   17   22 ar  
    31   18   19 ar  
    32   18   42 1   
    33   19   20 ar  
    34   19   43 1   
    35   20   21 ar  
    36   20   44 1   
    37   21   22 ar  
    38   21   45 1   
    39   22   46 1   
    40   23   24 ar  
    41   23   25 1   
    42   25   26 1   
    43   25   47 1   
    44   26   27 2   
    45   26   30 1   
    46   27   28 1   
    47   27   48 1   
    48   28   29 2   
    49   28   31 1   
    50   29   30 1   
    51   30   49 1   
    52   31   32 1   
    53   31   33 1   
    54   31   50 1   
    55   32   33 1   
    56   32   51 1   
    57   32   52 1   
    58   33   53 1   
    59   33   54 1   
@<TRIPOS>SUBSTRUCTURE
     1 E63         1 TEMP              0 ****  ****    0 ROOT
