@<TRIPOS>MOLECULE
E63
   54    59     1     0     0
SMALL
bcc


@<TRIPOS>ATOM
      1 O          -0.9530   -0.9470   -0.7570 o         1 E63     -0.566500
      2 C1          0.1940   -0.5010   -0.7060 c         1 E63      0.675100
      3 C3          1.1730   -0.4970    0.4100 ca        1 E63     -0.215600
      4 C4          1.1200   -0.9530    1.7120 ca        1 E63     -0.016000
      5 C5          2.2550   -0.8160    2.5130 ca        1 E63     -0.204000
      6 C6          3.4390   -0.2190    2.0160 ca        1 E63      0.188600
      7 C23         3.4950    0.2610    0.6850 ca        1 E63     -0.125000
      8 C2          2.3640    0.1010   -0.1050 ca        1 E63     -0.036200
      9 N2          2.1930    0.4150   -1.5060 na        1 E63     -0.114800
     10 N1          0.8400    0.2040   -1.8070 n         1 E63     -0.450200
     11 N3          4.5220   -0.0260    2.9010 nh        1 E63     -0.718300
     12 C7          5.8290   -0.4760    2.6240 ca        1 E63      0.912900
     13 N9          6.1800   -0.8090    1.3250 nb        1 E63     -0.752000
     14 C22         7.4590   -1.1540    1.1310 ca        1 E63      0.470200
     15 C15         8.4440   -1.1900    2.1430 ca        1 E63     -0.243000
     16 N8          9.8090   -1.4650    1.8840 nh        1 E63     -0.590000
     17 C16        10.2260   -2.8190    1.8530 ca        1 E63      0.112600
     18 C21        11.3750   -3.1740    1.1080 ca        1 E63     -0.170500
     19 C20        11.8630   -4.4760    1.1530 ca        1 E63     -0.100500
     20 C19        11.2250   -5.4490    1.9200 ca        1 E63     -0.156000
     21 C18        10.0860   -5.1110    2.6490 ca        1 E63     -0.100500
     22 C17         9.5830   -3.8130    2.6200 ca        1 E63     -0.170500
     23 C8          7.9880   -0.8530    3.4790 ca        1 E63      0.740200
     24 N4          6.6870   -0.5070    3.7080 nb        1 E63     -0.829000
     25 N5          8.8730   -0.9500    4.5500 nh        1 E63     -0.703300
     26 C9          8.6540   -0.4060    5.8170 cc        1 E63      0.103300
     27 C11         9.6220    0.1590    6.6860 cd        1 E63     -0.322300
     28 C10         8.8930    0.4690    7.8940 cd        1 E63      0.356600
     29 N7          7.5780    0.1200    7.7480 nc        1 E63     -0.521800
     30 N6          7.4440   -0.4360    6.5460 na        1 E63      0.002400
     31 C12         9.4890    1.0690    9.0830 cx        1 E63     -0.160000
     32 C14         9.0230    0.6710   10.4630 cx        1 E63     -0.118400
     33 C13         8.7030    2.0350    9.9370 cx        1 E63     -0.118400
     34 H4          0.2050   -1.4190    2.1110 ha        1 E63      0.157000
     35 H5          2.2130   -1.1810    3.5510 ha        1 E63      0.141000
     36 H21         4.4000    0.7390    0.2830 ha        1 E63      0.170000
     37 H3          2.4030    1.3910   -1.6810 hn        1 E63      0.242700
     38 H2          0.7620   -0.2720   -2.6920 hn        1 E63      0.305500
     39 H6          4.2720   -0.0190    3.8700 hn        1 E63      0.445800
     40 H20         7.7140   -1.4150    0.0840 h4        1 E63      0.034100
     41 H14        10.1400   -0.9490    1.0900 hn        1 E63      0.400800
     42 H19        11.8960   -2.4230    0.4950 ha        1 E63      0.136500
     43 H18        12.7610   -4.7360    0.5730 ha        1 E63      0.134000
     44 H17        11.6150   -6.4760    1.9480 ha        1 E63      0.135000
     45 H16         9.5750   -5.8740    3.2550 ha        1 E63      0.134000
     46 H15         8.6820   -3.5660    3.2010 ha        1 E63      0.136500
     47 H7          9.8390   -1.0720    4.3220 hn        1 E63      0.476800
     48 H8         10.6750    0.3200    6.4980 ha        1 E63      0.167000
     49 H1          6.5360   -0.6120    6.1810 hn        1 E63      0.333700
     50 H9         10.5710    1.2680    8.9390 hc        1 E63      0.085700
     51 H12         8.2110   -0.0710   10.5610 hc        1 E63      0.075700
     52 H13         9.7810    0.5630   11.2600 hc        1 E63      0.075700
     53 H11         7.6610    2.2720    9.6570 hc        1 E63      0.075700
     54 H10         9.2290    2.9130   10.3520 hc        1 E63      0.075700
@<TRIPOS>BOND
     1    1    2 2   
     2    2    3 1   
     3    2   10 1   
     4    3    4 ar  
     5    3    8 ar  
     6    4    5 ar  
     7    4   34 1   
     8    5    6 ar  
     9    5   35 1   
    10    6    7 ar  
    11    6   11 1   
    12    7    8 ar  
    13    7   36 1   
    14    8    9 1   
    15    9   10 1   
    16    9   37 1   
    17   10   38 1   
    18   11   12 1   
    19   11   39 1   
    20   12   13 ar  
    21   12   24 ar  
    22   13   14 ar  
    23   14   15 ar  
    24   14   40 1   
    25   15   16 1   
    26   15   23 ar  
    27   16   17 1   
    28   16   41 1   
    29   17   18 ar  
    30   17   22 ar  
    31   18   19 ar  
    32   18   42 1   
    33   19   20 ar  
    34   19   43 1   
    35   20   21 ar  
    36   20   44 1   
    37   21   22 ar  
    38   21   45 1   
    39   22   46 1   
    40   23   24 ar  
    41   23   25 1   
    42   25   26 1   
    43   25   47 1   
    44   26   27 2   
    45   26   30 1   
    46   27   28 1   
    47   27   48 1   
    48   28   29 2   
    49   28   31 1   
    50   29   30 1   
    51   30   49 1   
    52   31   32 1   
    53   31   33 1   
    54   31   50 1   
    55   32   33 1   
    56   32   51 1   
    57   32   52 1   
    58   33   53 1   
    59   33   54 1   
@<TRIPOS>SUBSTRUCTURE
     1 E63         1 TEMP              0 ****  ****    0 ROOT
