@<TRIPOS>MOLECULE
E63
   57    62     1     0     0
SMALL
bcc


@<TRIPOS>ATOM
      1 O          -0.6970   -3.2980    0.2790 o         1 E63     -0.470500
      2 C1          0.3020   -2.7240   -0.1340 c         1 E63      0.666100
      3 C3          1.1730   -1.7260    0.5790 ca        1 E63     -0.130600
      4 C4          1.1150   -1.1710    1.8370 ca        1 E63     -0.006000
      5 C5          2.1170   -0.2630    2.2160 ca        1 E63     -0.140000
      6 C6          3.1380    0.0580    1.3060 ca        1 E63     -0.049400
      7 C23         3.2270   -0.4990    0.0110 ca        1 E63     -0.140000
      8 C2          2.2260   -1.4020   -0.3450 ca        1 E63      0.004800
      9 N2          2.1040   -2.2010   -1.5190 na        1 E63     -0.106800
     10 N1          0.8550   -2.8260   -1.4700 n         1 E63     -0.424200
     11 N3          4.1240    1.0870    1.6880 n4        1 E63     -0.609100
     12 C7          5.3490    0.4690    2.2930 ca        1 E63      0.818900
     13 N9          6.3250    0.0250    1.4260 nb        1 E63     -0.593000
     14 C22         7.4040   -0.5440    1.9700 ca        1 E63      0.540200
     15 C15         7.5760   -0.7050    3.3880 ca        1 E63     -0.196000
     16 N8          8.7930   -1.3180    3.9130 n4        1 E63     -0.488800
     17 C16         9.6940   -1.8790    2.8900 ca        1 E63     -0.128400
     18 C21        10.7550   -1.0910    2.4010 ca        1 E63     -0.102500
     19 C20        11.6670   -1.6670    1.5190 ca        1 E63     -0.089000
     20 C19        11.5310   -3.0030    1.1270 ca        1 E63     -0.028000
     21 C18        10.4700   -3.7720    1.6140 ca        1 E63     -0.089000
     22 C17         9.5430   -3.2230    2.4970 ca        1 E63     -0.102500
     23 C8          6.5100   -0.2170    4.1980 ca        1 E63      0.566200
     24 N4          5.4050    0.3720    3.6580 nb        1 E63     -0.669000
     25 N5          6.4960   -0.3260    5.6860 n4        1 E63     -0.585100
     26 C9          7.7780   -0.0990    6.3030 cc        1 E63     -0.263700
     27 C11         8.6000   -1.0710    6.9520 cd        1 E63     -0.235300
     28 C10         9.6590   -0.3060    7.5540 cd        1 E63      0.426600
     29 N7          9.4620    1.0380    7.2740 nc        1 E63     -0.381800
     30 N6          8.3730    1.1630    6.5540 na        1 E63      0.049400
     31 C12        10.7490   -0.8570    8.3420 cx        1 E63     -0.262000
     32 C14        11.2070   -0.1560    9.6120 cx        1 E63     -0.072900
     33 C13        12.0970   -0.1630    8.4180 cx        1 E63     -0.072900
     34 H4          0.2900   -1.4170    2.5330 ha        1 E63      0.209000
     35 H5          2.0570    0.2020    3.2140 ha        1 E63      0.162000
     36 H21         4.0280   -0.2340   -0.6970 ha        1 E63      0.177000
     37 H3          2.1950   -1.6880   -2.3890 hn        1 E63      0.296700
     38 H2          0.8960   -3.7560   -1.8650 hn        1 E63      0.351500
     39 H6          4.4050    1.6150    0.8380 hn        1 E63      0.506300
     40 H20         8.1840   -0.8950    1.2440 h4        1 E63      0.132100
     41 H14         8.5360   -2.0810    4.5620 hn        1 E63      0.481300
     42 H19        10.8960   -0.0420    2.7110 ha        1 E63      0.161000
     43 H18        12.5110   -1.0620    1.1370 ha        1 E63      0.200500
     44 H17        12.2690   -3.4540    0.4350 ha        1 E63      0.205000
     45 H16        10.3680   -4.8310    1.3080 ha        1 E63      0.200500
     46 H15         8.7260   -3.8550    2.8810 ha        1 E63      0.161000
     47 H7          5.7950    0.3380    6.0810 hn        1 E63      0.510800
     48 H8          8.4450   -2.1440    7.0460 ha        1 E63      0.208000
     49 H1          8.0030    2.0740    6.3510 hn        1 E63      0.370700
     50 H9         10.7350   -1.9680    8.3480 hc        1 E63      0.113700
     51 H12        10.7130    0.7860    9.9150 hc        1 E63      0.104950
     52 H13        11.4540   -0.7920   10.4840 hc        1 E63      0.104950
     53 H11        13.0010   -0.8020    8.4170 hc        1 E63      0.104950
     54 H10        12.2550    0.7760    7.8570 hc        1 E63      0.104950
     55 H32         3.6900    1.7380    2.3660 hn        1 E63      0.506300
     56 H82         9.3190   -0.6010    4.4500 hn        1 E63      0.481300
     57 H52         6.1890   -1.2860    5.9380 hn        1 E63      0.510800
@<TRIPOS>BOND
     1    1    2 2   
     2    2    3 1   
     3    2   10 1   
     4    3    4 ar  
     5    3    8 ar  
     6    4    5 ar  
     7    4   34 1   
     8    5    6 ar  
     9    5   35 1   
    10    6    7 ar  
    11    6   11 1   
    12    7    8 ar  
    13    7   36 1   
    14    8    9 1   
    15    9   10 1   
    16    9   37 1   
    17   10   38 1   
    18   11   12 1   
    19   11   39 1   
    20   11   55 1   
    21   12   13 ar  
    22   12   24 ar  
    23   13   14 ar  
    24   14   15 ar  
    25   14   40 1   
    26   15   16 1   
    27   15   23 ar  
    28   16   17 1   
    29   16   41 1   
    30   16   56 1   
    31   17   18 ar  
    32   17   22 ar  
    33   18   19 ar  
    34   18   42 1   
    35   19   20 ar  
    36   19   43 1   
    37   20   21 ar  
    38   20   44 1   
    39   21   22 ar  
    40   21   45 1   
    41   22   46 1   
    42   23   24 ar  
    43   23   25 1   
    44   25   26 1   
    45   25   47 1   
    46   25   57 1   
    47   26   27 2   
    48   26   30 1   
    49   27   28 1   
    50   27   48 1   
    51   28   29 2   
    52   28   31 1   
    53   29   30 1   
    54   30   49 1   
    55   31   32 1   
    56   31   33 1   
    57   31   50 1   
    58   32   33 1   
    59   32   51 1   
    60   32   52 1   
    61   33   53 1   
    62   33   54 1   
@<TRIPOS>SUBSTRUCTURE
     1 E63         1 TEMP              0 ****  ****    0 ROOT
