@<TRIPOS>MOLECULE
E63
   54    59     1     0     0
SMALL
bcc


@<TRIPOS>ATOM
      1 O          -8.4880   -1.5340   -1.1860 o         1 E63     -0.566500
      2 C1         -7.5740   -1.1950   -0.4340 c         1 E63      0.675100
      3 C3         -6.1040   -1.3440   -0.5830 ca        1 E63     -0.215600
      4 C4         -5.3060   -1.8790   -1.5750 ca        1 E63     -0.016000
      5 C5         -3.9220   -1.8800   -1.3890 ca        1 E63     -0.203000
      6 C6         -3.3380   -1.3550   -0.2110 ca        1 E63      0.189600
      7 C23        -4.1520   -0.8210    0.8170 ca        1 E63     -0.124000
      8 C2         -5.5260   -0.8210    0.6150 ca        1 E63     -0.037200
      9 N2         -6.5690   -0.4110    1.5290 na        1 E63     -0.116800
     10 N1         -7.7790   -0.4860    0.8240 n         1 E63     -0.450200
     11 N3         -1.9400   -1.4570   -0.0450 nh        1 E63     -0.719300
     12 C7         -1.1190   -0.3540    0.2590 ca        1 E63      0.915900
     13 N9         -1.6890    0.8170    0.7370 nb        1 E63     -0.756000
     14 C22        -0.8360    1.7920    1.0720 ca        1 E63      0.470200
     15 C15         0.5700    1.6990    0.9770 ca        1 E63     -0.244000
     16 N8          1.4450    2.7150    1.4320 nh        1 E63     -0.590000
     17 C16         1.7520    3.7800    0.5490 ca        1 E63      0.112600
     18 C21         2.1450    5.0300    1.0800 ca        1 E63     -0.171000
     19 C20         2.5540    6.0530    0.2310 ca        1 E63     -0.100500
     20 C19         2.5750    5.8660   -1.1500 ca        1 E63     -0.156000
     21 C18         2.1800    4.6400   -1.6830 ca        1 E63     -0.100500
     22 C17         1.7700    3.6030   -0.8510 ca        1 E63     -0.171000
     23 C8          1.0850    0.4510    0.4420 ca        1 E63      0.741200
     24 N4          0.2380   -0.5590    0.0830 nb        1 E63     -0.829000
     25 N5          2.4530    0.3090    0.2310 nh        1 E63     -0.703300
     26 C9          3.1020   -0.9030   -0.0150 cc        1 E63      0.103300
     27 C11         4.3970   -1.2850    0.4180 cd        1 E63     -0.321300
     28 C10         4.6200   -2.5760   -0.1910 cd        1 E63      0.356600
     29 N7          3.5260   -2.9400   -0.9280 nc        1 E63     -0.521800
     30 N6          2.6520   -1.9400   -0.8630 na        1 E63      0.002400
     31 C12         5.8390   -3.3620   -0.0280 cx        1 E63     -0.160000
     32 C14         6.3810   -4.1890   -1.1690 cx        1 E63     -0.118400
     33 C13         5.7840   -4.8700    0.0230 cx        1 E63     -0.118400
     34 H4         -5.7480   -2.2890   -2.4960 ha        1 E63      0.157000
     35 H5         -3.2850   -2.3000   -2.1830 ha        1 E63      0.141000
     36 H21        -3.7190   -0.4260    1.7480 ha        1 E63      0.170000
     37 H3         -6.4330    0.5520    1.8140 hn        1 E63      0.244700
     38 H2         -8.4860   -0.9000    1.4100 hn        1 E63      0.305500
     39 H6         -1.5050   -2.1780   -0.5860 hn        1 E63      0.447800
     40 H20        -1.3160    2.7160    1.4520 h4        1 E63      0.032100
     41 H14         1.1810    3.0420    2.3430 hn        1 E63      0.400800
     42 H19         2.1370    5.2020    2.1670 ha        1 E63      0.136000
     43 H18         2.8620    7.0190    0.6590 ha        1 E63      0.134000
     44 H17         2.8980    6.6800   -1.8140 ha        1 E63      0.135000
     45 H16         2.1920    4.4850   -2.7720 ha        1 E63      0.134000
     46 H15         1.4610    2.6420   -1.2900 ha        1 E63      0.136000
     47 H7          3.0430    1.0120    0.6300 hn        1 E63      0.476800
     48 H8          5.0760   -0.7360    1.0560 ha        1 E63      0.167000
     49 H1          1.7240   -2.0710   -1.1980 hn        1 E63      0.333700
     50 H9          6.5690   -2.8480    0.6320 hc        1 E63      0.085700
     51 H12         5.8320   -4.2050   -2.1270 hc        1 E63      0.075700
     52 H13         7.4750   -4.2210   -1.3180 hc        1 E63      0.075700
     53 H11         6.4470   -5.3930    0.7350 hc        1 E63      0.075700
     54 H10         4.8070   -5.3740   -0.0800 hc        1 E63      0.075700
@<TRIPOS>BOND
     1    1    2 2   
     2    2    3 1   
     3    2   10 1   
     4    3    4 ar  
     5    3    8 ar  
     6    4    5 ar  
     7    4   34 1   
     8    5    6 ar  
     9    5   35 1   
    10    6    7 ar  
    11    6   11 1   
    12    7    8 ar  
    13    7   36 1   
    14    8    9 1   
    15    9   10 1   
    16    9   37 1   
    17   10   38 1   
    18   11   12 1   
    19   11   39 1   
    20   12   13 ar  
    21   12   24 ar  
    22   13   14 ar  
    23   14   15 ar  
    24   14   40 1   
    25   15   16 1   
    26   15   23 ar  
    27   16   17 1   
    28   16   41 1   
    29   17   18 ar  
    30   17   22 ar  
    31   18   19 ar  
    32   18   42 1   
    33   19   20 ar  
    34   19   43 1   
    35   20   21 ar  
    36   20   44 1   
    37   21   22 ar  
    38   21   45 1   
    39   22   46 1   
    40   23   24 ar  
    41   23   25 1   
    42   25   26 1   
    43   25   47 1   
    44   26   27 2   
    45   26   30 1   
    46   27   28 1   
    47   27   48 1   
    48   28   29 2   
    49   28   31 1   
    50   29   30 1   
    51   30   49 1   
    52   31   32 1   
    53   31   33 1   
    54   31   50 1   
    55   32   33 1   
    56   32   51 1   
    57   32   52 1   
    58   33   53 1   
    59   33   54 1   
@<TRIPOS>SUBSTRUCTURE
     1 E63         1 TEMP              0 ****  ****    0 ROOT
