@<TRIPOS>MOLECULE
E64
   54    53     1     0     0
SMALL
bcc


@<TRIPOS>ATOM
      1 C1         13.9670   17.5840   13.4150 c         1 E64      0.912600
      2 O1         14.5900   18.3240   12.5920 o         1 E64     -0.862800
      3 O2         13.7870   17.9570   14.6190 o         1 E64     -0.862800
      4 C2         13.5090   16.1940   13.0050 c3        1 E64     -0.218400
      5 C3         14.3870   15.1270   13.6540 c3        1 E64      0.103100
      6 O3         14.8590   15.4750   14.9440 oh        1 E64     -0.614800
      7 C4         15.6430   14.8620   12.8060 c         1 E64      0.680100
      8 O4         16.7340   15.4310   13.0310 o         1 E64     -0.658100
      9 N1         15.5180   13.9520   11.7810 n         1 E64     -0.562900
     10 C6         16.6350   13.4870   10.9970 c3        1 E64      0.041700
     11 C7         16.4000   12.1080   10.3650 c3        1 E64     -0.082400
     12 C8         16.3200   10.9820   11.3830 c3        1 E64     -0.069700
     13 C9         15.7320    9.7470   10.7270 c3        1 E64     -0.092600
     14 C10        17.6800   10.6600   11.9660 c3        1 E64     -0.092600
     15 C11        16.9690   14.4810    9.8490 c         1 E64      0.635100
     16 O5         16.6480   14.2450    8.6690 o         1 E64     -0.609100
     17 N2         17.6670   15.6080   10.2110 n         1 E64     -0.567900
     18 C12        17.9300   16.6640    9.2710 c3        1 E64      0.090000
     19 C13        18.8460   17.7630    9.8080 c3        1 E64     -0.089400
     20 C14        18.1220   18.8430   10.5830 c3        1 E64     -0.093400
     21 C15        17.6950   18.3570   11.9670 c3        1 E64     -0.004700
     22 N3         17.2110   19.4350   12.8150 nh        1 E64     -0.368100
     23 C16        16.4130   19.1060   13.9240 cz        1 E64      0.518300
     24 N4         16.6430   17.9380   14.6210 nh        1 E64     -0.447200
     25 N5         15.6090   20.0960   14.5050 nh        1 E64     -0.447200
     26 H21        12.4530   16.0550   13.3510 hc        1 E64      0.069700
     27 H22        13.5360   16.0950   11.8910 hc        1 E64      0.069700
     28 H3         13.7990   14.1670   13.7590 h1        1 E64      0.048700
     29 HO3        14.2010   16.0690   15.3460 ho        1 E64      0.451000
     30 HN1        14.6240   13.5800   11.5610 hn        1 E64      0.323500
     31 H6         17.5370   13.4240   11.6810 h1        1 E64      0.084700
     32 H71        15.4630   12.1350    9.7470 hc        1 E64      0.068700
     33 H72        17.2490   11.9160    9.6560 hc        1 E64      0.068700
     34 H8         15.6370   11.2890   12.2260 hc        1 E64      0.046700
     35 H91        15.6770    8.9090   11.4620 hc        1 E64      0.036367
     36 H92        14.7020    9.9560   10.3500 hc        1 E64      0.036367
     37 H93        16.3640    9.4230    9.8660 hc        1 E64      0.036367
     38 H101       17.5980    9.8100   12.6860 hc        1 E64      0.036367
     39 H102       18.3950   10.3700   11.1590 hc        1 E64      0.036367
     40 H103       18.0980   11.5410   12.5100 hc        1 E64      0.036367
     41 HN2        17.8060   15.7950   11.1800 hn        1 E64      0.330500
     42 H121       18.4080   16.2010    8.3580 h1        1 E64      0.053700
     43 H122       16.9540   17.1230    8.9340 h1        1 E64      0.053700
     44 H131       19.6680   17.3280   10.4340 hc        1 E64      0.056700
     45 H132       19.3320   18.2460    8.9160 hc        1 E64      0.056700
     46 H141       18.8100   19.7260   10.6850 hc        1 E64      0.055200
     47 H142       17.2190   19.1820   10.0090 hc        1 E64      0.055200
     48 H151       16.8770   17.5820   11.8490 h1        1 E64      0.074700
     49 H152       18.5760   17.8810   12.4860 h1        1 E64      0.074700
     50 HN3        16.9030   20.2400   12.3050 hn        1 E64      0.276700
     51 HN41       15.9120   17.6360   15.2440 hn        1 E64      0.305700
     52 HN42       17.1180   17.1880   14.1550 hn        1 E64      0.305700
     53 HN51       15.2930   20.8020   13.8730 hn        1 E64      0.305700
     54 HN52       14.8610   19.7280   15.0770 hn        1 E64      0.305700
@<TRIPOS>BOND
     1    1    2 1   
     2    1    3 1   
     3    1    4 1   
     4    4    5 1   
     5    4   26 1   
     6    4   27 1   
     7    5    6 1   
     8    5    7 1   
     9    5   28 1   
    10    6   29 1   
    11    7    8 2   
    12    7    9 1   
    13    9   10 1   
    14    9   30 1   
    15   10   11 1   
    16   10   15 1   
    17   10   31 1   
    18   11   12 1   
    19   11   32 1   
    20   11   33 1   
    21   12   13 1   
    22   12   14 1   
    23   12   34 1   
    24   13   35 1   
    25   13   36 1   
    26   13   37 1   
    27   14   38 1   
    28   14   39 1   
    29   14   40 1   
    30   15   16 2   
    31   15   17 1   
    32   17   18 1   
    33   17   41 1   
    34   18   19 1   
    35   18   42 1   
    36   18   43 1   
    37   19   20 1   
    38   19   44 1   
    39   19   45 1   
    40   20   21 1   
    41   20   46 1   
    42   20   47 1   
    43   21   22 1   
    44   21   48 1   
    45   21   49 1   
    46   22   23 2   
    47   22   50 1   
    48   23   24 1   
    49   23   25 1   
    50   24   51 1   
    51   24   52 1   
    52   25   53 1   
    53   25   54 1   
@<TRIPOS>SUBSTRUCTURE
     1 E64         1 TEMP              0 ****  ****    0 ROOT
