@<TRIPOS>MOLECULE
E64
   54    51     1     0     0
SMALL
bcc


@<TRIPOS>ATOM
      1 C1          2.6200    0.3110    6.6580 c1        1 E64      0.333000
      2 O1          3.8720    0.1780    6.6120 o         1 E64     -0.618000
      3 O2          2.0620    0.6530    7.7370 os        1 E64     -0.604000
      4 C2          1.7900    0.1790    5.3780 c3        1 E64     -0.234000
      5 C3          1.9350    1.4490    4.5450 c3        1 E64      0.029000
      6 O3          1.5850    2.5500    5.3170 oh        1 E64     -0.348000
      7 C4          1.0150    1.3680    3.3220 c2        1 E64      0.302000
      8 O4         -0.0740    0.8300    3.4170 o         1 E64     -0.336000
      9 N1          1.3740    2.0610    2.1040 n         1 E64     -0.373000
     10 C6          0.5090    2.0110    0.9770 c3        1 E64      0.010000
     11 C7          0.5080    3.3640    0.2750 c3        1 E64     -0.156000
     12 C8         -0.6530    4.2110    0.8030 c3        1 E64     -0.107000
     13 C9         -0.1140    5.5480    1.3200 c3        1 E64     -0.210500
     14 C10        -1.6470    4.4650   -0.3150 c3        1 E64     -0.210500
     15 C11         0.9930    0.9420    0.0130 c2        1 E64      0.265000
     16 O5          2.1750    0.8430   -0.2390 o         1 E64     -0.359000
     17 N2          0.0500    0.0270   -0.5830 n         1 E64     -0.387000
     18 C12         0.5250   -1.0820   -1.3860 c3        1 E64     -0.027000
     19 C13        -0.6510   -1.7600   -2.0590 c3        1 E64     -0.180000
     20 C14        -0.1750   -3.0490   -2.7380 c3        1 E64     -0.176000
     21 C15        -1.3250   -3.6540   -3.5540 c3        1 E64     -0.057000
     22 N3         -0.9290   -4.9520   -4.0590 n3        1 E64     -0.298000
     23 C16        -1.8390   -5.7080   -4.9000 c2        1 E64      0.404000
     24 N4         -3.0740   -6.1860   -4.3660 n3        1 E64     -0.299000
     25 N5         -1.5260   -5.9540   -6.1560 n2        1 E64     -0.311000
     26 H21         2.1070   -0.5880    4.8610 hc        1 E64      0.124000
     27 H22         0.8490    0.0480    5.6110 hc        1 E64      0.124000
     28 H3          2.8610    1.5400    4.2510 h1        1 E64      0.079000
     29 HO3         2.3020    3.0350    5.4790 ho        1 E64      0.247000
     30 HN1         2.1380    2.5290    2.0620 hn        1 E64      0.226000
     31 H6         -0.3960    1.7970    1.2720 h1        1 E64      0.159000
     32 H71         1.3460    3.8200    0.4490 hc        1 E64      0.093000
     33 H72         0.4020    3.2310   -0.6940 hc        1 E64      0.093000
     34 H8         -1.0970    3.7370    1.5300 hc        1 E64      0.104000
     35 H91         0.3950    5.9910    0.6090 hc        1 E64      0.075333
     36 H92         0.4720    5.3890    2.0890 hc        1 E64      0.075333
     37 H93        -0.8620    6.1200    1.5910 hc        1 E64      0.075333
     38 H101       -2.4140    4.9610    0.0370 hc        1 E64      0.075333
     39 H102       -1.9510    3.6130   -0.6800 hc        1 E64      0.075333
     40 H103       -1.2150    4.9900   -1.0230 hc        1 E64      0.075333
     41 HN2        -0.8450    0.1490   -0.4580 hn        1 E64      0.221000
     42 H121        1.1420   -0.7510   -2.0650 h1        1 E64      0.103000
     43 H122        0.9860   -1.7250   -0.8120 h1        1 E64      0.103000
     44 H131       -1.3300   -1.9750   -1.3890 hc        1 E64      0.091500
     45 H132       -1.0340   -1.1590   -2.7320 hc        1 E64      0.091500
     46 H141        0.1130   -3.6890   -2.0570 hc        1 E64      0.099500
     47 H142        0.5750   -2.8470   -3.3330 hc        1 E64      0.099500
     48 H151       -1.5400   -3.0600   -4.3090 h1        1 E64      0.119000
     49 H152       -2.1140   -3.7530   -2.9820 h1        1 E64      0.119000
     50 HN3        -0.1090   -5.2940   -3.8430 hn        1 E64      0.251000
     51 HN41       -3.2000   -6.2100   -3.4710 hn        1 E64      0.248500
     52 HN42       -3.7410   -6.4600   -4.9300 hn        1 E64      0.248500
     53 HN51       -0.7400   -5.6510   -6.4990 DU        1 E64      0.221000
     54 HN52       -2.1060   -6.4350   -6.6890 hn        1 E64      0.235000
@<TRIPOS>BOND
     1    1    2 1   
     2    1    4 1   
     3    4    5 1   
     4    4   26 1   
     5    4   27 1   
     6    5    6 1   
     7    5    7 1   
     8    5   28 1   
     9    6   29 1   
    10    7    8 1   
    11    7    9 1   
    12    9   10 1   
    13    9   30 1   
    14   10   11 1   
    15   10   15 1   
    16   10   31 1   
    17   11   12 1   
    18   11   32 1   
    19   11   33 1   
    20   12   13 1   
    21   12   14 1   
    22   12   34 1   
    23   13   35 1   
    24   13   36 1   
    25   13   37 1   
    26   14   38 1   
    27   14   39 1   
    28   14   40 1   
    29   15   16 1   
    30   15   17 1   
    31   17   18 1   
    32   17   41 1   
    33   18   19 1   
    34   18   42 1   
    35   18   43 1   
    36   19   20 1   
    37   19   44 1   
    38   19   45 1   
    39   20   21 1   
    40   20   46 1   
    41   20   47 1   
    42   21   22 1   
    43   21   48 1   
    44   21   49 1   
    45   22   23 1   
    46   22   50 1   
    47   23   24 1   
    48   23   25 1   
    49   24   51 1   
    50   24   52 1   
    51   25   54 1   
@<TRIPOS>SUBSTRUCTURE
     1 E64         1 TEMP              0 ****  ****    0 ROOT
