@<TRIPOS>MOLECULE
E65
   37    38     1     0     0
SMALL
bcc


@<TRIPOS>ATOM
      1 N1          4.0490   -0.3340   -0.9240 nb        1 E65     -0.712500
      2 C2          3.3110    0.1440    0.1270 ca        1 E65      0.731300
      3 N3          3.6270    1.2140    0.9140 nb        1 E65     -0.712500
      4 C4          4.7850    1.8610    0.6250 ca        1 E65      0.467100
      5 C5          5.6120    1.4440   -0.4390 ca        1 E65     -0.382600
      6 C6          5.1990    0.3260   -1.2000 ca        1 E65      0.467100
      7 S7          1.8530   -0.7310    0.4280 ss        1 E65     -0.163400
      8 C8          1.1570    0.0600    1.8470 c3        1 E65     -0.154300
      9 C9         -0.1150   -0.6520    2.2020 c         1 E65      0.583700
     10 O10        -0.2080   -1.3260    3.2320 o         1 E65     -0.494100
     11 C11         5.1880    3.0380    1.4510 c3        1 E65     -0.156400
     12 C12         6.0510   -0.1410   -2.3350 c3        1 E65     -0.156400
     13 C13        -1.2580   -0.4960    1.2680 ca        1 E65     -0.104600
     14 C14        -1.9880   -1.6310    0.8960 ca        1 E65     -0.114500
     15 C15        -3.0700   -1.5060    0.0280 ca        1 E65     -0.026500
     16 C16        -3.4520   -0.2540   -0.4670 ca        1 E65     -0.358500
     17 C17        -2.7160    0.8720   -0.0860 ca        1 E65     -0.026500
     18 C18        -1.6260    0.7590    0.7740 ca        1 E65     -0.114500
     19 S19        -4.7650   -0.1090   -1.5340 sy        1 E65      1.524200
     20 O20        -4.5890    1.0700   -2.2870 o         1 E65     -0.654800
     21 O21        -4.9010   -1.3260   -2.2330 o         1 E65     -0.654800
     22 N22        -6.0110    0.0750   -0.5480 n3        1 E65     -1.027700
     23 H5          6.5450    1.9700   -0.6700 ha        1 E65      0.154000
     24 H8          1.8660    0.0160    2.7150 h1        1 E65      0.105700
     25 H8A         0.9440    1.1390    1.6440 h1        1 E65      0.105700
     26 H11         6.1600    3.4510    1.0870 hc        1 E65      0.059867
     27 H11A        4.4110    3.8410    1.3910 hc        1 E65      0.059867
     28 H11B        5.3030    2.7410    2.5230 hc        1 E65      0.059867
     29 H12         5.4790   -0.0920   -3.2960 hc        1 E65      0.059867
     30 H12A        6.9610    0.5010   -2.4240 hc        1 E65      0.059867
     31 H12B        6.3720   -1.2000   -2.1720 hc        1 E65      0.059867
     32 H14        -1.7040   -2.6180    1.2940 ha        1 E65      0.150500
     33 H15        -3.6270   -2.4060   -0.2870 ha        1 E65      0.158000
     34 H17        -2.9930    1.8620   -0.4910 ha        1 E65      0.158000
     35 H18        -1.0630    1.6610    1.0610 ha        1 E65      0.150500
     36 HN22       -6.3400    0.9550   -0.2390 hn        1 E65      0.449300
     37 HN2A       -6.5510   -0.6770   -0.2010 hn        1 E65      0.449300
@<TRIPOS>BOND
     1    1    2 ar  
     2    1    6 ar  
     3    2    3 ar  
     4    2    7 1   
     5    3    4 ar  
     6    4    5 ar  
     7    4   11 1   
     8    5    6 ar  
     9    5   23 1   
    10    6   12 1   
    11    7    8 1   
    12    8    9 1   
    13    8   24 1   
    14    8   25 1   
    15    9   10 2   
    16    9   13 1   
    17   11   26 1   
    18   11   27 1   
    19   11   28 1   
    20   12   29 1   
    21   12   30 1   
    22   12   31 1   
    23   13   14 ar  
    24   13   18 ar  
    25   14   15 ar  
    26   14   32 1   
    27   15   16 ar  
    28   15   33 1   
    29   16   17 ar  
    30   16   19 1   
    31   17   18 ar  
    32   17   34 1   
    33   18   35 1   
    34   19   20 2   
    35   19   21 2   
    36   19   22 1   
    37   22   36 1   
    38   22   37 1   
@<TRIPOS>SUBSTRUCTURE
     1 E65         1 TEMP              0 ****  ****    0 ROOT
