@<TRIPOS>MOLECULE
E65
   38    39     1     0     0
SMALL
bcc


@<TRIPOS>ATOM
      1 N1          2.0590   -1.0520    0.2320 nb        1 E65     -0.711500
      2 C2          2.5140    0.1880    0.5810 ca        1 E65      0.734300
      3 N3          1.9110    1.0740    1.4230 nb        1 E65     -0.711500
      4 C4          0.7300    0.6800    1.9680 ca        1 E65      0.470600
      5 C5          0.1740   -0.5820    1.6690 ca        1 E65     -0.363600
      6 C6          0.8780   -1.4310    0.7850 ca        1 E65      0.470600
      7 S7          4.0230    0.6290   -0.1590 ss        1 E65     -0.248400
      8 C8          4.3660    2.2530    0.4500 c3        1 E65     -0.144300
      9 C9          5.6860    2.7040   -0.0820 c         1 E65      0.574700
     10 O10         6.0240    3.8850   -0.1310 o         1 E65     -0.457100
     11 C11         0.0100    1.6020    2.8960 c3        1 E65     -0.160400
     12 C12         0.3110   -2.7700    0.4460 c3        1 E65     -0.160400
     13 C13         6.6120    1.6230   -0.5420 ca        1 E65     -0.023600
     14 C14         6.3140    0.8790   -1.6940 ca        1 E65     -0.116000
     15 C15         7.1830   -0.1170   -2.1150 ca        1 E65      0.010500
     16 C16         8.3760   -0.3980   -1.4110 ca        1 E65     -0.550500
     17 C17         8.6500    0.3630   -0.2510 ca        1 E65      0.010500
     18 C18         7.7880    1.3610    0.1750 ca        1 E65     -0.116000
     19 S19         9.3320   -1.5980   -1.8540 sy        1 E65      1.494200
     20 O20        10.2520   -2.0040   -0.9130 o         1 E65     -0.564300
     21 O21         8.8060   -2.4670   -2.7830 o         1 E65     -0.564300
     22 N22        10.4970   -0.5760   -3.0080 n4        1 E65     -0.786500
     23 H5         -0.7800   -0.8970    2.1100 ha        1 E65      0.165000
     24 H8          3.5670    2.9820    0.1500 h1        1 E65      0.131200
     25 H8A         4.4020    2.2720    1.5720 h1        1 E65      0.131200
     26 H11        -0.2900    2.5360    2.3570 hc        1 E65      0.066200
     27 H11A       -0.9080    1.1070    3.2960 hc        1 E65      0.066200
     28 H11B        0.6670    1.8890    3.7550 hc        1 E65      0.066200
     29 H12         1.0610   -3.5780    0.6350 hc        1 E65      0.066200
     30 H12A       -0.5980   -2.9710    1.0630 hc        1 E65      0.066200
     31 H12B        0.0260   -2.8020   -0.6360 hc        1 E65      0.066200
     32 H14         5.3840    1.0780   -2.2610 ha        1 E65      0.189000
     33 H15         6.9260   -0.7190   -3.0080 ha        1 E65      0.172000
     34 H17         9.5630    0.1460    0.3350 ha        1 E65      0.172000
     35 H18         8.0240    1.9510    1.0790 ha        1 E65      0.189000
     36 HN22       11.4590   -0.6360   -2.6790 hn        1 E65      0.455467
     37 HN2A       10.2410    0.4050   -3.0490 hn        1 E65      0.455467
     38 H223       10.4690   -0.9480   -3.9550 hn        1 E65      0.455467
@<TRIPOS>BOND
     1    1    2 ar  
     2    1    6 ar  
     3    2    3 ar  
     4    2    7 1   
     5    3    4 ar  
     6    4    5 ar  
     7    4   11 1   
     8    5    6 ar  
     9    5   23 1   
    10    6   12 1   
    11    7    8 1   
    12    8    9 1   
    13    8   24 1   
    14    8   25 1   
    15    9   10 2   
    16    9   13 1   
    17   11   26 1   
    18   11   27 1   
    19   11   28 1   
    20   12   29 1   
    21   12   30 1   
    22   12   31 1   
    23   13   14 ar  
    24   13   18 ar  
    25   14   15 ar  
    26   14   32 1   
    27   15   16 ar  
    28   15   33 1   
    29   16   17 ar  
    30   16   19 1   
    31   17   18 ar  
    32   17   34 1   
    33   18   35 1   
    34   19   20 2   
    35   19   21 2   
    36   19   22 1   
    37   22   36 1   
    38   22   37 1   
    39   22   38 1   
@<TRIPOS>SUBSTRUCTURE
     1 E65         1 TEMP              0 ****  ****    0 ROOT
