@<TRIPOS>MOLECULE
E65
   38    39     1     0     0
SMALL
bcc


@<TRIPOS>ATOM
      1 N1          1.2000   -0.6780   -0.3900 nb        1 E65     -0.710500
      2 C2          2.0400    0.1750    0.2710 ca        1 E65      0.730300
      3 N3          1.9770    0.5280    1.5850 nb        1 E65     -0.710500
      4 C4          0.9630   -0.0160    2.3090 ca        1 E65      0.471100
      5 C5          0.0370   -0.9010    1.7160 ca        1 E65     -0.364600
      6 C6          0.1930   -1.2120    0.3460 ca        1 E65      0.471100
      7 S7          3.2890    0.8540   -0.7270 ss        1 E65     -0.210400
      8 C8          4.2350    1.8600    0.3810 c3        1 E65     -0.148300
      9 C9          5.3530    2.4880   -0.3850 c         1 E65      0.570700
     10 O10         5.3350    3.6590   -0.7670 o         1 E65     -0.453100
     11 C11         0.8220    0.3390    3.7520 c3        1 E65     -0.160400
     12 C12        -0.7790   -2.1370   -0.3100 c3        1 E65     -0.160400
     13 C13         6.5620    1.6430   -0.6320 ca        1 E65     -0.032600
     14 C14         6.4500    0.2930   -0.9880 ca        1 E65     -0.118000
     15 C15         7.5910   -0.4550   -1.2410 ca        1 E65      0.003000
     16 C16         8.8800    0.1170   -1.1480 ca        1 E65     -0.545500
     17 C17         8.9690    1.4770   -0.7710 ca        1 E65      0.003000
     18 C18         7.8320    2.2300   -0.5220 ca        1 E65     -0.118000
     19 S19        10.1940   -0.7630   -1.3790 sy        1 E65      1.491200
     20 O20        11.3690   -0.2040   -0.9290 o         1 E65     -0.564300
     21 O21         9.9970   -2.1260   -1.4040 o         1 E65     -0.564300
     22 N22        10.3890   -0.4350   -3.2670 n4        1 E65     -0.787500
     23 H5         -0.7830   -1.3350    2.3020 ha        1 E65      0.164000
     24 H8          3.5910    2.6660    0.8270 h1        1 E65      0.119200
     25 H8A         4.6410    1.2520    1.2280 h1        1 E65      0.119200
     26 H11         1.7970    0.2320    4.2900 hc        1 E65      0.066367
     27 H11A        0.0680   -0.3260    4.2400 hc        1 E65      0.066367
     28 H11B        0.4820    1.4000    3.8500 hc        1 E65      0.066367
     29 H12        -0.2540   -2.8890   -0.9490 hc        1 E65      0.066367
     30 H12A       -1.4760   -1.5490   -0.9610 hc        1 E65      0.066367
     31 H12B       -1.3790   -2.6760    0.4640 hc        1 E65      0.066367
     32 H14         5.4440   -0.1750   -1.0640 ha        1 E65      0.196500
     33 H15         7.4900   -1.5260   -1.5040 ha        1 E65      0.172000
     34 H17         9.9670    1.9440   -0.6610 ha        1 E65      0.172000
     35 H18         7.9150    3.2970   -0.2450 ha        1 E65      0.196500
     36 HN22        9.6640    0.1740   -3.6340 hn        1 E65      0.456467
     37 HN2A       10.3510   -1.3130   -3.7840 hn        1 E65      0.456467
     38 H223       11.2900   -0.0010   -3.4590 hn        1 E65      0.456467
@<TRIPOS>BOND
     1    1    2 ar  
     2    1    6 ar  
     3    2    3 ar  
     4    2    7 1   
     5    3    4 ar  
     6    4    5 ar  
     7    4   11 1   
     8    5    6 ar  
     9    5   23 1   
    10    6   12 1   
    11    7    8 1   
    12    8    9 1   
    13    8   24 1   
    14    8   25 1   
    15    9   10 2   
    16    9   13 1   
    17   11   26 1   
    18   11   27 1   
    19   11   28 1   
    20   12   29 1   
    21   12   30 1   
    22   12   31 1   
    23   13   14 ar  
    24   13   18 ar  
    25   14   15 ar  
    26   14   32 1   
    27   15   16 ar  
    28   15   33 1   
    29   16   17 ar  
    30   16   19 1   
    31   17   18 ar  
    32   17   34 1   
    33   18   35 1   
    34   19   20 2   
    35   19   21 2   
    36   19   22 1   
    37   22   36 1   
    38   22   37 1   
    39   22   38 1   
@<TRIPOS>SUBSTRUCTURE
     1 E65         1 TEMP              0 ****  ****    0 ROOT
