@<TRIPOS>MOLECULE
E65
   38    39     1     0     0
SMALL
bcc


@<TRIPOS>ATOM
      1 N1          2.0660   -1.0790    0.2380 nb        1 E65     -0.711500
      2 C2          2.5230    0.1510    0.6170 ca        1 E65      0.734300
      3 N3          1.9330    1.0070    1.4980 nb        1 E65     -0.711500
      4 C4          0.7640    0.5910    2.0530 ca        1 E65      0.470600
      5 C5          0.2070   -0.6630    1.7250 ca        1 E65     -0.363600
      6 C6          0.8970   -1.4810    0.8010 ca        1 E65      0.470600
      7 S7          4.0160    0.6210   -0.1360 ss        1 E65     -0.248400
      8 C8          4.3620    2.2280    0.5140 c3        1 E65     -0.144300
      9 C9          5.6690    2.7030   -0.0320 c         1 E65      0.574700
     10 O10         5.9950    3.8880   -0.0590 o         1 E65     -0.457100
     11 C11         0.0590    1.4800    3.0230 c3        1 E65     -0.160400
     12 C12         0.3280   -2.8100    0.4300 c3        1 E65     -0.160400
     13 C13         6.5950    1.6420   -0.5350 ca        1 E65     -0.023600
     14 C14         6.2830    0.9240   -1.6990 ca        1 E65     -0.116000
     15 C15         7.1520   -0.0540   -2.1590 ca        1 E65      0.010500
     16 C16         8.3600   -0.3420   -1.4830 ca        1 E65     -0.550500
     17 C17         8.6480    0.3930   -0.3100 ca        1 E65      0.010500
     18 C18         7.7850    1.3730    0.1560 ca        1 E65     -0.116000
     19 S19         9.3180   -1.5220   -1.9730 sy        1 E65      1.494200
     20 O20        10.2580   -1.9430   -1.0580 o         1 E65     -0.564300
     21 O21         8.7830   -2.3740   -2.9140 o         1 E65     -0.564300
     22 N22        10.4540   -0.4630   -3.1210 nz        1 E65     -0.786500
     23 H5         -0.7380   -0.9960    2.1740 ha        1 E65      0.165000
     24 H8          3.5530    2.9600    0.2530 h1        1 E65      0.131200
     25 H8A         4.4230    2.2130    1.6350 h1        1 E65      0.131200
     26 H11         0.7300    1.7370    3.8810 hc        1 E65      0.066200
     27 H11A       -0.8530    0.9720    3.4200 hc        1 E65      0.066200
     28 H11B       -0.2490    2.4320    2.5220 hc        1 E65      0.066200
     29 H12         1.0930   -3.6180    0.5450 hc        1 E65      0.066200
     30 H12A       -0.0090   -2.7960   -0.6370 hc        1 E65      0.066200
     31 H12B       -0.5490   -3.0490    1.0810 hc        1 E65      0.066200
     32 H14         5.3410    1.1280   -2.2450 ha        1 E65      0.189000
     33 H15         6.8850   -0.6360   -3.0630 ha        1 E65      0.172000
     34 H17         9.5730    0.1690    0.2550 ha        1 E65      0.172000
     35 H18         8.0320    1.9410    1.0700 ha        1 E65      0.189000
     36 HN22       10.1880    0.5170   -3.1340 hn        1 E65      0.455467
     37 HN2A       10.4120   -0.8120   -4.0770 hn        1 E65      0.455467
     38 H223       11.4220   -0.5210   -2.8110 hn        1 E65      0.455467
@<TRIPOS>BOND
     1    1    2 ar  
     2    1    6 ar  
     3    2    3 ar  
     4    2    7 1   
     5    3    4 ar  
     6    4    5 ar  
     7    4   11 1   
     8    5    6 ar  
     9    5   23 1   
    10    6   12 1   
    11    7    8 1   
    12    8    9 1   
    13    8   24 1   
    14    8   25 1   
    15    9   10 2   
    16    9   13 1   
    17   11   26 1   
    18   11   27 1   
    19   11   28 1   
    20   12   29 1   
    21   12   30 1   
    22   12   31 1   
    23   13   14 ar  
    24   13   18 ar  
    25   14   15 ar  
    26   14   32 1   
    27   15   16 ar  
    28   15   33 1   
    29   16   17 ar  
    30   16   19 1   
    31   17   18 ar  
    32   17   34 1   
    33   18   35 1   
    34   19   20 2   
    35   19   21 2   
    36   19   22 1   
    37   22   36 1   
    38   22   37 1   
    39   22   38 1   
@<TRIPOS>SUBSTRUCTURE
     1 E65         1 TEMP              0 ****  ****    0 ROOT
