@<TRIPOS>MOLECULE
E65
   37    32     1     0     0
SMALL
bcc


@<TRIPOS>ATOM
      1 N1          0.8260    0.7960    4.1330 n1        1 E65     -0.164000
      2 C2          0.1190    0.5150    3.0020 c1        1 E65     -0.124000
      3 N3         -0.1900   -0.7760    2.6940 n1        1 E65     -0.207000
      4 C4          0.2010   -1.7710    3.5030 c1        1 E65      0.045000
      5 C5          0.9090   -1.4910    4.6360 c1        1 E65     -0.251000
      6 C6          1.2180   -0.1980    4.9440 c1        1 E65      0.043000
      7 S7         -0.3520    1.8250    1.9040 ss        1 E65      0.339000
      8 C8         -1.4450    1.1900    0.6620 c3        1 E65     -0.365000
      9 C9         -1.4520    2.1230   -0.5290 c2        1 E65      0.274000
     10 O10        -1.8180    3.2740   -0.3960 o         1 E65     -0.257000
     11 C11        -0.1250   -3.2060    3.1500 c3        1 E65     -0.180000
     12 C12         2.0520    0.1090    6.1680 c3        1 E65     -0.180000
     13 C13        -1.0370    1.6140   -1.8910 c2        1 E65     -0.095000
     14 C14        -1.9870    1.0910   -2.7540 c2        1 E65     -0.105000
     15 C15        -1.6140    0.6580   -4.0170 c1        1 E65     -0.034000
     16 C16        -0.2900    0.7490   -4.4170 c1        1 E65     -0.799000
     17 C17         0.6610    1.2720   -3.5540 c1        1 E65     -0.031000
     18 C18         0.2870    1.7040   -2.2910 c1        1 E65     -0.123000
     19 S19         0.1890    0.1910   -6.0300 s4        1 E65      2.079800
     20 O20         1.1980    1.0410   -6.5980 o         1 E65     -0.541400
     21 O21        -0.8790    0.3540   -6.9770 o         1 E65     -0.541400
     22 N22         0.6940   -1.3700   -5.9650 n2        1 E65     -0.954000
     23 H5          1.1930   -2.2150    5.2250 ha        1 E65      0.154000
     24 H8         -1.1400    0.3050    0.3800 h1        1 E65      0.145500
     25 H8A        -2.3500    1.1220    1.0270 h1        1 E65      0.145500
     26 H11         0.7060   -3.7100    3.0310 hc        1 E65      0.099000
     27 H11A       -0.6510   -3.6080    3.8720 hc        1 E65      0.099000
     28 H11B       -0.6430   -3.2280    2.3180 hc        1 E65      0.099000
     29 H12         2.1870    1.0770    6.2370 hc        1 E65      0.100667
     30 H12A        2.9220   -0.3370    6.0900 hc        1 E65      0.100667
     31 H12B        1.5890   -0.2150    6.9680 hc        1 E65      0.100667
     32 H14        -2.9200    1.0270   -2.4720 ha        1 E65      0.161000
     33 H15        -2.2830    0.2900   -4.6240 ha        1 E65      0.158000
     34 H17         1.5930    1.3350   -3.8350 ha        1 E65      0.159000
     35 H18         0.9560    2.0720   -1.6830 ha        1 E65      0.161000
     36 HN22        1.5480   -1.5640   -5.7040 hn        1 E65      0.244000
     37 HN2A        0.1260   -2.0440   -6.2060 hn        1 E65      0.244000
@<TRIPOS>BOND
     1    1    6 1   
     2    2    3 1   
     3    2    7 1   
     4    4    5 1   
     5    4   11 1   
     6    5   23 1   
     7    6   12 1   
     8    7    8 1   
     9    8    9 1   
    10    8   24 1   
    11    8   25 1   
    12    9   10 1   
    13    9   13 1   
    14   11   26 1   
    15   11   27 1   
    16   11   28 1   
    17   12   29 1   
    18   12   30 1   
    19   12   31 1   
    20   13   14 1   
    21   13   18 1   
    22   14   15 1   
    23   14   32 1   
    24   15   33 1   
    25   16   17 1   
    26   16   19 1   
    27   17   34 1   
    28   18   35 1   
    29   19   20 1   
    30   19   21 1   
    31   22   36 1   
    32   22   37 1   
@<TRIPOS>SUBSTRUCTURE
     1 E65         1 TEMP              0 ****  ****    0 ROOT
