@<TRIPOS>MOLECULE
E67
   89    92     1     0     0
SMALL
bcc


@<TRIPOS>ATOM
      1 N1          0.5270    0.0250   -0.5520 nb        1 E67     -0.813000
      2 C2          1.9000    0.0910   -0.8040 ca        1 E67      0.890900
      3 N3          2.8850    0.1740    0.1280 nb        1 E67     -0.783000
      4 C4          2.4810    0.1530    1.4460 ca        1 E67      0.468600
      5 C5          1.1110    0.0820    1.8330 ca        1 E67     -0.299600
      6 C6          0.1300    0.0240    0.7410 ca        1 E67      0.741200
      7 CAA         3.1210    0.2160    3.7980 ca        1 E67      0.126100
      8 CAB         1.7420    0.1600    4.1740 ca        1 E67      0.067100
      9 CAC         0.7630    0.0880    3.2010 ca        1 E67     -0.137000
     10 CAF         3.4820    0.2060    2.4670 ca        1 E67     -0.190300
     11 OAK         4.1350    0.3940    4.7230 os        1 E67     -0.330900
     12 OAL         1.4940    0.1580    5.5350 os        1 E67     -0.341900
     13 CAM         0.1470    0.4150    5.9240 c3        1 E67      0.111700
     14 NAN        -1.2210    0.0450    1.0420 nu        1 E67     -0.837900
     15 CAO        -2.2640   -0.1520    0.0470 c3        1 E67      0.212500
     16 CAP        -3.6210    0.3310    0.5880 c3        1 E67     -0.094900
     17 CAQ        -4.6990    0.1610   -0.4810 c3        1 E67      0.169800
     18 NAR        -4.8040   -1.2080   -0.9680 n3        1 E67     -0.732600
     19 CAS        -3.5300   -1.7230   -1.4470 c3        1 E67      0.169800
     20 CAT        -2.4130   -1.6100   -0.4130 c3        1 E67     -0.094900
     21 NAU         2.2520   -0.0120   -2.1810 nu        1 E67     -0.821900
     22 CAV         3.5350    0.5040   -2.5920 c3        1 E67      0.205800
     23 CAW         3.7660    0.2930   -4.0970 c3        1 E67     -0.124400
     24 CAX         5.1870    0.7340   -4.4220 c3        1 E67      0.106800
     25 NAY         5.5220    0.6180   -5.8830 nx        1 E67     -0.680400
     26 CAZ         6.6960    1.4660   -6.2200 c3        1 E67      0.081100
     27 CBA         5.7710   -0.7960   -6.2730 c3        1 E67      0.081100
     28 CBB         4.1990   -0.5840    5.7710 c3        1 E67      0.140400
     29 CBC         4.2250    0.1740    7.0900 c3        1 E67     -0.101400
     30 CBD         4.5900   -0.7540    8.2280 c3        1 E67     -0.075400
     31 CBE         4.6550    0.0150    9.5350 c3        1 E67     -0.109400
     32 CBF         5.0440   -0.9360   10.6590 c3        1 E67      0.098800
     33 NBG         5.1510   -0.2520   11.9830 nz        1 E67     -0.839600
     34 CBH        -5.8800   -1.3510   -1.9430 c3        1 E67      0.217100
     35 CBI        -6.1640   -2.7700   -2.3400 ca        1 E67     -0.096300
     36 CBJ        -6.4080   -3.7470   -1.3680 ca        1 E67     -0.118500
     37 CBK        -6.7270   -5.0490   -1.7500 ca        1 E67     -0.131000
     38 CBL        -6.8080   -5.3830   -3.1020 ca        1 E67     -0.123000
     39 CBM        -6.5670   -4.4110   -4.0730 ca        1 E67     -0.131000
     40 CBN        -6.2440   -3.1080   -3.6950 ca        1 E67     -0.118500
     41 HAC        -0.2910    0.0540    3.5130 ha        1 E67      0.141000
     42 HAF         4.5470    0.2580    2.1890 ha        1 E67      0.168000
     43 HAM         0.2160    0.5320    7.0350 h1        1 E67      0.049367
     44 HAMA       -0.5030   -0.4550    5.6620 h1        1 E67      0.049367
     45 HAMB       -0.2350    1.3520    5.4520 h1        1 E67      0.049367
     46 HNAN       -1.4640   -0.2530    1.9610 hn        1 E67      0.424800
     47 HAO        -2.0050    0.4810   -0.8550 h1        1 E67      0.082700
     48 HAP        -3.5680    1.4150    0.8650 hc        1 E67      0.055450
     49 HAPA       -3.9020   -0.2510    1.5040 hc        1 E67      0.055450
     50 HAQ        -5.6920    0.4420   -0.0280 h1        1 E67      0.040450
     51 HAQA       -4.4880    0.8890   -1.3210 h1        1 E67      0.040450
     52 HAS        -3.6820   -2.8120   -1.6980 h1        1 E67      0.040450
     53 HASA       -3.1970   -1.1960   -2.3910 h1        1 E67      0.040450
     54 HAT        -2.6400   -2.2690    0.4650 hc        1 E67      0.055450
     55 HATA       -1.4620   -1.9700   -0.8820 hc        1 E67      0.055450
     56 HNAU        1.5020    0.2250   -2.8000 hn        1 E67      0.419800
     57 HAV         4.3380   -0.0460   -2.0210 h1        1 E67      0.061700
     58 HAVA        3.6430    1.6050   -2.3630 h1        1 E67      0.061700
     59 HAW         3.0230    0.8940   -4.6860 hc        1 E67      0.073200
     60 HAWA        3.6170   -0.7890   -4.3530 hc        1 E67      0.073200
     61 HAX         5.9300    0.1100   -3.8470 hx        1 E67      0.107700
     62 HAXA        5.3220    1.8150   -4.1250 hx        1 E67      0.107700
     63 HAZ         7.5760    1.1520   -5.5980 hx        1 E67      0.107700
     64 HAZA        6.4520    2.5430   -6.0110 hx        1 E67      0.107700
     65 HAZB        6.9430    1.3430   -7.3090 hx        1 E67      0.107700
     66 HBA         5.9510   -0.8490   -7.3800 hx        1 E67      0.107700
     67 HBAA        4.8750   -1.4190   -6.0070 hx        1 E67      0.107700
     68 HBAB        6.6730   -1.1840   -5.7280 hx        1 E67      0.107700
     69 HBB         5.1610   -1.1410    5.6060 h1        1 E67      0.056200
     70 HBBA        3.3360   -1.2950    5.7340 h1        1 E67      0.056200
     71 HBC         4.9670    1.0120    7.0180 hc        1 E67      0.068200
     72 HBCA        3.2150    0.6310    7.2620 hc        1 E67      0.068200
     73 HBD         3.8270   -1.5730    8.3070 hc        1 E67      0.057200
     74 HBDA        5.5830   -1.2340    8.0220 hc        1 E67      0.057200
     75 HBE         3.6560    0.4820    9.7430 hc        1 E67      0.072200
     76 HBEA        5.4090    0.8420    9.4420 hc        1 E67      0.072200
     77 HBF         6.0460   -1.4090   10.4380 hx        1 E67      0.114200
     78 HBFA        4.2730   -1.7550   10.7580 hx        1 E67      0.114200
     79 HNBG        5.4140   -0.9270   12.7090 hn        1 E67      0.462800
     80 HNBA        5.8600    0.4870   11.9410 hn        1 E67      0.462800
     81 HBH        -5.6710   -0.7420   -2.8730 h1        1 E67      0.042700
     82 HBHA       -6.8160   -0.9330   -1.4690 h1        1 E67      0.042700
     83 HBJ        -6.3510   -3.4820   -0.3020 ha        1 E67      0.135500
     84 HBK        -6.9210   -5.8130   -0.9830 ha        1 E67      0.135000
     85 HBL        -7.0660   -6.4090   -3.4020 ha        1 E67      0.137000
     86 HBM        -6.6360   -4.6700   -5.1400 ha        1 E67      0.135000
     87 HBN        -6.0600   -2.3460   -4.4660 ha        1 E67      0.135500
     88 HAY1        4.7120    0.9580   -6.4200 hn        1 E67      0.451800
     89 HBG3        4.2520    0.1740   12.2330 hn        1 E67      0.462800
@<TRIPOS>BOND
     1    1    2 ar  
     2    1    6 ar  
     3    2    3 ar  
     4    2   21 1   
     5    3    4 ar  
     6    4    5 ar  
     7    4   10 ar  
     8    5    6 ar  
     9    5    9 ar  
    10    6   14 1   
    11    7    8 ar  
    12    7   10 ar  
    13    7   11 1   
    14    8    9 ar  
    15    8   12 1   
    16    9   41 1   
    17   10   42 1   
    18   11   28 1   
    19   12   13 1   
    20   13   43 1   
    21   13   44 1   
    22   13   45 1   
    23   14   15 1   
    24   14   46 1   
    25   15   16 1   
    26   15   20 1   
    27   15   47 1   
    28   16   17 1   
    29   16   48 1   
    30   16   49 1   
    31   17   18 1   
    32   17   50 1   
    33   17   51 1   
    34   18   19 1   
    35   18   34 1   
    36   19   20 1   
    37   19   52 1   
    38   19   53 1   
    39   20   54 1   
    40   20   55 1   
    41   21   22 1   
    42   21   56 1   
    43   22   23 1   
    44   22   57 1   
    45   22   58 1   
    46   23   24 1   
    47   23   59 1   
    48   23   60 1   
    49   24   25 1   
    50   24   61 1   
    51   24   62 1   
    52   25   26 1   
    53   25   27 1   
    54   25   88 1   
    55   26   63 1   
    56   26   64 1   
    57   26   65 1   
    58   27   66 1   
    59   27   67 1   
    60   27   68 1   
    61   28   29 1   
    62   28   69 1   
    63   28   70 1   
    64   29   30 1   
    65   29   71 1   
    66   29   72 1   
    67   30   31 1   
    68   30   73 1   
    69   30   74 1   
    70   31   32 1   
    71   31   75 1   
    72   31   76 1   
    73   32   33 1   
    74   32   77 1   
    75   32   78 1   
    76   33   79 1   
    77   33   80 1   
    78   33   89 1   
    79   34   35 1   
    80   34   81 1   
    81   34   82 1   
    82   35   36 ar  
    83   35   40 ar  
    84   36   37 ar  
    85   36   83 1   
    86   37   38 ar  
    87   37   84 1   
    88   38   39 ar  
    89   38   85 1   
    90   39   40 ar  
    91   39   86 1   
    92   40   87 1   
@<TRIPOS>SUBSTRUCTURE
     1 E67         1 TEMP              0 ****  ****    0 ROOT
