@<TRIPOS>MOLECULE
E67
   89    92     1     0     0
SMALL
bcc


@<TRIPOS>ATOM
      1 N1          0.5190    0.0310   -0.5450 nb        1 E67     -0.813000
      2 C2          1.8930    0.1270   -0.7920 ca        1 E67      0.890900
      3 N3          2.8720    0.2200    0.1450 nb        1 E67     -0.783000
      4 C4          2.4640    0.1780    1.4600 ca        1 E67      0.468600
      5 C5          1.0940    0.0750    1.8420 ca        1 E67     -0.299600
      6 C6          0.1180    0.0090    0.7450 ca        1 E67      0.741200
      7 CAA         3.0940    0.2300    3.8160 ca        1 E67      0.126100
      8 CAB         1.7160    0.1420    4.1860 ca        1 E67      0.067100
      9 CAC         0.7420    0.0610    3.2090 ca        1 E67     -0.137000
     10 CAF         3.4610    0.2400    2.4860 ca        1 E67     -0.190300
     11 OAK         4.1020    0.4200    4.7460 os        1 E67     -0.330900
     12 OAL         1.4640    0.1220    5.5460 os        1 E67     -0.341900
     13 CAM         0.1100    0.3440    5.9330 c3        1 E67      0.111700
     14 NAN        -1.2340    0.0010    1.0420 nh        1 E67     -0.837900
     15 CAO        -2.2690   -0.2050    0.0410 c3        1 E67      0.212500
     16 CAP        -3.6370    0.2460    0.5820 c3        1 E67     -0.094900
     17 CAQ        -4.7070    0.0680   -0.4930 c3        1 E67      0.169800
     18 NAR        -4.7850   -1.2970   -0.9950 n3        1 E67     -0.732600
     19 CAS        -3.5000   -1.7830   -1.4750 c3        1 E67      0.169800
     20 CAT        -2.3890   -1.6610   -0.4350 c3        1 E67     -0.094900
     21 NAU         2.2520    0.0430   -2.1680 nh        1 E67     -0.821900
     22 CAV         3.5250    0.5890   -2.5700 c3        1 E67      0.205800
     23 CAW         3.7660    0.3970   -4.0760 c3        1 E67     -0.124400
     24 CAX         5.1780    0.8690   -4.3910 c3        1 E67      0.106800
     25 NAY         5.5210    0.7730   -5.8520 n4        1 E67     -0.680400
     26 CAZ         6.6780    1.6480   -6.1770 c3        1 E67      0.081100
     27 CBA         5.7990   -0.6310   -6.2550 c3        1 E67      0.081100
     28 CBB         4.1820   -0.5650    5.7860 c3        1 E67      0.140400
     29 CBC         4.1880    0.1810    7.1110 c3        1 E67     -0.101400
     30 CBD         4.5680   -0.7490    8.2420 c3        1 E67     -0.075400
     31 CBE         4.6140    0.0100    9.5560 c3        1 E67     -0.109400
     32 CBF         5.0190   -0.9430   10.6730 c3        1 E67      0.098800
     33 NBG         5.1070   -0.2680   12.0030 n4        1 E67     -0.839600
     34 CBH        -5.8540   -1.4500   -1.9760 c3        1 E67      0.217100
     35 CBI        -6.1100   -2.8690   -2.3900 ca        1 E67     -0.096300
     36 CBJ        -6.3400   -3.8610   -1.4310 ca        1 E67     -0.118500
     37 CBK        -6.6320   -5.1650   -1.8290 ca        1 E67     -0.131000
     38 CBL        -6.7010   -5.4840   -3.1850 ca        1 E67     -0.123000
     39 CBM        -6.4740   -4.4970   -4.1440 ca        1 E67     -0.131000
     40 CBN        -6.1780   -3.1930   -3.7490 ca        1 E67     -0.118500
     41 HAC        -0.3120    0.0020    3.5160 ha        1 E67      0.141000
     42 HAF         4.5250    0.3170    2.2120 ha        1 E67      0.168000
     43 HAM         0.1710    0.4500    7.0450 h1        1 E67      0.049367
     44 HAMA       -0.2920    1.2770    5.4690 h1        1 E67      0.049367
     45 HAMB       -0.5200   -0.5380    5.6590 h1        1 E67      0.049367
     46 HNAN       -1.4750   -0.3110    1.9570 hn        1 E67      0.424800
     47 HAO        -2.0190    0.4420   -0.8530 h1        1 E67      0.082700
     48 HAP        -3.9100   -0.3500    1.4900 hc        1 E67      0.055450
     49 HAPA       -3.6050    1.3280    0.8700 hc        1 E67      0.055450
     50 HAQ        -4.5070    0.8090   -1.3240 h1        1 E67      0.040450
     51 HAQA       -5.7070    0.3260   -0.0410 h1        1 E67      0.040450
     52 HAS        -3.1730   -1.2400   -2.4110 h1        1 E67      0.040450
     53 HASA       -3.6300   -2.8720   -1.7380 h1        1 E67      0.040450
     54 HAT        -2.6070   -2.3330    0.4350 hc        1 E67      0.055450
     55 HATA       -1.4300   -1.9980   -0.9040 hc        1 E67      0.055450
     56 HNAU        1.4980    0.2720   -2.7880 hn        1 E67      0.419800
     57 HAV         4.3370    0.0500   -2.0010 h1        1 E67      0.061700
     58 HAVA        3.6100    1.6900   -2.3300 h1        1 E67      0.061700
     59 HAW         3.0130    0.9880   -4.6620 hc        1 E67      0.073200
     60 HAWA        3.6390   -0.6860   -4.3430 hc        1 E67      0.073200
     61 HAX         5.9320    0.2550   -3.8200 hx        1 E67      0.107700
     62 HAXA        5.2910    1.9500   -4.0840 hx        1 E67      0.107700
     63 HAZ         7.5630    1.3450   -5.5550 hx        1 E67      0.107700
     64 HAZA        6.4130    2.7170   -5.9580 hx        1 E67      0.107700
     65 HAZB        6.9320    1.5390   -7.2660 hx        1 E67      0.107700
     66 HBA         5.9840   -0.6700   -7.3620 hx        1 E67      0.107700
     67 HBAA        6.7060   -1.0060   -5.7100 hx        1 E67      0.107700
     68 HBAB        4.9150   -1.2750   -5.9980 hx        1 E67      0.107700
     69 HBB         5.1550   -1.1010    5.6190 h1        1 E67      0.056200
     70 HBBA        3.3340   -1.2940    5.7390 h1        1 E67      0.056200
     71 HBC         3.1670    0.6160    7.2840 hc        1 E67      0.068200
     72 HBCA        4.9130    1.0350    7.0480 hc        1 E67      0.068200
     73 HBD         3.8220   -1.5850    8.3110 hc        1 E67      0.057200
     74 HBDA        5.5710   -1.2070    8.0350 hc        1 E67      0.057200
     75 HBE         5.3510    0.8530    9.4720 hc        1 E67      0.072200
     76 HBEA        3.6040    0.4550    9.7650 hc        1 E67      0.072200
     77 HBF         4.2640   -1.7780   10.7630 hx        1 E67      0.114200
     78 HBFA        6.0310   -1.3920   10.4510 hx        1 E67      0.114200
     79 HNBG        5.8010    0.4860   11.9700 hn        1 E67      0.462800
     80 HNBA        4.1990    0.1370   12.2540 hn        1 E67      0.462800
     81 HBH        -6.8000   -1.0550   -1.5020 h1        1 E67      0.042700
     82 HBHA       -5.6530   -0.8260   -2.8990 h1        1 E67      0.042700
     83 HBJ        -6.2920   -3.6070   -0.3610 ha        1 E67      0.135500
     84 HBK        -6.8150   -5.9410   -1.0710 ha        1 E67      0.135000
     85 HBL        -6.9380   -6.5120   -3.4980 ha        1 E67      0.137000
     86 HBM        -6.5340   -4.7460   -5.2140 ha        1 E67      0.135000
     87 HBN        -6.0050   -2.4190   -4.5110 ha        1 E67      0.135500
     88 HAY1        4.7060    1.1030   -6.3890 hn        1 E67      0.451800
     89 HBG3        5.3820   -0.9440   12.7240 hn        1 E67      0.462800
@<TRIPOS>BOND
     1    1    2 ar  
     2    1    6 ar  
     3    2    3 ar  
     4    2   21 1   
     5    3    4 ar  
     6    4    5 ar  
     7    4   10 ar  
     8    5    6 ar  
     9    5    9 ar  
    10    6   14 1   
    11    7    8 ar  
    12    7   10 ar  
    13    7   11 1   
    14    8    9 ar  
    15    8   12 1   
    16    9   41 1   
    17   10   42 1   
    18   11   28 1   
    19   12   13 1   
    20   13   43 1   
    21   13   44 1   
    22   13   45 1   
    23   14   15 1   
    24   14   46 1   
    25   15   16 1   
    26   15   20 1   
    27   15   47 1   
    28   16   17 1   
    29   16   48 1   
    30   16   49 1   
    31   17   18 1   
    32   17   50 1   
    33   17   51 1   
    34   18   19 1   
    35   18   34 1   
    36   19   20 1   
    37   19   52 1   
    38   19   53 1   
    39   20   54 1   
    40   20   55 1   
    41   21   22 1   
    42   21   56 1   
    43   22   23 1   
    44   22   57 1   
    45   22   58 1   
    46   23   24 1   
    47   23   59 1   
    48   23   60 1   
    49   24   25 1   
    50   24   61 1   
    51   24   62 1   
    52   25   26 1   
    53   25   27 1   
    54   25   88 1   
    55   26   63 1   
    56   26   64 1   
    57   26   65 1   
    58   27   66 1   
    59   27   67 1   
    60   27   68 1   
    61   28   29 1   
    62   28   69 1   
    63   28   70 1   
    64   29   30 1   
    65   29   71 1   
    66   29   72 1   
    67   30   31 1   
    68   30   73 1   
    69   30   74 1   
    70   31   32 1   
    71   31   75 1   
    72   31   76 1   
    73   32   33 1   
    74   32   77 1   
    75   32   78 1   
    76   33   79 1   
    77   33   80 1   
    78   33   89 1   
    79   34   35 1   
    80   34   81 1   
    81   34   82 1   
    82   35   36 ar  
    83   35   40 ar  
    84   36   37 ar  
    85   36   83 1   
    86   37   38 ar  
    87   37   84 1   
    88   38   39 ar  
    89   38   85 1   
    90   39   40 ar  
    91   39   86 1   
    92   40   87 1   
@<TRIPOS>SUBSTRUCTURE
     1 E67         1 TEMP              0 ****  ****    0 ROOT
