@<TRIPOS>MOLECULE
E67
   91    94     1     0     0
SMALL
bcc


@<TRIPOS>ATOM
      1 N1          1.2300    0.2900   -1.4090 nb        1 E67     -0.684000
      2 C2          2.4870   -0.1530   -1.0610 ca        1 E67      0.683900
      3 N3          2.9670   -0.3820    0.1890 nb        1 E67     -0.615000
      4 C4          2.0960   -0.1900    1.2220 ca        1 E67      0.465600
      5 C5          0.7260    0.2440    0.9920 ca        1 E67     -0.153600
      6 C6          0.3720    0.4810   -0.3800 ca        1 E67      0.538200
      7 CAA         1.6700   -0.2670    3.6230 ca        1 E67      0.204100
      8 CAB         0.2920    0.1630    3.3820 ca        1 E67      0.245100
      9 CAC        -0.1440    0.4000    2.0870 ca        1 E67     -0.270000
     10 CAF         2.5350   -0.4330    2.5650 ca        1 E67     -0.266300
     11 OAK         1.9350   -0.4610    4.9370 os        1 E67     -0.274900
     12 OAL        -0.4450    0.2820    4.5040 os        1 E67     -0.248900
     13 CAM        -1.8130    0.7020    4.3850 c3        1 E67      0.094700
     14 NAN        -0.9750    0.9700   -0.7370 n4        1 E67     -0.765700
     15 CAO        -1.9420   -0.1380   -1.1670 c3        1 E67      0.140500
     16 CAP        -3.0780    0.4750   -1.9940 c3        1 E67     -0.111400
     17 CAQ        -4.0710   -0.6310   -2.3850 c3        1 E67      0.175800
     18 NAR        -4.5740   -1.3350   -1.2200 n3        1 E67     -0.745600
     19 CAS        -3.5060   -1.9430   -0.4520 c3        1 E67      0.175800
     20 CAT        -2.4980   -0.8920    0.0380 c3        1 E67     -0.111400
     21 NAU         3.4190   -0.4440   -2.2000 n4        1 E67     -0.731700
     22 CAV         4.0590    0.7990   -2.7370 c3        1 E67      0.113800
     23 CAW         4.9990    0.5040   -3.9090 c3        1 E67     -0.136400
     24 CAX         5.6020    1.8220   -4.4000 c3        1 E67      0.106800
     25 NAY         6.4780    1.6830   -5.6080 n4        1 E67     -0.678400
     26 CAZ         6.6580    3.0110   -6.2710 c3        1 E67      0.077100
     27 CBA         7.8050    1.0970   -5.2700 c3        1 E67      0.077100
     28 CBB         3.2430   -0.9430    5.3250 c3        1 E67      0.127400
     29 CBC         3.1460   -1.0680    6.8400 c3        1 E67     -0.092400
     30 CBD         4.4250   -1.6260    7.4310 c3        1 E67     -0.074400
     31 CBE         4.2880   -1.7430    8.9400 c3        1 E67     -0.109400
     32 CBF         5.5720   -2.3090    9.5360 c3        1 E67      0.100800
     33 NBG         5.5130   -2.4560   11.0200 n4        1 E67     -0.838600
     34 CBH        -5.6810   -2.2390   -1.5320 c3        1 E67      0.226100
     35 CBI        -6.3220   -2.8460   -0.3210 ca        1 E67     -0.128300
     36 CBJ        -7.0290   -2.0390    0.5780 ca        1 E67     -0.118500
     37 CBK        -7.6910   -2.6140    1.6610 ca        1 E67     -0.126000
     38 CBL        -7.6550   -3.9970    1.8490 ca        1 E67     -0.105000
     39 CBM        -6.9510   -4.8030    0.9540 ca        1 E67     -0.126000
     40 CBN        -6.2840   -4.2310   -0.1280 ca        1 E67     -0.118500
     41 HAC        -1.1980    0.6880    1.9430 ha        1 E67      0.165000
     42 HAF         3.5740   -0.7610    2.7370 ha        1 E67      0.192000
     43 HAM        -1.8650    1.7260    3.9440 h1        1 E67      0.083700
     44 HAMA       -2.1540    0.7090    5.4560 h1        1 E67      0.083700
     45 HAMB       -2.3940   -0.0400    3.7860 h1        1 E67      0.083700
     46 HNAN       -1.3700    1.4590    0.0780 hn        1 E67      0.470800
     47 HAO        -1.3450   -0.8430   -1.8170 hx        1 E67      0.106700
     48 HAP        -3.6200    1.2610   -1.4030 hc        1 E67      0.070700
     49 HAPA       -2.6830    0.9390   -2.9340 hc        1 E67      0.070700
     50 HAQ        -3.5620   -1.3200   -3.1220 h1        1 E67      0.067700
     51 HAQA       -4.9410   -0.1420   -2.9100 h1        1 E67      0.067700
     52 HAS        -3.9660   -2.4440    0.4480 h1        1 E67      0.067700
     53 HASA       -2.9410   -2.7280   -1.0370 h1        1 E67      0.067700
     54 HAT        -3.0180   -0.1880    0.7400 hc        1 E67      0.070700
     55 HATA       -1.6770   -1.4140    0.5930 hc        1 E67      0.070700
     56 HNAU        2.8840   -0.9140   -2.9460 hn        1 E67      0.484300
     57 HAV         3.2350    1.4970   -3.0660 hx        1 E67      0.126200
     58 HAVA        4.6290    1.2840   -1.8910 hx        1 E67      0.126200
     59 HAW         5.8180   -0.1950   -3.5830 hc        1 E67      0.092200
     60 HAWA        4.4320    0.0050   -4.7430 hc        1 E67      0.092200
     61 HAX         6.2220    2.2920   -3.5810 hx        1 E67      0.117700
     62 HAXA        4.7670    2.5370   -4.6670 hx        1 E67      0.117700
     63 HAZ         5.6610    3.4020   -6.6120 hx        1 E67      0.119867
     64 HAZA        7.3330    2.8840   -7.1640 hx        1 E67      0.119867
     65 HAZB        7.1270    3.7340   -5.5500 hx        1 E67      0.119867
     66 HBA         8.3620    1.7890   -4.5810 hx        1 E67      0.119867
     67 HBAA        8.4020    0.9660   -6.2170 hx        1 E67      0.119867
     68 HBAB        7.6640    0.0980   -4.7800 hx        1 E67      0.119867
     69 HBB         3.4300   -1.9320    4.8330 h1        1 E67      0.062200
     70 HBBA        4.0160   -0.1950    5.0140 h1        1 E67      0.062200
     71 HBC         2.2790   -1.7350    7.0960 hc        1 E67      0.080700
     72 HBCA        2.9270   -0.0570    7.2770 hc        1 E67      0.080700
     73 HBD         5.2870   -0.9540    7.1790 hc        1 E67      0.061700
     74 HBDA        4.6400   -2.6360    6.9910 hc        1 E67      0.061700
     75 HBE         4.0720   -0.7290    9.3730 hc        1 E67      0.077700
     76 HBEA        3.4180   -2.4100    9.1840 hc        1 E67      0.077700
     77 HBF         6.4420   -1.6310    9.2960 hx        1 E67      0.115700
     78 HBFA        5.7820   -3.3310    9.1010 hx        1 E67      0.115700
     79 HNBG        6.4000   -2.8410   11.3690 hn        1 E67      0.470467
     80 HNBA        4.7500   -3.0890   11.2880 hn        1 E67      0.470467
     81 HBH        -5.3410   -3.0610   -2.2300 h1        1 E67      0.060700
     82 HBHA       -6.4590   -1.6250   -2.0740 h1        1 E67      0.060700
     83 HBJ        -7.0780   -0.9520    0.4150 ha        1 E67      0.133500
     84 HBK        -8.2630   -1.9800    2.3560 ha        1 E67      0.148500
     85 HBL        -8.1950   -4.4520    2.6940 ha        1 E67      0.153000
     86 HBM        -6.9360   -5.8960    1.0920 ha        1 E67      0.148500
     87 HBN        -5.7500   -4.8750   -0.8430 ha        1 E67      0.133500
     88 HAN2       -0.9080    1.6460   -1.5140 hn        1 E67      0.470800
     89 HAU2        4.1500   -1.0940   -1.8640 hn        1 E67      0.484300
     90 HAY1        6.0120    1.0550   -6.2800 hn        1 E67      0.457800
     91 HBG3        5.3490   -1.5450   11.4640 hn        1 E67      0.470467
@<TRIPOS>BOND
     1    1    2 ar  
     2    1    6 ar  
     3    2    3 ar  
     4    2   21 1   
     5    3    4 ar  
     6    4    5 ar  
     7    4   10 ar  
     8    5    6 ar  
     9    5    9 ar  
    10    6   14 1   
    11    7    8 ar  
    12    7   10 ar  
    13    7   11 1   
    14    8    9 ar  
    15    8   12 1   
    16    9   41 1   
    17   10   42 1   
    18   11   28 1   
    19   12   13 1   
    20   13   43 1   
    21   13   44 1   
    22   13   45 1   
    23   14   15 1   
    24   14   46 1   
    25   14   88 1   
    26   15   16 1   
    27   15   20 1   
    28   15   47 1   
    29   16   17 1   
    30   16   48 1   
    31   16   49 1   
    32   17   18 1   
    33   17   50 1   
    34   17   51 1   
    35   18   19 1   
    36   18   34 1   
    37   19   20 1   
    38   19   52 1   
    39   19   53 1   
    40   20   54 1   
    41   20   55 1   
    42   21   22 1   
    43   21   56 1   
    44   21   89 1   
    45   22   23 1   
    46   22   57 1   
    47   22   58 1   
    48   23   24 1   
    49   23   59 1   
    50   23   60 1   
    51   24   25 1   
    52   24   61 1   
    53   24   62 1   
    54   25   26 1   
    55   25   27 1   
    56   25   90 1   
    57   26   63 1   
    58   26   64 1   
    59   26   65 1   
    60   27   66 1   
    61   27   67 1   
    62   27   68 1   
    63   28   29 1   
    64   28   69 1   
    65   28   70 1   
    66   29   30 1   
    67   29   71 1   
    68   29   72 1   
    69   30   31 1   
    70   30   73 1   
    71   30   74 1   
    72   31   32 1   
    73   31   75 1   
    74   31   76 1   
    75   32   33 1   
    76   32   77 1   
    77   32   78 1   
    78   33   79 1   
    79   33   80 1   
    80   33   91 1   
    81   34   35 1   
    82   34   81 1   
    83   34   82 1   
    84   35   36 ar  
    85   35   40 ar  
    86   36   37 ar  
    87   36   83 1   
    88   37   38 ar  
    89   37   84 1   
    90   38   39 ar  
    91   38   85 1   
    92   39   40 ar  
    93   39   86 1   
    94   40   87 1   
@<TRIPOS>SUBSTRUCTURE
     1 E67         1 TEMP              0 ****  ****    0 ROOT
