@<TRIPOS>MOLECULE
E67
   87    84     1     0     0
SMALL
bcc


@<TRIPOS>ATOM
      1 N1         -0.0560   -0.7380   -1.2500 n1        1 E67     -0.296000
      2 C2          1.3350   -0.5400   -1.3010 c1        1 E67      0.193000
      3 N3          2.0500   -0.4800   -0.1570 n1        1 E67     -0.266000
      4 C4          1.4140   -0.6120    1.0720 c1        1 E67      0.113000
      5 C5          0.0540   -0.8050    1.1280 c1        1 E67     -0.218000
      6 C6         -0.6830   -0.8680   -0.0440 c2        1 E67      0.212000
      7 CAA         1.4920   -0.4910    3.5380 c1        1 E67      0.105000
      8 CAB         0.1040   -0.6880    3.5960 c1        1 E67     -0.001000
      9 CAC        -0.6250   -0.8450    2.4270 c1        1 E67     -0.067000
     10 CAF         2.1580   -0.4520    2.2700 c2        1 E67     -0.219000
     11 OAK         2.2600   -0.5830    4.7320 os        1 E67     -0.208000
     12 OAL        -0.4970   -0.8080    4.9150 os        1 E67     -0.212000
     13 CAM        -1.3780    0.2590    5.2570 c3        1 E67     -0.075000
     14 NAN        -2.1090   -0.9610   -0.1270 n3        1 E67     -0.286000
     15 CAO        -2.6720   -1.3880   -1.2310 c3        1 E67      0.020000
     16 CAP        -3.3610   -0.2290   -2.0250 c3        1 E67     -0.177000
     17 CAQ        -4.0620   -0.7250   -3.3100 c3        1 E67     -0.064500
     18 NAR        -4.2830   -1.9970   -3.2620 n3        1 E67     -0.257000
     19 CAS        -4.6810   -2.7050   -2.2110 c3        1 E67     -0.064500
     20 CAT        -4.0010   -2.2270   -0.9410 c3        1 E67     -0.177000
     21 NAU         1.9970   -0.4720   -2.5520 n3        1 E67     -0.275000
     22 CAV         3.3320    0.1460   -2.6390 c3        1 E67     -0.033000
     23 CAW         3.8170    0.0930   -4.0730 c3        1 E67     -0.176000
     24 CAX         4.6540    1.4070   -4.4060 c3        1 E67     -0.064000
     25 NAY         4.6050    1.6590   -5.7770 n3        1 E67     -0.264000
     26 CAZ         4.1980    3.0780   -6.0070 c3        1 E67     -0.120000
     27 CBA         5.8820    1.4390   -6.3380 c3        1 E67     -0.120000
     28 CBB         2.7970    0.6550    5.1650 c3        1 E67     -0.025000
     29 CBC         3.4820    0.4680    6.5380 c3        1 E67     -0.165000
     30 CBD         3.9710    1.8840    7.0950 c3        1 E67     -0.157000
     31 CBE         4.7100    1.6840    8.4090 c3        1 E67     -0.161000
     32 CBF         5.0890    3.0380    8.9950 c3        1 E67     -0.077000
     33 NBG         5.8230    2.8340   10.2210 n3        1 E67     -0.348000
     34 CBH        -5.0430   -2.4080   -4.4540 c3        1 E67     -0.028000
     35 CBI        -6.5470   -2.0590   -4.2660 c2        1 E67     -0.115000
     36 CBJ        -6.9710   -0.7020   -4.3090 c2        1 E67     -0.121000
     37 CBK        -8.3460   -0.3940   -4.3360 c1        1 E67     -0.131000
     38 CBL        -9.2900   -1.4230   -4.3210 c1        1 E67     -0.129000
     39 CBM        -8.8580   -2.7830   -4.2780 c1        1 E67     -0.129000
     40 CBN        -7.4930   -3.0850   -4.2510 c1        1 E67     -0.121000
     41 HAC        -1.6330   -0.9860    2.4720 ha        1 E67      0.143000
     42 HAF         3.1040   -0.3150    2.2310 ha        1 E67      0.157000
     43 HAM        -1.0260    1.0610    4.9500 h1        1 E67      0.081333
     44 HAMA       -1.4790    0.2980    6.2280 h1        1 E67      0.081333
     45 HAMB       -2.2760    0.1030    4.8330 h1        1 E67      0.081333
     46 HNAN       -2.6330   -0.7930    0.6320 hn        1 E67      0.211000
     47 HAO        -2.0790   -1.8620   -1.7650 h1        1 E67      0.131000
     48 HAP        -4.0110    0.1870   -1.4600 hc        1 E67      0.093000
     49 HAPA       -2.6570    0.4580   -2.2790 hc        1 E67      0.093000
     50 HAQ        -4.9540   -0.2360   -3.4160 h1        1 E67      0.076000
     51 HAQA       -3.4490   -0.5120   -4.1430 h1        1 E67      0.076000
     52 HAS        -5.6320   -2.6150   -2.1130 h1        1 E67      0.076000
     53 HASA       -4.4670   -3.6190   -2.3540 h1        1 E67      0.076000
     54 HAT        -4.6220   -1.6680   -0.4440 hc        1 E67      0.093000
     55 HATA       -3.7840   -2.9600   -0.4270 hc        1 E67      0.093000
     56 HNAU        1.6660   -0.9360   -3.2660 hn        1 E67      0.223000
     57 HAV         3.9450   -0.3350   -2.0720 h1        1 E67      0.092000
     58 HAVA        3.2810    1.1160   -2.3350 h1        1 E67      0.092000
     59 HAW         3.0790    0.0410   -4.6490 hc        1 E67      0.094500
     60 HAWA        4.4050   -0.7260   -4.1990 hc        1 E67      0.094500
     61 HAX         4.2870    2.1440   -3.9380 h1        1 E67      0.072500
     62 HAXA        5.5870    1.2760   -4.1310 h1        1 E67      0.072500
     63 HAZ         4.8850    3.7020   -5.5790 h1        1 E67      0.070833
     64 HAZA        4.1520    3.2570   -6.9730 h1        1 E67      0.070833
     65 HAZB        3.2700    3.2420   -5.5820 h1        1 E67      0.070833
     66 HBA         5.9420    1.9060   -7.2440 h1        1 E67      0.070833
     67 HBAA        6.5640    1.8000   -5.7410 h1        1 E67      0.070833
     68 HBAB        6.0280    0.4710   -6.4570 h1        1 E67      0.070833
     69 HBB         2.0970    1.2950    5.2440 h1        1 E67      0.084500
     70 HBBA        3.4700    0.9770    4.4950 h1        1 E67      0.084500
     71 HBC         4.2220   -0.1030    6.4440 hc        1 E67      0.097500
     72 HBCA        2.8160    0.0550    7.1980 hc        1 E67      0.097500
     73 HBD         4.5310    2.2770    6.4860 hc        1 E67      0.082000
     74 HBDA        3.2110    2.4450    7.2410 hc        1 E67      0.082000
     75 HBE         4.1220    1.2050    9.0450 hc        1 E67      0.088500
     76 HBEA        5.5310    1.1470    8.2510 hc        1 E67      0.088500
     77 HBF         5.6410    3.5240    8.3630 h1        1 E67      0.063500
     78 HBFA        4.2640    3.5590    9.1850 h1        1 E67      0.063500
     79 HNBG        5.2990    3.1650   10.9750 hn        1 E67      0.144000
     80 HNBA        6.5890    3.2640   10.1820 hn        1 E67      0.144000
     81 HBH        -4.6780   -1.9160   -5.2760 h1        1 E67      0.098500
     82 HBHA       -4.9480   -3.3780   -4.5870 h1        1 E67      0.098500
     83 HBJ        -6.2580    0.0690   -4.3200 ha        1 E67      0.131000
     84 HBK        -8.6290    0.5030   -4.3650 ha        1 E67      0.132000
     85 HBL       -10.2970   -1.1990   -4.3400 ha        1 E67      0.132000
     86 HBM        -9.5480   -3.5430   -4.2660 ha        1 E67      0.132000
     87 HBN        -7.2000   -4.0200   -4.2230 ha        1 E67      0.132000
@<TRIPOS>BOND
     1    1    6 1   
     2    2    3 1   
     3    2   21 1   
     4    4    5 1   
     5    4   10 1   
     6    5    6 1   
     7    6   14 1   
     8    7   10 1   
     9    7   11 1   
    10    8    9 1   
    11    8   12 1   
    12    9   41 1   
    13   10   42 1   
    14   11   28 1   
    15   12   13 1   
    16   13   43 1   
    17   13   44 1   
    18   13   45 1   
    19   14   15 1   
    20   14   46 1   
    21   15   16 1   
    22   15   20 1   
    23   15   47 1   
    24   16   17 1   
    25   16   48 1   
    26   16   49 1   
    27   17   18 1   
    28   17   50 1   
    29   17   51 1   
    30   18   19 1   
    31   18   34 1   
    32   19   20 1   
    33   19   52 1   
    34   19   53 1   
    35   20   54 1   
    36   20   55 1   
    37   21   22 1   
    38   21   56 1   
    39   22   23 1   
    40   22   57 1   
    41   22   58 1   
    42   23   24 1   
    43   23   59 1   
    44   23   60 1   
    45   24   25 1   
    46   24   61 1   
    47   24   62 1   
    48   25   26 1   
    49   25   27 1   
    50   26   63 1   
    51   26   64 1   
    52   26   65 1   
    53   27   66 1   
    54   27   67 1   
    55   27   68 1   
    56   28   29 1   
    57   28   69 1   
    58   28   70 1   
    59   29   30 1   
    60   29   71 1   
    61   29   72 1   
    62   30   31 1   
    63   30   73 1   
    64   30   74 1   
    65   31   32 1   
    66   31   75 1   
    67   31   76 1   
    68   32   33 1   
    69   32   77 1   
    70   32   78 1   
    71   33   79 1   
    72   33   80 1   
    73   34   35 1   
    74   34   81 1   
    75   34   82 1   
    76   35   36 1   
    77   35   40 1   
    78   36   37 1   
    79   36   83 1   
    80   37   84 1   
    81   38   39 1   
    82   38   85 1   
    83   39   86 1   
    84   40   87 1   
@<TRIPOS>SUBSTRUCTURE
     1 E67         1 TEMP              0 ****  ****    0 ROOT
