@<TRIPOS>MOLECULE
E67
   87    90     1     0     0
SMALL
bcc


@<TRIPOS>ATOM
      1 N1          0.8300   -0.7570    0.6240 nb        1 E67     -0.817000
      2 C2         -0.2440   -1.6110    0.3260 ca        1 E67      0.898900
      3 N3         -1.5400   -1.2240    0.1560 nb        1 E67     -0.780000
      4 C4         -1.7990    0.1210    0.2620 ca        1 E67      0.489600
      5 C5         -0.7890    1.0830    0.5590 ca        1 E67     -0.322600
      6 C6          0.5640    0.5590    0.7430 ca        1 E67      0.721200
      7 CAA        -3.4560    1.9070    0.1770 ca        1 E67      0.158100
      8 CAB        -2.4310    2.8660    0.4920 ca        1 E67      0.082100
      9 CAC        -1.1310    2.4510    0.6770 ca        1 E67     -0.143000
     10 CAF        -3.1470    0.5710    0.0680 ca        1 E67     -0.273300
     11 OAK        -4.7090    2.4500    0.0120 os        1 E67     -0.304900
     12 OAL        -2.8780    4.1700    0.5770 os        1 E67     -0.302900
     13 CAM        -1.9050    5.1410    0.9430 c3        1 E67      0.109700
     14 NAN         1.5800    1.4410    1.1270 nh        1 E67     -0.834900
     15 CAO         2.9750    1.0350    1.1580 c3        1 E67      0.205500
     16 CAP         3.8110    2.0430    1.9660 c3        1 E67     -0.094900
     17 CAQ         5.2600    1.5710    2.0500 c3        1 E67      0.169300
     18 NAR         5.8660    1.3460    0.7440 n3        1 E67     -0.731600
     19 CAS         5.0760    0.4490   -0.0890 c3        1 E67      0.169300
     20 CAT         3.6200    0.8820   -0.2280 c3        1 E67     -0.094900
     21 NAU         0.1050   -2.9610    0.1150 nh        1 E67     -0.826900
     22 CAV        -0.9260   -3.9720    0.1950 c3        1 E67      0.199800
     23 CAW        -0.3550   -5.3900    0.1460 c3        1 E67     -0.096400
     24 CAX        -1.5170   -6.3810    0.1560 c3        1 E67      0.172800
     25 NAY        -1.1040   -7.7680    0.3290 n3        1 E67     -0.738600
     26 CAZ        -2.2230   -8.6350    0.6280 c3        1 E67      0.156100
     27 CBA        -0.2850   -8.2640   -0.7520 c3        1 E67      0.156100
     28 CBB        -5.7550    1.5200   -0.3100 c3        1 E67      0.123400
     29 CBC        -7.0150    2.3560   -0.4490 c3        1 E67     -0.085400
     30 CBD        -8.1970    1.4680   -0.7690 c3        1 E67     -0.078400
     31 CBE        -9.4610    2.2870   -0.9160 c3        1 E67     -0.082400
     32 CBF       -10.6470    1.3740   -1.2280 c3        1 E67      0.158800
     33 NBG       -11.8810    2.0920   -1.4400 n3        1 E67     -0.915800
     34 CBH         7.2560    0.9200    0.8670 c3        1 E67      0.215100
     35 CBI         8.0070    0.8940   -0.4320 ca        1 E67     -0.088300
     36 CBJ         8.0080    2.0080   -1.2790 ca        1 E67     -0.117500
     37 CBK         8.7510    1.9900   -2.4580 ca        1 E67     -0.133500
     38 CBL         9.5010    0.8640   -2.7970 ca        1 E67     -0.129000
     39 CBM         9.5030   -0.2480   -1.9550 ca        1 E67     -0.133500
     40 CBN         8.7580   -0.2350   -0.7770 ca        1 E67     -0.117500
     41 HAC        -0.3660    3.1970    0.9330 ha        1 E67      0.135000
     42 HAF        -3.9180   -0.1770   -0.1670 ha        1 E67      0.159000
     43 HAM        -1.4730    4.9110    1.9480 h1        1 E67      0.043700
     44 HAMA       -1.0970    5.2010    0.1740 h1        1 E67      0.043700
     45 HAMB       -2.4910    6.0940    0.9740 h1        1 E67      0.043700
     46 HNAN        1.4470    2.3750    0.8030 hn        1 E67      0.409800
     47 HAO         3.0330    0.0370    1.6880 h1        1 E67      0.084700
     48 HAP         3.7680    3.0550    1.4850 hc        1 E67      0.055200
     49 HAPA        3.4100    2.1360    3.0070 hc        1 E67      0.055200
     50 HAQ         5.8620    2.3680    2.5730 h1        1 E67      0.036700
     51 HAQA        5.2970    0.6410    2.6920 h1        1 E67      0.036700
     52 HAS         5.5510    0.4390   -1.1110 h1        1 E67      0.036700
     53 HASA        5.0960   -0.6090    0.3090 h1        1 E67      0.036700
     54 HAT         3.0790    0.1030   -0.8240 hc        1 E67      0.055200
     55 HATA        3.5620    1.8510   -0.7880 hc        1 E67      0.055200
     56 HNAU        0.9870   -3.2280    0.4990 hn        1 E67      0.421800
     57 HAV        -1.5370   -3.8580    1.1380 h1        1 E67      0.052700
     58 HAVA       -1.6240   -3.8220   -0.6790 h1        1 E67      0.052700
     59 HAW         0.2580   -5.5250   -0.7830 hc        1 E67      0.054200
     60 HAWA        0.3150   -5.5710    1.0260 hc        1 E67      0.054200
     61 HAX        -2.1980   -6.1220    1.0170 h1        1 E67      0.033200
     62 HAXA       -2.1110   -6.2430   -0.7960 h1        1 E67      0.033200
     63 HAZ        -2.9770   -8.6900   -0.2040 h1        1 E67      0.031533
     64 HAZA       -1.8360   -9.6680    0.8270 h1        1 E67      0.031533
     65 HAZB       -2.7390   -8.2620    1.5510 h1        1 E67      0.031533
     66 HBA         0.6530   -7.6520   -0.8080 h1        1 E67      0.031533
     67 HBAA       -0.0030   -9.3290   -0.5400 h1        1 E67      0.031533
     68 HBAB       -0.7970   -8.2250   -1.7530 h1        1 E67      0.031533
     69 HBB        -5.5070    0.9960   -1.2710 h1        1 E67      0.043200
     70 HBBA       -5.8540    0.7680    0.5160 h1        1 E67      0.043200
     71 HBC        -7.1960    2.9170    0.5050 hc        1 E67      0.060700
     72 HBCA       -6.8690    3.1180   -1.2580 hc        1 E67      0.060700
     73 HBD        -8.0010    0.9060   -1.7200 hc        1 E67      0.041700
     74 HBDA       -8.3300    0.7080    0.0450 hc        1 E67      0.041700
     75 HBE        -9.6530    2.8560    0.0310 hc        1 E67      0.049200
     76 HBEA       -9.3320    3.0390   -1.7380 hc        1 E67      0.049200
     77 HBF       -10.4260    0.8030   -2.1750 h1        1 E67      0.024200
     78 HBFA      -10.7270    0.6120   -0.3950 h1        1 E67      0.024200
     79 HNBG      -12.6470    1.4520   -1.5130 hn        1 E67      0.348800
     80 HNBA      -12.0590    2.7340   -0.6940 hn        1 E67      0.348800
     81 HBH         7.7750    1.6590    1.5460 h1        1 E67      0.038700
     82 HBHA        7.3310   -0.0980    1.3560 h1        1 E67      0.038700
     83 HBJ         7.4160    2.8970   -1.0120 ha        1 E67      0.137500
     84 HBK         8.7470    2.8680   -3.1210 ha        1 E67      0.131000
     85 HBL        10.0880    0.8520   -3.7270 ha        1 E67      0.131000
     86 HBM        10.0920   -1.1380   -2.2200 ha        1 E67      0.131000
     87 HBN         8.7620   -1.1160   -0.1180 ha        1 E67      0.137500
@<TRIPOS>BOND
     1    1    2 ar  
     2    1    6 ar  
     3    2    3 ar  
     4    2   21 1   
     5    3    4 ar  
     6    4    5 ar  
     7    4   10 ar  
     8    5    6 ar  
     9    5    9 ar  
    10    6   14 1   
    11    7    8 ar  
    12    7   10 ar  
    13    7   11 1   
    14    8    9 ar  
    15    8   12 1   
    16    9   41 1   
    17   10   42 1   
    18   11   28 1   
    19   12   13 1   
    20   13   43 1   
    21   13   44 1   
    22   13   45 1   
    23   14   15 1   
    24   14   46 1   
    25   15   16 1   
    26   15   20 1   
    27   15   47 1   
    28   16   17 1   
    29   16   48 1   
    30   16   49 1   
    31   17   18 1   
    32   17   50 1   
    33   17   51 1   
    34   18   19 1   
    35   18   34 1   
    36   19   20 1   
    37   19   52 1   
    38   19   53 1   
    39   20   54 1   
    40   20   55 1   
    41   21   22 1   
    42   21   56 1   
    43   22   23 1   
    44   22   57 1   
    45   22   58 1   
    46   23   24 1   
    47   23   59 1   
    48   23   60 1   
    49   24   25 1   
    50   24   61 1   
    51   24   62 1   
    52   25   26 1   
    53   25   27 1   
    54   26   63 1   
    55   26   64 1   
    56   26   65 1   
    57   27   66 1   
    58   27   67 1   
    59   27   68 1   
    60   28   29 1   
    61   28   69 1   
    62   28   70 1   
    63   29   30 1   
    64   29   71 1   
    65   29   72 1   
    66   30   31 1   
    67   30   73 1   
    68   30   74 1   
    69   31   32 1   
    70   31   75 1   
    71   31   76 1   
    72   32   33 1   
    73   32   77 1   
    74   32   78 1   
    75   33   79 1   
    76   33   80 1   
    77   34   35 1   
    78   34   81 1   
    79   34   82 1   
    80   35   36 ar  
    81   35   40 ar  
    82   36   37 ar  
    83   36   83 1   
    84   37   38 ar  
    85   37   84 1   
    86   38   39 ar  
    87   38   85 1   
    88   39   40 ar  
    89   39   86 1   
    90   40   87 1   
@<TRIPOS>SUBSTRUCTURE
     1 E67         1 TEMP              0 ****  ****    0 ROOT
