@<TRIPOS>MOLECULE
E6C
   51    50     1     0     0
SMALL
bcc


@<TRIPOS>ATOM
      1 O1         -0.3680    2.6700    1.3480 oh        1 E6C     -0.530800
      2 C2          1.4700    3.6860    0.0390 c3        1 E6C     -0.207400
      3 C3          0.8250    2.4320    0.6610 c3        1 E6C      0.090100
      4 C4          1.9260    1.8780    1.5640 c         1 E6C      0.694600
      5 O5          2.0250    0.9380    2.3410 o         1 E6C     -0.571500
      6 N6          3.9500   -1.3280    1.9390 n3        1 E6C     -0.961800
      7 C7          4.5970   -1.4540    3.2190 c3        1 E6C      0.134500
      8 C8          5.4630   -0.2060    3.5080 c         1 E6C      0.527100
      9 O9          6.5240   -0.1810    4.1120 o         1 E6C     -0.424100
     10 N10         4.8990    1.1050    3.0290 n4        1 E6C     -0.663800
     11 C11         5.6140    2.3220    3.5110 c3        1 E6C      0.104800
     12 C12         5.3370    2.6480    4.9720 c3        1 E6C     -0.100400
     13 C13         5.9930    3.9690    5.3560 c3        1 E6C     -0.060700
     14 C14         5.4360    4.4390    6.6860 c3        1 E6C     -0.098100
     15 C15         7.4990    3.8400    5.4360 c3        1 E6C     -0.098100
     16 C16         2.8740    3.7140    0.5640 c         1 E6C      0.727600
     17 O17         3.0930    2.6310    1.4480 os        1 E6C     -0.520200
     18 O18         3.8470    4.4280    0.4150 o         1 E6C     -0.492500
     19 C19         5.5030   -2.6840    3.3900 c3        1 E6C     -0.102400
     20 C20         4.7070   -3.9810    3.4290 c3        1 E6C     -0.066700
     21 C21         5.6540   -5.1540    3.2540 c3        1 E6C     -0.098100
     22 C22         3.9380   -4.1250    4.7260 c3        1 E6C     -0.098100
     23 HO1        -0.2350    3.4030    1.9660 ho        1 E6C      0.421000
     24 H21         0.9240    4.6210    0.3300 hc        1 E6C      0.129200
     25 H22         1.4780    3.6280   -1.0800 hc        1 E6C      0.129200
     26 H3          0.5570    1.6590   -0.1180 h1        1 E6C      0.142700
     27 HN6         4.2760   -2.0040    1.2790 hn        1 E6C      0.399800
     28 H7          3.8330   -1.4550    4.0600 h1        1 E6C      0.097700
     29 HN1         4.9110    1.1030    1.9980 hn        1 E6C      0.473300
     30 H111        6.7200    2.1580    3.3600 hx        1 E6C      0.110700
     31 H112        5.2730    3.1770    2.8530 hx        1 E6C      0.110700
     32 H121        4.2300    2.7260    5.1480 hc        1 E6C      0.062200
     33 H122        5.7360    1.8300    5.6290 hc        1 E6C      0.062200
     34 H13         5.7380    4.7390    4.5730 hc        1 E6C      0.054700
     35 H141        5.6500    3.6920    7.4880 hc        1 E6C      0.046533
     36 H142        5.9070    5.4100    6.9740 hc        1 E6C      0.046533
     37 H143        4.3320    4.5870    6.6220 hc        1 E6C      0.046533
     38 H151        7.9470    4.8080    5.7680 hc        1 E6C      0.046533
     39 H152        7.7910    3.0490    6.1680 hc        1 E6C      0.046533
     40 H153        7.9310    3.5790    4.4390 hc        1 E6C      0.046533
     41 H191        6.0820   -2.5760    4.3460 hc        1 E6C      0.076200
     42 H192        6.2470   -2.7230    2.5500 hc        1 E6C      0.076200
     43 H20         3.9730   -3.9940    2.5750 hc        1 E6C      0.043700
     44 H211        6.1850   -5.0870    2.2740 hc        1 E6C      0.046200
     45 H212        6.4140   -5.1700    4.0710 hc        1 E6C      0.046200
     46 H213        5.0830   -6.1130    3.2830 hc        1 E6C      0.046200
     47 H221        3.1770   -3.3160    4.8350 hc        1 E6C      0.046200
     48 H222        3.4050   -5.1070    4.7460 hc        1 E6C      0.046200
     49 H223        4.6300   -4.0850    5.6020 hc        1 E6C      0.046200
     50 H62         2.9530   -1.3490    2.0170 hn        1 E6C      0.399800
     51 H102        3.9060    1.1530    3.3080 hn        1 E6C      0.473300
@<TRIPOS>BOND
     1    1    3 1   
     2    1   23 1   
     3    2    3 1   
     4    2   16 1   
     5    2   24 1   
     6    2   25 1   
     7    3    4 1   
     8    3   26 1   
     9    4    5 2   
    10    4   17 1   
    11    6    7 1   
    12    6   27 1   
    13    6   50 1   
    14    7    8 1   
    15    7   19 1   
    16    7   28 1   
    17    8    9 2   
    18    8   10 1   
    19   10   11 1   
    20   10   29 1   
    21   10   51 1   
    22   11   12 1   
    23   11   30 1   
    24   11   31 1   
    25   12   13 1   
    26   12   32 1   
    27   12   33 1   
    28   13   14 1   
    29   13   15 1   
    30   13   34 1   
    31   14   35 1   
    32   14   36 1   
    33   14   37 1   
    34   15   38 1   
    35   15   39 1   
    36   15   40 1   
    37   16   17 1   
    38   16   18 2   
    39   19   20 1   
    40   19   41 1   
    41   19   42 1   
    42   20   21 1   
    43   20   22 1   
    44   20   43 1   
    45   21   44 1   
    46   21   45 1   
    47   21   46 1   
    48   22   47 1   
    49   22   48 1   
    50   22   49 1   
@<TRIPOS>SUBSTRUCTURE
     1 E6C         1 TEMP              0 ****  ****    0 ROOT
