@<TRIPOS>MOLECULE
E6C
   51    50     1     0     0
SMALL
bcc


@<TRIPOS>ATOM
      1 O1         -0.3430    2.5940    1.2400 oh        1 E6C     -0.530800
      2 C2          1.5120    3.5850   -0.0640 c3        1 E6C     -0.207400
      3 C3          0.8590    2.3430    0.5740 c3        1 E6C      0.090100
      4 C4          1.9490    1.8080    1.5020 c         1 E6C      0.694600
      5 O5          2.0380    0.8840    2.2990 o         1 E6C     -0.571500
      6 N6          3.9700   -1.3870    1.9640 n8        1 E6C     -0.961800
      7 C7          4.6020   -1.4890    3.2540 c3        1 E6C      0.134500
      8 C8          5.4620   -0.2340    3.5310 c         1 E6C      0.527100
      9 O9          6.5140   -0.1960    4.1490 o         1 E6C     -0.424100
     10 N10         4.9020    1.0670    3.0210 ny        1 E6C     -0.663800
     11 C11         5.6090    2.2940    3.4900 c3        1 E6C      0.104800
     12 C12         5.3120    2.6460    4.9420 c3        1 E6C     -0.100400
     13 C13         5.9620    3.9750    5.3100 c3        1 E6C     -0.060700
     14 C14         5.3860    4.4670    6.6240 c3        1 E6C     -0.098100
     15 C15         7.4670    3.8480    5.4130 c3        1 E6C     -0.098100
     16 C16         2.9090    3.6250    0.4780 c         1 E6C      0.727600
     17 O17         3.1170    2.5600    1.3860 os        1 E6C     -0.520200
     18 O18         3.8830    4.3360    0.3280 o         1 E6C     -0.492500
     19 C19         5.5070   -2.7140    3.4590 c3        1 E6C     -0.102400
     20 C20         4.7120   -4.0110    3.5120 c3        1 E6C     -0.066700
     21 C21         5.6630   -5.1850    3.3690 c3        1 E6C     -0.098100
     22 C22         3.9270   -4.1330    4.8010 c3        1 E6C     -0.098100
     23 HO1        -0.2190    3.3390    1.8450 ho        1 E6C      0.421000
     24 H21         0.9610    4.5260    0.2020 hc        1 E6C      0.129200
     25 H22         1.5340    3.5060   -1.1820 hc        1 E6C      0.129200
     26 H3          0.6020    1.5550   -0.1930 h1        1 E6C      0.142700
     27 HN6         2.9730   -1.4080    2.0290 hn        1 E6C      0.399800
     28 H7          3.8270   -1.4760    4.0850 h1        1 E6C      0.097700
     29 HN1         3.9060    1.1180    3.2860 hn        1 E6C      0.473300
     30 H111        5.2770    3.1360    2.8120 hx        1 E6C      0.110700
     31 H112        6.7180    2.1290    3.3570 hx        1 E6C      0.110700
     32 H121        5.7030    1.8400    5.6190 hc        1 E6C      0.062200
     33 H122        4.2030    2.7250    5.1010 hc        1 E6C      0.062200
     34 H13         5.7170    4.7300    4.5100 hc        1 E6C      0.054700
     35 H141        5.8530    5.4440    6.9010 hc        1 E6C      0.046533
     36 H142        5.5900    3.7350    7.4420 hc        1 E6C      0.046533
     37 H143        4.2830    4.6140    6.5410 hc        1 E6C      0.046533
     38 H151        7.9130    3.5710    4.4280 hc        1 E6C      0.046533
     39 H152        7.7490    3.0710    6.1640 hc        1 E6C      0.046533
     40 H153        7.9090    4.8230    5.7340 hc        1 E6C      0.046533
     41 H191        6.0740   -2.5880    4.4200 hc        1 E6C      0.076200
     42 H192        6.2610   -2.7670    2.6300 hc        1 E6C      0.076200
     43 H20         3.9890   -4.0400    2.6480 hc        1 E6C      0.043700
     44 H211        5.0930   -6.1450    3.4080 hc        1 E6C      0.046200
     45 H212        6.4130   -5.1850    4.1960 hc        1 E6C      0.046200
     46 H213        6.2070   -5.1350    2.3950 hc        1 E6C      0.046200
     47 H221        3.3950   -5.1160    4.8310 hc        1 E6C      0.046200
     48 H222        3.1640   -3.3230    4.8860 hc        1 E6C      0.046200
     49 H223        4.6070   -4.0770    5.6850 hc        1 E6C      0.046200
     50 H62         4.3060   -2.0740    1.3210 hn        1 E6C      0.399800
     51 H102        4.9290    1.0460    1.9910 hn        1 E6C      0.473300
@<TRIPOS>BOND
     1    1    3 1   
     2    1   23 1   
     3    2    3 1   
     4    2   16 1   
     5    2   24 1   
     6    2   25 1   
     7    3    4 1   
     8    3   26 1   
     9    4    5 2   
    10    4   17 1   
    11    6    7 1   
    12    6   27 1   
    13    6   50 1   
    14    7    8 1   
    15    7   19 1   
    16    7   28 1   
    17    8    9 2   
    18    8   10 1   
    19   10   11 1   
    20   10   29 1   
    21   10   51 1   
    22   11   12 1   
    23   11   30 1   
    24   11   31 1   
    25   12   13 1   
    26   12   32 1   
    27   12   33 1   
    28   13   14 1   
    29   13   15 1   
    30   13   34 1   
    31   14   35 1   
    32   14   36 1   
    33   14   37 1   
    34   15   38 1   
    35   15   39 1   
    36   15   40 1   
    37   16   17 1   
    38   16   18 2   
    39   19   20 1   
    40   19   41 1   
    41   19   42 1   
    42   20   21 1   
    43   20   22 1   
    44   20   43 1   
    45   21   44 1   
    46   21   45 1   
    47   21   46 1   
    48   22   47 1   
    49   22   48 1   
    50   22   49 1   
@<TRIPOS>SUBSTRUCTURE
     1 E6C         1 TEMP              0 ****  ****    0 ROOT
