@<TRIPOS>MOLECULE
E6C
   49    48     1     0     0
SMALL
bcc


@<TRIPOS>ATOM
      1 O1          0.6230    2.9850   -2.3530 oh        1 E6C     -0.605800
      2 C2          1.7670    0.8360   -2.4050 c3        1 E6C     -0.234400
      3 C3          0.4510    1.5810   -2.2680 c3        1 E6C      0.095100
      4 C4         -0.2350    1.2430   -0.9380 c         1 E6C      0.634100
      5 O5         -0.3030    2.1060   -0.0240 o         1 E6C     -0.698100
      6 N6         -0.7570   -0.0140   -0.7920 n         1 E6C     -0.553900
      7 C7         -1.5270   -0.4100    0.3540 c3        1 E6C      0.051700
      8 C8         -0.6580   -0.8830    1.5540 c         1 E6C      0.643100
      9 O9         -0.8860   -1.9670    2.1330 o         1 E6C     -0.644100
     10 N10         0.3400   -0.0370    1.9740 n         1 E6C     -0.565900
     11 C11         1.2150   -0.3460    3.0680 c3        1 E6C      0.092000
     12 C12         1.1040    0.6250    4.2470 c3        1 E6C     -0.099400
     13 C13         2.0980    0.2710    5.3430 c3        1 E6C     -0.065700
     14 C14         2.3130    1.4610    6.2560 c3        1 E6C     -0.089600
     15 C15         1.6310   -0.9240    6.1470 c3        1 E6C     -0.089600
     16 C16         1.5990   -0.5570   -3.0370 c         1 E6C      0.915600
     17 O17         0.4280   -1.0240   -3.1950 o         1 E6C     -0.841800
     18 O18         2.6470   -1.1710   -3.3710 o         1 E6C     -0.841800
     19 C19        -2.5330   -1.5270    0.0370 c3        1 E6C     -0.076400
     20 C20        -3.6210   -1.1010   -0.9360 c3        1 E6C     -0.071700
     21 C21        -4.3670   -2.3280   -1.4260 c3        1 E6C     -0.089100
     22 C22        -4.5890   -0.1250   -0.3000 c3        1 E6C     -0.089100
     23 HO1         1.0300    3.2760   -1.5260 ho        1 E6C      0.404000
     24 H21         2.4500    1.4330   -3.0620 hc        1 E6C      0.047200
     25 H22         2.2650    0.7180   -1.4120 hc        1 E6C      0.047200
     26 H3         -0.2280    1.3200   -3.1310 h1        1 E6C      0.114700
     27 HN6        -0.5720   -0.6960   -1.5160 hn        1 E6C      0.387500
     28 H7         -2.0920    0.4990    0.7320 h1        1 E6C      0.072700
     29 HN1         0.4450    0.8530    1.5390 hn        1 E6C      0.340500
     30 H111        2.2790   -0.3260    2.6890 h1        1 E6C      0.054700
     31 H112        0.9950   -1.3920    3.4280 h1        1 E6C      0.054700
     32 H121        0.0640    0.6070    4.6630 hc        1 E6C      0.045200
     33 H122        1.3030    1.6710    3.8910 hc        1 E6C      0.045200
     34 H13         3.0850    0.0120    4.8620 hc        1 E6C      0.046700
     35 H141        3.0280    1.2000    7.0720 hc        1 E6C      0.031367
     36 H142        2.7280    2.3240    5.6820 hc        1 E6C      0.031367
     37 H143        1.3470    1.7780    6.7190 hc        1 E6C      0.031367
     38 H151        0.6570   -0.7040    6.6470 hc        1 E6C      0.031367
     39 H152        1.4930   -1.8130    5.4850 hc        1 E6C      0.031367
     40 H153        2.3820   -1.1800    6.9320 hc        1 E6C      0.031367
     41 H191       -1.9820   -2.4120   -0.3790 hc        1 E6C      0.065200
     42 H192       -2.9990   -1.8520    1.0040 hc        1 E6C      0.065200
     43 H20        -3.1460   -0.6040   -1.8290 hc        1 E6C      0.070700
     44 H211       -5.1780   -2.0300   -2.1340 hc        1 E6C      0.029867
     45 H212       -3.6690   -3.0190   -1.9560 hc        1 E6C      0.029867
     46 H213       -4.8280   -2.8760   -0.5690 hc        1 E6C      0.029867
     47 H221       -5.0510   -0.5680    0.6160 hc        1 E6C      0.029867
     48 H222       -4.0660    0.8180   -0.0120 hc        1 E6C      0.029867
     49 H223       -5.4050    0.1310   -1.0180 hc        1 E6C      0.029867
@<TRIPOS>BOND
     1    1    3 1   
     2    1   23 1   
     3    2    3 1   
     4    2   16 1   
     5    2   24 1   
     6    2   25 1   
     7    3    4 1   
     8    3   26 1   
     9    4    5 2   
    10    4    6 1   
    11    6    7 1   
    12    6   27 1   
    13    7    8 1   
    14    7   19 1   
    15    7   28 1   
    16    8    9 2   
    17    8   10 1   
    18   10   11 1   
    19   10   29 1   
    20   11   12 1   
    21   11   30 1   
    22   11   31 1   
    23   12   13 1   
    24   12   32 1   
    25   12   33 1   
    26   13   14 1   
    27   13   15 1   
    28   13   34 1   
    29   14   35 1   
    30   14   36 1   
    31   14   37 1   
    32   15   38 1   
    33   15   39 1   
    34   15   40 1   
    35   16   17 1   
    36   16   18 1   
    37   19   20 1   
    38   19   41 1   
    39   19   42 1   
    40   20   21 1   
    41   20   22 1   
    42   20   43 1   
    43   21   44 1   
    44   21   45 1   
    45   21   46 1   
    46   22   47 1   
    47   22   48 1   
    48   22   49 1   
@<TRIPOS>SUBSTRUCTURE
     1 E6C         1 TEMP              0 ****  ****    0 ROOT
