@<TRIPOS>MOLECULE
E6C
   51    50     1     0     0
SMALL
bcc


@<TRIPOS>ATOM
      1 O1          0.4010    0.7690   -0.0570 oh        1 E6C     -0.538800
      2 C2          2.2450    2.1080    0.8380 c3        1 E6C     -0.194400
      3 C3          1.7600    0.7730    0.2860 c3        1 E6C      0.113100
      4 C4          1.9980   -0.3770    1.2760 c         1 E6C      0.510100
      5 O5          1.1460   -0.9200    1.9580 o         1 E6C     -0.393100
      6 N6          3.3970   -0.9340    1.3430 n4        1 E6C     -0.669800
      7 C7          4.0380   -0.8000    2.7030 c3        1 E6C      0.049500
      8 C8          4.9880    0.4340    2.7000 c         1 E6C      0.653100
      9 O9          5.2220    1.0070    1.6080 o         1 E6C     -0.652100
     10 N10         5.5230    0.8150    3.8870 n         1 E6C     -0.511900
     11 C11         6.4260    1.9400    4.0100 c3        1 E6C      0.075000
     12 C12         6.0290    2.9160    5.1160 c3        1 E6C     -0.096400
     13 C13         7.0450    4.0460    5.2230 c3        1 E6C     -0.064700
     14 C14         6.4330    5.2150    5.9690 c3        1 E6C     -0.095100
     15 C15         8.3110    3.5910    5.9170 c3        1 E6C     -0.095100
     16 C16         1.9690    2.2730    2.2980 c         1 E6C      0.643100
     17 O17         1.5110    3.4880    2.6590 oh        1 E6C     -0.557100
     18 O18         2.1420    1.4180    3.1790 o         1 E6C     -0.601000
     19 C19         4.8260   -2.0510    3.0920 c3        1 E6C     -0.110400
     20 C20         3.9970   -3.3260    3.1820 c3        1 E6C     -0.073700
     21 C21         4.8850   -4.4500    3.6870 c3        1 E6C     -0.105100
     22 C22         2.7930   -3.1630    4.0840 c3        1 E6C     -0.105100
     23 HO1        -0.1230    1.0480    0.7100 ho        1 E6C      0.439000
     24 H21         1.7540    2.9360    0.2520 hc        1 E6C      0.137700
     25 H22         3.3620    2.1980    0.6980 hc        1 E6C      0.137700
     26 H3          2.2880    0.5530   -0.6930 h1        1 E6C      0.130700
     27 HN6         3.3640   -1.9330    1.1010 hn        1 E6C      0.470800
     28 H7          3.2010   -0.6190    3.4500 hx        1 E6C      0.155700
     29 HN1         5.2210    0.3770    4.7280 hn        1 E6C      0.330500
     30 H111        6.4700    2.4840    3.0230 h1        1 E6C      0.078200
     31 H112        7.4540    1.5270    4.2280 h1        1 E6C      0.078200
     32 H121        5.9600    2.3850    6.1020 hc        1 E6C      0.049200
     33 H122        5.0180    3.3470    4.8940 hc        1 E6C      0.049200
     34 H13         7.3110    4.3910    4.1820 hc        1 E6C      0.052700
     35 H141        7.1770    6.0430    6.0610 hc        1 E6C      0.041533
     36 H142        5.5380    5.6040    5.4260 hc        1 E6C      0.041533
     37 H143        6.1200    4.9050    6.9950 hc        1 E6C      0.041533
     38 H151        8.0870    3.2340    6.9520 hc        1 E6C      0.041533
     39 H152        8.7990    2.7610    5.3520 hc        1 E6C      0.041533
     40 H153        9.0340    4.4400    5.9880 hc        1 E6C      0.041533
     41 H191        5.2770   -1.8590    4.1050 hc        1 E6C      0.085200
     42 H192        5.6760   -2.2080    2.3750 hc        1 E6C      0.085200
     43 H20         3.6390   -3.6190    2.1540 hc        1 E6C      0.031700
     44 H211        5.2230   -4.2440    4.7310 hc        1 E6C      0.053033
     45 H212        4.3170   -5.4120    3.6840 hc        1 E6C      0.053033
     46 H213        5.7840   -4.5650    3.0350 hc        1 E6C      0.053033
     47 H221        3.0960   -2.7580    5.0800 hc        1 E6C      0.053033
     48 H222        2.0390   -2.4740    3.6300 hc        1 E6C      0.053033
     49 H223        2.3020   -4.1540    4.2470 hc        1 E6C      0.053033
     50 H62         3.9940   -0.4390    0.6570 hn        1 E6C      0.470800
     51 H102        1.3840    3.5300    3.6260 ho        1 E6C      0.472000
@<TRIPOS>BOND
     1    1    3 1   
     2    1   23 1   
     3    2    3 1   
     4    2   16 1   
     5    2   24 1   
     6    2   25 1   
     7    3    4 1   
     8    3   26 1   
     9    4    5 2   
    10    4    6 1   
    11    6    7 1   
    12    6   27 1   
    13    6   50 1   
    14    7    8 1   
    15    7   19 1   
    16    7   28 1   
    17    8    9 2   
    18    8   10 1   
    19   10   11 1   
    20   10   29 1   
    21   11   12 1   
    22   11   30 1   
    23   11   31 1   
    24   12   13 1   
    25   12   32 1   
    26   12   33 1   
    27   13   14 1   
    28   13   15 1   
    29   13   34 1   
    30   14   35 1   
    31   14   36 1   
    32   14   37 1   
    33   15   38 1   
    34   15   39 1   
    35   15   40 1   
    36   16   17 1   
    37   16   18 2   
    38   17   51 1   
    39   19   20 1   
    40   19   41 1   
    41   19   42 1   
    42   20   21 1   
    43   20   22 1   
    44   20   43 1   
    45   21   44 1   
    46   21   45 1   
    47   21   46 1   
    48   22   47 1   
    49   22   48 1   
    50   22   49 1   
@<TRIPOS>SUBSTRUCTURE
     1 E6C         1 TEMP              0 ****  ****    0 ROOT
