@<TRIPOS>MOLECULE
E70
   43    45     1     0     0
SMALL
bcc


@<TRIPOS>ATOM
      1 CAA         0.1640    1.1790   -0.3130 c3        1 E70      0.109700
      2 OAS         1.5530    1.4240   -0.1060 os        1 E70     -0.318900
      3 CAV         2.0560    1.1040    1.1320 ca        1 E70      0.193100
      4 CAL         3.4420    1.3180    1.2840 ca        1 E70     -0.211500
      5 CAN         4.0360    1.0300    2.5020 ca        1 E70      0.025000
      6 CAM         1.2900    0.6020    2.1950 ca        1 E70     -0.211500
      7 CAO         1.9170    0.3240    3.4040 ca        1 E70      0.025000
      8 CAW         3.2890    0.5340    3.5840 ca        1 E70     -0.441500
      9 SAZ         4.0380    0.1560    5.0320 sy        1 E70      1.522200
     10 OAB         3.2050   -0.7230    5.7530 o         1 E70     -0.650800
     11 OAC         5.3570   -0.2750    4.7760 o         1 E70     -0.650800
     12 NAR         4.1610    1.6030    5.7930 nu        1 E70     -0.757500
     13 CAX         3.1760    2.3470    6.4420 ca        1 E70      0.102300
     14 CAG         2.0140    1.7320    6.9690 ca        1 E70     -0.159000
     15 CAE         1.0530    2.5020    7.6090 ca        1 E70     -0.212300
     16 CAF         1.2640    3.8870    7.7320 ca        1 E70      0.376200
     17 NAP         2.3520    4.5090    7.2650 nb        1 E70     -0.665000
     18 CAY         3.3050    3.7730    6.6260 ca        1 E70      0.524200
     19 NAQ         4.5090    4.4190    6.1680 nu        1 E70     -0.694300
     20 CAU         4.3910    5.2310    5.0080 ca        1 E70      0.087600
     21 CAJ         5.3600    6.2350    4.7690 ca        1 E70     -0.129000
     22 CAH         5.3490    6.9690    3.5920 ca        1 E70     -0.158000
     23 CAT         4.3560    6.7200    2.6310 ca        1 E70      0.097100
     24 OAD         4.4030    7.4830    1.4850 oh        1 E70     -0.498100
     25 CAI         3.3800    5.7420    2.8550 ca        1 E70     -0.158000
     26 CAK         3.3970    5.0070    4.0360 ca        1 E70     -0.129000
     27 HAA         0.0040    1.4920   -1.3760 h1        1 E70      0.051700
     28 HAAA       -0.0680    0.0950   -0.1800 h1        1 E70      0.051700
     29 HAAB       -0.4510    1.8030    0.3800 h1        1 E70      0.051700
     30 HAL         4.0270    1.7040    0.4380 ha        1 E70      0.154000
     31 HAN         5.1250    1.1770    2.6230 ha        1 E70      0.155500
     32 HAM         0.2120    0.4230    2.0830 ha        1 E70      0.154000
     33 HAO         1.3220   -0.0850    4.2420 ha        1 E70      0.155500
     34 HNAR        5.0430    2.0740    5.7490 hn        1 E70      0.472800
     35 HAG         1.8700    0.6390    6.8890 ha        1 E70      0.178000
     36 HAE         0.1470    2.0380    8.0240 ha        1 E70      0.150000
     37 HAF         0.5240    4.5350    8.2360 h4        1 E70      0.028100
     38 HNAQ        4.9480    4.9240    6.9200 hn        1 E70      0.400800
     39 HAJ         6.1410    6.4420    5.5180 ha        1 E70      0.138000
     40 HAH         6.1040    7.7450    3.4030 ha        1 E70      0.143000
     41 HOAD        3.6610    7.2170    0.9230 ho        1 E70      0.417000
     42 HAI         2.6000    5.5550    2.1040 ha        1 E70      0.143000
     43 HAK         2.6180    4.2470    4.2040 ha        1 E70      0.138000
@<TRIPOS>BOND
     1    1    2 1   
     2    1   27 1   
     3    1   28 1   
     4    1   29 1   
     5    2    3 1   
     6    3    4 ar  
     7    3    6 ar  
     8    4    5 ar  
     9    4   30 1   
    10    5    8 ar  
    11    5   31 1   
    12    6    7 ar  
    13    6   32 1   
    14    7    8 ar  
    15    7   33 1   
    16    8    9 1   
    17    9   10 2   
    18    9   11 2   
    19    9   12 1   
    20   12   13 1   
    21   12   34 1   
    22   13   14 ar  
    23   13   18 ar  
    24   14   15 ar  
    25   14   35 1   
    26   15   16 ar  
    27   15   36 1   
    28   16   17 ar  
    29   16   37 1   
    30   17   18 ar  
    31   18   19 1   
    32   19   20 1   
    33   19   38 1   
    34   20   21 ar  
    35   20   26 ar  
    36   21   22 ar  
    37   21   39 1   
    38   22   23 ar  
    39   22   40 1   
    40   23   24 1   
    41   23   25 ar  
    42   24   41 1   
    43   25   26 ar  
    44   25   42 1   
    45   26   43 1   
@<TRIPOS>SUBSTRUCTURE
     1 E70         1 TEMP              0 ****  ****    0 ROOT
