@<TRIPOS>MOLECULE
E70
   43    45     1     0     0
SMALL
bcc


@<TRIPOS>ATOM
      1 CAA         0.1700    1.1320   -0.3000 c3        1 E70      0.109700
      2 OAS         1.5570    1.3940   -0.0980 os        1 E70     -0.318900
      3 CAV         2.0670    1.0840    1.1390 ca        1 E70      0.193100
      4 CAL         3.4510    1.3150    1.2860 ca        1 E70     -0.211500
      5 CAN         4.0530    1.0380    2.5030 ca        1 E70      0.025000
      6 CAM         1.3110    0.5760    2.2060 ca        1 E70     -0.211500
      7 CAO         1.9440    0.3100    3.4140 ca        1 E70      0.025000
      8 CAW         3.3150    0.5370    3.5890 ca        1 E70     -0.441500
      9 SAZ         4.0730    0.1710    5.0350 sy        1 E70      1.522200
     10 OAB         3.2520   -0.7160    5.7620 o         1 E70     -0.650800
     11 OAC         5.3960   -0.2450    4.7770 o         1 E70     -0.650800
     12 NAR         4.1810    1.6220    5.7910 nh        1 E70     -0.757500
     13 CAX         3.1890    2.3560    6.4420 ca        1 E70      0.102300
     14 CAG         2.0350    1.7300    6.9730 ca        1 E70     -0.159000
     15 CAE         1.0670    2.4910    7.6130 ca        1 E70     -0.212300
     16 CAF         1.2630    3.8780    7.7320 ca        1 E70      0.376200
     17 NAP         2.3440    4.5120    7.2610 nb        1 E70     -0.664000
     18 CAY         3.3030    3.7850    6.6220 ca        1 E70      0.524200
     19 NAQ         4.4990    4.4420    6.1600 nh        1 E70     -0.694300
     20 CAU         4.3700    5.2520    5.0000 ca        1 E70      0.087600
     21 CAJ         5.3270    6.2660    4.7570 ca        1 E70     -0.128500
     22 CAH         5.3050    6.9980    3.5790 ca        1 E70     -0.158000
     23 CAT         4.3130    6.7360    2.6210 ca        1 E70      0.097100
     24 OAD         4.3490    7.4980    1.4730 oh        1 E70     -0.498100
     25 CAI         3.3490    5.7480    2.8480 ca        1 E70     -0.158000
     26 CAK         3.3760    5.0150    4.0290 ca        1 E70     -0.128500
     27 HAA         0.0040    1.4400   -1.3640 h1        1 E70      0.051700
     28 HAAA       -0.0490    0.0460   -0.1640 h1        1 E70      0.051700
     29 HAAB       -0.4500    1.7510    0.3920 h1        1 E70      0.051700
     30 HAL         4.0290    1.7050    0.4370 ha        1 E70      0.154000
     31 HAN         5.1400    1.1980    2.6200 ha        1 E70      0.155500
     32 HAM         0.2350    0.3850    2.0980 ha        1 E70      0.154000
     33 HAO         1.3570   -0.1040    4.2550 ha        1 E70      0.155500
     34 HNAR        5.0580    2.1030    5.7440 hn        1 E70      0.472800
     35 HAG         1.9030    0.6350    6.8950 ha        1 E70      0.178000
     36 HAE         0.1680    2.0180    8.0300 ha        1 E70      0.150000
     37 HAF         0.5170    4.5190    8.2360 h4        1 E70      0.028100
     38 HNAQ        4.9350    4.9530    6.9100 hn        1 E70      0.400800
     39 HAJ         6.1070    6.4830    5.5040 ha        1 E70      0.138000
     40 HAH         6.0500    7.7830    3.3880 ha        1 E70      0.143000
     41 HOAD        3.6090    7.2230    0.9130 ho        1 E70      0.417000
     42 HAI         2.5690    5.5510    2.0980 ha        1 E70      0.143000
     43 HAK         2.6070    4.2460    4.2000 ha        1 E70      0.138000
@<TRIPOS>BOND
     1    1    2 1   
     2    1   27 1   
     3    1   28 1   
     4    1   29 1   
     5    2    3 1   
     6    3    4 ar  
     7    3    6 ar  
     8    4    5 ar  
     9    4   30 1   
    10    5    8 ar  
    11    5   31 1   
    12    6    7 ar  
    13    6   32 1   
    14    7    8 ar  
    15    7   33 1   
    16    8    9 1   
    17    9   10 2   
    18    9   11 2   
    19    9   12 1   
    20   12   13 1   
    21   12   34 1   
    22   13   14 ar  
    23   13   18 ar  
    24   14   15 ar  
    25   14   35 1   
    26   15   16 ar  
    27   15   36 1   
    28   16   17 ar  
    29   16   37 1   
    30   17   18 ar  
    31   18   19 1   
    32   19   20 1   
    33   19   38 1   
    34   20   21 ar  
    35   20   26 ar  
    36   21   22 ar  
    37   21   39 1   
    38   22   23 ar  
    39   22   40 1   
    40   23   24 1   
    41   23   25 ar  
    42   24   41 1   
    43   25   26 ar  
    44   25   42 1   
    45   26   43 1   
@<TRIPOS>SUBSTRUCTURE
     1 E70         1 TEMP              0 ****  ****    0 ROOT
