@<TRIPOS>MOLECULE
E70
   43    45     1     0     0
SMALL
bcc


@<TRIPOS>ATOM
      1 CAA        -2.9590    4.6470    1.2340 c3        1 E70      0.109700
      2 OAS        -2.3940    4.1330    0.0310 os        1 E70     -0.318900
      3 CAV        -2.3660    2.7660   -0.1010 ca        1 E70      0.193100
      4 CAL        -1.8420    2.2960   -1.3230 ca        1 E70     -0.211500
      5 CAN        -1.7680    0.9310   -1.5420 ca        1 E70      0.025000
      6 CAM        -2.8120    1.8650    0.8780 ca        1 E70     -0.211500
      7 CAO        -2.7230    0.5010    0.6280 ca        1 E70      0.025000
      8 CAW        -2.1990    0.0080   -0.5740 ca        1 E70     -0.441500
      9 SAZ        -2.1370   -1.6360   -0.8790 sy        1 E70      1.522200
     10 OAB        -3.0220   -2.2910    0.0010 o         1 E70     -0.650800
     11 OAC        -2.3210   -1.8620   -2.2590 o         1 E70     -0.650800
     12 NAR        -0.5810   -2.0310   -0.5470 nh        1 E70     -0.757500
     13 CAX         0.0470   -2.1890    0.6890 ca        1 E70      0.102300
     14 CAG        -0.6900   -2.5090    1.8560 ca        1 E70     -0.159000
     15 CAE        -0.0330   -2.6570    3.0690 ca        1 E70     -0.212300
     16 CAF         1.3640   -2.4980    3.1100 ca        1 E70      0.376200
     17 NAP         2.1030   -2.2110    2.0320 nb        1 E70     -0.665000
     18 CAY         1.4780   -2.0540    0.8310 ca        1 E70      0.524200
     19 NAQ         2.2650   -1.8020   -0.3490 nh        1 E70     -0.694300
     20 CAU         2.8060   -0.4950   -0.4840 ca        1 E70      0.087600
     21 CAJ         3.9290   -0.2980   -1.3230 ca        1 E70     -0.128500
     22 CAH         4.4140    0.9770   -1.5730 ca        1 E70     -0.158000
     23 CAT         3.7890    2.0840   -0.9790 ca        1 E70      0.097100
     24 OAD         4.3200    3.3220   -1.2710 oh        1 E70     -0.498100
     25 CAI         2.6870    1.9100   -0.1340 ca        1 E70     -0.158000
     26 CAK         2.2030    0.6300    0.1130 ca        1 E70     -0.128500
     27 HAA        -2.8890    5.7560    1.0970 h1        1 E70      0.051700
     28 HAAA       -4.0240    4.3270    1.3370 h1        1 E70      0.051700
     29 HAAB       -2.3610    4.3190    2.1190 h1        1 E70      0.051700
     30 HAL        -1.5050    3.0180   -2.0810 ha        1 E70      0.154000
     31 HAN        -1.3750    0.5550   -2.5040 ha        1 E70      0.155500
     32 HAM        -3.2310    2.2210    1.8290 ha        1 E70      0.154000
     33 HAO        -3.0850   -0.2160    1.3890 ha        1 E70      0.155500
     34 HNAR        0.0480   -2.1190   -1.3200 hn        1 E70      0.472800
     35 HAG        -1.7840   -2.6560    1.8080 ha        1 E70      0.178000
     36 HAE        -0.5920   -2.9060    3.9820 ha        1 E70      0.150000
     37 HAF         1.9240   -2.6090    4.0560 h4        1 E70      0.028100
     38 HNAQ        2.9810   -2.5020   -0.4530 hn        1 E70      0.400800
     39 HAJ         4.4300   -1.1600   -1.7910 ha        1 E70      0.138000
     40 HAH         5.2830    1.1320   -2.2290 ha        1 E70      0.143000
     41 HOAD        3.8060    3.9850   -0.7890 ho        1 E70      0.417000
     42 HAI         2.2050    2.7790    0.3360 ha        1 E70      0.143000
     43 HAK         1.3410    0.5040    0.7860 ha        1 E70      0.138000
@<TRIPOS>BOND
     1    1    2 1   
     2    1   27 1   
     3    1   28 1   
     4    1   29 1   
     5    2    3 1   
     6    3    4 ar  
     7    3    6 ar  
     8    4    5 ar  
     9    4   30 1   
    10    5    8 ar  
    11    5   31 1   
    12    6    7 ar  
    13    6   32 1   
    14    7    8 ar  
    15    7   33 1   
    16    8    9 1   
    17    9   10 2   
    18    9   11 2   
    19    9   12 1   
    20   12   13 1   
    21   12   34 1   
    22   13   14 ar  
    23   13   18 ar  
    24   14   15 ar  
    25   14   35 1   
    26   15   16 ar  
    27   15   36 1   
    28   16   17 ar  
    29   16   37 1   
    30   17   18 ar  
    31   18   19 1   
    32   19   20 1   
    33   19   38 1   
    34   20   21 ar  
    35   20   26 ar  
    36   21   22 ar  
    37   21   39 1   
    38   22   23 ar  
    39   22   40 1   
    40   23   24 1   
    41   23   25 ar  
    42   24   41 1   
    43   25   26 ar  
    44   25   42 1   
    45   26   43 1   
@<TRIPOS>SUBSTRUCTURE
     1 E70         1 TEMP              0 ****  ****    0 ROOT
