@<TRIPOS>MOLECULE
E70
   43    38     1     0     0
SMALL
bcc


@<TRIPOS>ATOM
      1 CAA        -1.2910    4.2420   -6.0580 c3        1 E70     -0.080000
      2 OAS         0.0690    3.9250   -5.8620 os        1 E70     -0.201000
      3 CAV         0.2980    3.0290   -4.8010 c2        1 E70      0.151000
      4 CAL         0.5210    3.5150   -3.5220 c2        1 E70     -0.187000
      5 CAN         0.8470    2.6420   -2.4960 c1        1 E70      0.018000
      6 CAM         0.4010    1.6700   -5.0540 c1        1 E70     -0.238000
      7 CAO         0.7270    0.7970   -4.0280 c1        1 E70      0.026000
      8 CAW         0.9500    1.2830   -2.7480 c1        1 E70     -0.884000
      9 SAZ         1.5240    0.1880   -1.4740 s4        1 E70      2.090800
     10 OAB         1.8800   -1.0960   -2.0120 o         1 E70     -0.547900
     11 OAC         2.7840    0.6250   -0.9400 o         1 E70     -0.547900
     12 NAR         0.3910    0.0460   -0.2920 n2        1 E70     -0.834000
     13 CAX         0.7510    0.2600    1.0680 c2        1 E70     -0.017000
     14 CAG         1.4380    1.3850    1.4220 c2        1 E70     -0.094000
     15 CAE         1.7190    1.6270    2.7360 c1        1 E70     -0.193000
     16 CAF         1.3050    0.7300    3.7090 c1        1 E70     -0.050000
     17 NAP         0.6190   -0.3920    3.3540 n1        1 E70     -0.167000
     18 CAY         0.3380   -0.6360    2.0440 c1        1 E70      0.080000
     19 NAQ        -0.3070   -1.8450    1.6690 n3        1 E70     -0.223000
     20 CAU        -0.8500   -2.7020    2.6690 c2        1 E70      0.010000
     21 CAJ        -0.6420   -2.4190    4.0110 c2        1 E70     -0.078000
     22 CAH        -1.1210   -3.2840    4.9830 c1        1 E70     -0.198000
     23 CAT        -1.8080   -4.4300    4.6140 c1        1 E70      0.063000
     24 OAD        -2.3260   -5.2880    5.6020 oh        1 E70     -0.252000
     25 CAI        -2.0160   -4.7120    3.2730 c1        1 E70     -0.139000
     26 CAK        -1.5370   -3.8480    2.3000 c1        1 E70     -0.136000
     27 HAA        -1.7230    4.3820   -5.1880 h1        1 E70      0.091667
     28 HAAA       -1.7350    3.5040   -6.5280 h1        1 E70      0.091667
     29 HAAB       -1.3630    5.0620   -6.5940 h1        1 E70      0.091667
     30 HAL         0.4480    4.4720   -3.3440 ha        1 E70      0.161000
     31 HAN         1.0040    2.9840   -1.5950 ha        1 E70      0.157000
     32 HAM         0.2440    1.3280   -5.9550 ha        1 E70      0.148000
     33 HAO         0.8000   -0.1600   -4.2060 ha        1 E70      0.158000
     34 HNAR       -0.4660   -0.1820   -0.5060 hn        1 E70      0.255000
     35 HAG         1.7290    2.0150    0.7360 ha        1 E70      0.172000
     36 HAE         2.2100    2.4310    2.9900 ha        1 E70      0.150000
     37 HAF         1.5060    0.9030    4.6480 ha        1 E70      0.163000
     38 HNAQ       -0.3440   -2.0890    0.7910 hn        1 E70      0.206000
     39 HAJ        -0.1600   -1.6140    4.2700 ha        1 E70      0.147000
     40 HAH        -0.9750   -3.0850    5.9280 ha        1 E70      0.134000
     41 HOAD       -1.6570   -5.7010    6.0170 ho        1 E70      0.217000
     42 HAI        -2.4990   -5.5190    3.0130 ha        1 E70      0.151000
     43 HAK        -1.6830   -4.0470    1.3560 ha        1 E70      0.134000
@<TRIPOS>BOND
     1    1    2 1   
     2    1   27 1   
     3    1   28 1   
     4    1   29 1   
     5    2    3 1   
     6    3    4 1   
     7    3    6 1   
     8    4    5 1   
     9    4   30 1   
    10    5   31 1   
    11    6   32 1   
    12    7    8 1   
    13    7   33 1   
    14    8    9 1   
    15    9   10 1   
    16    9   11 1   
    17   12   13 1   
    18   12   34 1   
    19   13   14 1   
    20   13   18 1   
    21   14   15 1   
    22   14   35 1   
    23   15   36 1   
    24   16   17 1   
    25   16   37 1   
    26   18   19 1   
    27   19   20 1   
    28   19   38 1   
    29   20   21 1   
    30   20   26 1   
    31   21   22 1   
    32   21   39 1   
    33   22   40 1   
    34   23   24 1   
    35   23   25 1   
    36   24   41 1   
    37   25   42 1   
    38   26   43 1   
@<TRIPOS>SUBSTRUCTURE
     1 E70         1 TEMP              0 ****  ****    0 ROOT
