@<TRIPOS>MOLECULE
E70
   45    46     1     0     0
SMALL
bcc


@<TRIPOS>ATOM
      1 CAA      -152.6260 -264.0320 -311.5520 c3        1 E70      0.096700
      2 OAS      -151.7960 -262.8660 -311.7020 os        1 E70     -0.262900
      3 CAV      -150.9730 -262.5320 -310.6960 ca        1 E70      0.311100
      4 CAL      -150.1800 -261.3640 -310.9160 ca        1 E70     -0.214500
      5 CAN      -149.3120 -260.9450 -309.9480 ca        1 E70      0.071500
      6 CAM      -150.8500 -263.2450 -309.4740 ca        1 E70     -0.214500
      7 CAO      -149.9720 -262.8060 -308.5180 ca        1 E70      0.071500
      8 CAW      -149.1600 -261.6400 -308.7000 ca        1 E70     -0.708500
      9 SAZ      -148.1880 -261.1580 -307.6340 s4        1 E70      1.663300
     10 OAB      -148.0920 -261.8580 -306.4790 o         1 E70     -0.403900
     11 OAC      -147.4520 -260.0480 -307.8730 o         1 E70     -0.403900
     12 NAR       105.8050  180.6740  210.9500 nh        1 E70     -0.828200
     13 CAX       105.5060  179.3340  211.1510 ca        1 E70      0.100300
     14 CAG       104.8040  178.5620  210.1760 ca        1 E70     -0.142000
     15 CAE       104.5850  177.2160  210.3860 ca        1 E70     -0.156300
     16 CAF       105.0630  176.6160  211.5820 ca        1 E70      0.399200
     17 NAP       105.7350  177.2870  212.5120 nb        1 E70     -0.634000
     18 CAY       105.9750  178.6150  212.2920 ca        1 E70      0.375200
     19 NAQ       106.7930  179.2990  213.3200 n4        1 E70     -0.590100
     20 CAU       106.0240  180.2390  214.1390 ca        1 E70     -0.117400
     21 CAJ       104.9790  179.7640  214.9510 ca        1 E70     -0.061500
     22 CAH       104.2790  180.6530  215.7560 ca        1 E70     -0.174000
     23 CAT       104.6190  182.0170  215.7520 ca        1 E70      0.193100
     24 OAD       103.9800  182.9500  216.5100 oh        1 E70     -0.459100
     25 CAI       105.6670  182.4940  214.9350 ca        1 E70     -0.174000
     26 CAK       106.3660  181.6080  214.1320 ca        1 E70     -0.061500
     27 HAA      -153.3210 -263.8980 -310.6900 h1        1 E70      0.082700
     28 HAAA     -151.9890 -264.9410 -311.4330 h1        1 E70      0.082700
     29 HAAB     -153.1850 -264.0540 -312.5240 h1        1 E70      0.082700
     30 HAL      -150.2890 -260.8220 -311.8720 ha        1 E70      0.193500
     31 HAN      -148.6980 -260.0380 -310.1210 ha        1 E70      0.179500
     32 HAM      -151.4580 -264.1480 -309.2970 ha        1 E70      0.193500
     33 HAO      -149.8790 -263.3660 -307.5650 ha        1 E70      0.179500
     34 HNAR      105.4670  181.0560  210.0910 hn        1 E70      0.421800
     35 HAG       104.4380  179.0510  209.2570 ha        1 E70      0.172000
     36 HAE       104.0440  176.6030  209.6470 ha        1 E70      0.181000
     37 HAF       104.8930  175.5410  211.7900 h4        1 E70      0.062100
     38 HNAQ      107.5500  179.8000  212.8350 hn        1 E70      0.469300
     39 HAJ       104.7080  178.6940  214.9580 ha        1 E70      0.163500
     40 HAH       103.4620  180.2850  216.3980 ha        1 E70      0.179000
     41 HOAD      103.2950  182.5130  217.0450 ho        1 E70      0.448000
     42 HAI       105.9200  183.5670  214.9530 ha        1 E70      0.179000
     43 HAK       107.1910  181.9890  213.5070 ha        1 E70      0.163500
     44 HAR2      105.6650  181.2740  211.7350 hn        1 E70      0.421800
     45 HAQ2      107.2120  178.5950  213.9490 hn        1 E70      0.469300
@<TRIPOS>BOND
     1    1    2 1   
     2    1   27 1   
     3    1   28 1   
     4    1   29 1   
     5    2    3 1   
     6    3    4 ar  
     7    3    6 ar  
     8    4    5 ar  
     9    4   30 1   
    10    5    8 ar  
    11    5   31 1   
    12    6    7 ar  
    13    6   32 1   
    14    7    8 ar  
    15    7   33 1   
    16    8    9 1   
    17    9   10 1   
    18    9   11 1   
    19   12   13 1   
    20   12   34 1   
    21   12   44 1   
    22   13   14 ar  
    23   13   18 ar  
    24   14   15 ar  
    25   14   35 1   
    26   15   16 ar  
    27   15   36 1   
    28   16   17 ar  
    29   16   37 1   
    30   17   18 ar  
    31   18   19 1   
    32   19   20 1   
    33   19   38 1   
    34   19   45 1   
    35   20   21 ar  
    36   20   26 ar  
    37   21   22 ar  
    38   21   39 1   
    39   22   23 ar  
    40   22   40 1   
    41   23   24 1   
    42   23   25 ar  
    43   24   41 1   
    44   25   26 ar  
    45   25   42 1   
    46   26   43 1   
@<TRIPOS>SUBSTRUCTURE
     1 E70         1 TEMP              0 ****  ****    0 ROOT
