@<TRIPOS>MOLECULE
E71
   40    33     1     0     0
SMALL
bcc


@<TRIPOS>ATOM
      1 F2          2.4630    1.9960   -4.0350 f         1 E71     -0.090000
      2 C6          1.2280    2.4350   -3.4970 c2        1 E71      0.054000
      3 C1          1.0310    2.4340   -2.1300 c2        1 E71      0.056000
      4 F1          1.9600    1.9430   -1.3260 f         1 E71     -0.086000
      5 C5          0.2240    2.9270   -4.3490 c1        1 E71     -0.140000
      6 C4         -0.9750    3.4150   -3.8120 c1        1 E71     -0.113000
      7 C3         -1.1670    3.4130   -2.4710 c1        1 E71     -0.113000
      8 C2         -0.1490    2.9150   -1.6050 c1        1 E71     -0.009000
      9 C7         -0.3420    2.9590   -0.1350 c2        1 E71     -0.180000
     10 C9         -0.7770    1.8660    0.6940 c1        1 E71      0.106000
     11 O          -0.8740    2.3180    1.9720 os        1 E71     -0.066000
     12 N1         -0.5100    3.6790    1.9840 n2        1 E71     -0.026000
     13 C8         -0.1830    4.0550    0.6620 c1        1 E71     -0.133000
     14 C10        -1.0000    0.4750    0.2530 c1        1 E71     -0.121000
     15 C16        -2.1540    0.3870   -0.4470 c1        1 E71     -0.010000
     16 N3         -2.2030   -0.9320   -1.0630 n2        1 E71     -0.185000
     17 C15        -1.0720   -1.6020   -0.7130 c1        1 E71      0.028000
     18 C11        -0.2990   -0.7590    0.1050 c1        1 E71     -0.090000
     19 N2         -0.6960   -2.8790   -0.9100 n1        1 E71     -0.136000
     20 C14         0.4530   -3.3630   -0.3070 c1        1 E71     -0.036000
     21 C13         1.2460   -2.5030    0.5310 c1        1 E71     -0.117000
     22 C12         0.8800   -1.2570    0.7240 c1        1 E71     -0.026000
     23 C17         1.1330   -3.0540    1.9270 c2        1 E71      0.009000
     24 C21         2.1130   -2.7470    2.8870 c2        1 E71     -0.171000
     25 C20         1.9270   -3.0960    4.1450 c1        1 E71     -0.069000
     26 N4          0.7260   -3.7880    4.5310 n1        1 E71     -0.137000
     27 C19        -0.2090   -4.0820    3.6160 c1        1 E71     -0.071000
     28 C18        -0.0280   -3.7260    2.3130 c1        1 E71     -0.177000
     29 H4          0.3530    2.9300   -5.2650 ha        1 E71      0.157000
     30 H3         -1.6310    3.7360   -4.3690 ha        1 E71      0.149000
     31 H2         -1.9750    3.7420   -2.1100 ha        1 E71      0.149000
     32 H5          0.1150    4.9670    0.3610 DU        1 E71      0.215667
     33 H8         -2.8750    1.0170   -0.4120 DU        1 E71      0.215667
     34 H1         -2.8890   -1.2600   -1.6010 DU        1 E71      0.215667
     35 H7          0.7370   -4.3350   -0.4550 ha        1 E71      0.167000
     36 H6          1.4230   -0.6670    1.3030 ha        1 E71      0.165000
     37 H12         2.9920   -2.2450    2.6070 ha        1 E71      0.150000
     38 H11         2.6150   -2.8790    4.8250 ha        1 E71      0.162000
     39 H10        -0.9550   -4.5140    3.8630 ha        1 E71      0.160000
     40 H9         -0.6550   -3.9240    1.7070 ha        1 E71      0.144000
@<TRIPOS>BOND
     1    1    2 1   
     2    2    3 1   
     3    2    5 1   
     4    3    4 1   
     5    3    8 1   
     6    5   29 1   
     7    6    7 1   
     8    6   30 1   
     9    7   31 1   
    10    8    9 1   
    11    9   10 1   
    12    9   13 1   
    13   10   11 1   
    14   11   12 1   
    15   12   13 1   
    16   14   15 1   
    17   14   18 1   
    18   15   16 1   
    19   16   17 1   
    20   17   19 1   
    21   18   22 1   
    22   20   21 1   
    23   20   35 1   
    24   21   23 1   
    25   22   36 1   
    26   23   24 1   
    27   23   28 1   
    28   24   25 1   
    29   24   37 1   
    30   25   38 1   
    31   26   27 1   
    32   27   39 1   
    33   28   40 1   
@<TRIPOS>SUBSTRUCTURE
     1 E71         1 TEMP              0 ****  ****    0 ROOT
