@<TRIPOS>MOLECULE
E71
   40    44     1     0     0
SMALL
bcc


@<TRIPOS>ATOM
      1 F2          0.3210    0.4290   -0.7450 f         1 E71     -0.124900
      2 C6          1.6370    0.2400   -0.4910 ca        1 E71      0.088900
      3 C1          2.0860    0.1560    0.8560 ca        1 E71      0.090900
      4 F1          1.1810    0.2760    1.8540 f         1 E71     -0.120900
      5 C5          2.5530    0.1280   -1.5480 ca        1 E71     -0.140000
      6 C4          3.9030   -0.0650   -1.2680 ca        1 E71     -0.118000
      7 C3          4.3490   -0.1490    0.0480 ca        1 E71     -0.108000
      8 C2          3.4580   -0.0440    1.1250 ca        1 E71     -0.009000
      9 C7          3.9710   -0.1110    2.4710 cc        1 E71     -0.310600
     10 C9          3.8060   -1.0640    3.4740 cd        1 E71      0.410500
     11 O           4.5920   -0.6450    4.5810 os        1 E71     -0.123100
     12 N1          5.2050    0.4910    4.3010 nd        1 E71     -0.361300
     13 C8          4.8840    0.8720    3.0580 cc        1 E71      0.332200
     14 C10         3.0940   -2.2810    3.6180 cd        1 E71     -0.219000
     15 C16         2.0750   -2.7480    2.7700 cc        1 E71     -0.037100
     16 N3          1.6060   -3.9790    3.2050 na        1 E71     -0.271100
     17 C15         2.3140   -4.3380    4.3670 ca        1 E71      0.419800
     18 C11         3.2660   -3.2760    4.6550 ca        1 E71     -0.167100
     19 N2          2.1690   -5.4670    5.1240 nb        1 E71     -0.662000
     20 C14         2.9830   -5.5440    6.1790 ca        1 E71      0.429200
     21 C13         3.9510   -4.5630    6.5520 cp        1 E71     -0.182300
     22 C12         4.0880   -3.4130    5.7730 ca        1 E71     -0.026000
     23 C17         4.7760   -4.7750    7.7340 cp        1 E71      0.009000
     24 C21         5.1210   -3.7040    8.5730 ca        1 E71     -0.239300
     25 C20         5.9190   -3.9590    9.7010 ca        1 E71      0.395200
     26 N4          6.3780   -5.1820   10.0310 nb        1 E71     -0.663000
     27 C19         6.0420   -6.2020    9.2180 ca        1 E71      0.395200
     28 C18         5.2500   -6.0540    8.0660 ca        1 E71     -0.239300
     29 H4          2.1930    0.1980   -2.5840 ha        1 E71      0.157000
     30 H3          4.6220   -0.1510   -2.0960 ha        1 E71      0.147000
     31 H2          5.4200   -0.3030    0.2570 ha        1 E71      0.151000
     32 H5          5.2550    1.7830    2.5860 h4        1 E71      0.056100
     33 H8          1.6500   -2.2600    1.8870 h4        1 E71      0.185000
     34 H1          0.8790   -4.5060    2.7950 hn        1 E71      0.318700
     35 H7          2.8610   -6.4540    6.7980 h4        1 E71      0.030100
     36 H6          4.8220   -2.6300    6.0220 ha        1 E71      0.165000
     37 H12         4.7720   -2.6850    8.3590 ha        1 E71      0.147000
     38 H11         6.2080   -3.1380   10.3820 h4        1 E71      0.024100
     39 H10         6.4320   -7.1950    9.5070 h4        1 E71      0.024100
     40 H9          5.0190   -6.9230    7.4370 ha        1 E71      0.147000
@<TRIPOS>BOND
     1    1    2 1   
     2    2    3 ar  
     3    2    5 ar  
     4    3    4 1   
     5    3    8 ar  
     6    5    6 ar  
     7    5   29 1   
     8    6    7 ar  
     9    6   30 1   
    10    7    8 ar  
    11    7   31 1   
    12    8    9 1   
    13    9   10 2   
    14    9   13 1   
    15   10   11 1   
    16   10   14 1   
    17   11   12 1   
    18   12   13 2   
    19   13   32 1   
    20   14   15 2   
    21   14   18 1   
    22   15   16 1   
    23   15   33 1   
    24   16   17 1   
    25   16   34 1   
    26   17   18 ar  
    27   17   19 ar  
    28   18   22 ar  
    29   19   20 ar  
    30   20   21 ar  
    31   20   35 1   
    32   21   22 ar  
    33   21   23 1   
    34   22   36 1   
    35   23   24 ar  
    36   23   28 ar  
    37   24   25 ar  
    38   24   37 1   
    39   25   26 ar  
    40   25   38 1   
    41   26   27 ar  
    42   27   28 ar  
    43   27   39 1   
    44   28   40 1   
@<TRIPOS>SUBSTRUCTURE
     1 E71         1 TEMP              0 ****  ****    0 ROOT
