@<TRIPOS>MOLECULE
E71
   40    44     1     0     0
SMALL
bcc


@<TRIPOS>ATOM
      1 F2         -6.1110   -1.3910    1.0400 f         1 E71     -0.124900
      2 C6         -5.4630   -0.5800    0.1730 ca        1 E71      0.088900
      3 C1         -4.2050   -0.0250    0.5390 ca        1 E71      0.090900
      4 F1         -3.6920   -0.3190    1.7550 f         1 E71     -0.120900
      5 C5         -6.0260   -0.2850   -1.0780 ca        1 E71     -0.140000
      6 C4         -5.3460    0.5520   -1.9570 ca        1 E71     -0.118000
      7 C3         -4.1140    1.0980   -1.6070 ca        1 E71     -0.108000
      8 C2         -3.5250    0.8210   -0.3650 ca        1 E71     -0.009000
      9 C7         -2.2600    1.4310   -0.0360 cc        1 E71     -0.310600
     10 C9         -0.9920    0.8830    0.1470 cd        1 E71      0.410500
     11 O          -0.1030    1.9630    0.3970 os        1 E71     -0.123100
     12 N1         -0.7600    3.1080    0.3780 nd        1 E71     -0.361300
     13 C8         -2.0530    2.8720    0.1250 cc        1 E71      0.332200
     14 C10        -0.4300   -0.4180    0.1230 cd        1 E71     -0.219000
     15 C16        -1.1440   -1.6280    0.1480 cc        1 E71     -0.037100
     16 N3         -0.2740   -2.7070    0.1030 na        1 E71     -0.271100
     17 C15         1.0440   -2.2150    0.0580 ca        1 E71      0.419800
     18 C11         0.9760   -0.7610    0.0700 ca        1 E71     -0.167100
     19 N2          2.2070   -2.9300    0.0100 nb        1 E71     -0.662000
     20 C14         3.3190   -2.1910   -0.0290 ca        1 E71      0.429200
     21 C13         3.3660   -0.7640   -0.0220 cp        1 E71     -0.182300
     22 C12         2.1720   -0.0450    0.0300 ca        1 E71     -0.026000
     23 C17         4.6540   -0.0840   -0.0670 cp        1 E71      0.009000
     24 C21         4.8720    1.0940    0.6640 ca        1 E71     -0.239300
     25 C20         6.1310    1.7130    0.5890 ca        1 E71      0.395200
     26 N4          7.1530    1.2400   -0.1500 nb        1 E71     -0.663000
     27 C19         6.9330    0.1090   -0.8480 ca        1 E71      0.395200
     28 C18         5.7110   -0.5860   -0.8410 ca        1 E71     -0.239300
     29 H4         -7.0010   -0.7190   -1.3470 ha        1 E71      0.157000
     30 H3         -5.7880    0.7840   -2.9380 ha        1 E71      0.147000
     31 H2         -3.5850    1.7590   -2.3110 ha        1 E71      0.151000
     32 H5         -2.8130    3.6520    0.0600 h4        1 E71      0.056100
     33 H8         -2.2270   -1.7760    0.2100 h4        1 E71      0.185000
     34 H1         -0.5240   -3.6620    0.1310 hn        1 E71      0.318700
     35 H7          4.2620   -2.7690   -0.0590 h4        1 E71      0.030100
     36 H6          2.1600    1.0570    0.0370 ha        1 E71      0.165000
     37 H12         4.0770    1.5250    1.2890 ha        1 E71      0.147000
     38 H11         6.3350    2.6420    1.1520 h4        1 E71      0.024100
     39 H10         7.7850   -0.2580   -1.4480 h4        1 E71      0.024100
     40 H9          5.5900   -1.4980   -1.4400 ha        1 E71      0.147000
@<TRIPOS>BOND
     1    1    2 1   
     2    2    3 ar  
     3    2    5 ar  
     4    3    4 1   
     5    3    8 ar  
     6    5    6 ar  
     7    5   29 1   
     8    6    7 ar  
     9    6   30 1   
    10    7    8 ar  
    11    7   31 1   
    12    8    9 1   
    13    9   10 2   
    14    9   13 1   
    15   10   11 1   
    16   10   14 1   
    17   11   12 1   
    18   12   13 2   
    19   13   32 1   
    20   14   15 2   
    21   14   18 1   
    22   15   16 1   
    23   15   33 1   
    24   16   17 1   
    25   16   34 1   
    26   17   18 ar  
    27   17   19 ar  
    28   18   22 ar  
    29   19   20 ar  
    30   20   21 ar  
    31   20   35 1   
    32   21   22 ar  
    33   21   23 1   
    34   22   36 1   
    35   23   24 ar  
    36   23   28 ar  
    37   24   25 ar  
    38   24   37 1   
    39   25   26 ar  
    40   25   38 1   
    41   26   27 ar  
    42   27   28 ar  
    43   27   39 1   
    44   28   40 1   
@<TRIPOS>SUBSTRUCTURE
     1 E71         1 TEMP              0 ****  ****    0 ROOT
