@<TRIPOS>MOLECULE
E71
   40    44     1     0     0
SMALL
bcc


@<TRIPOS>ATOM
      1 F2          0.3180    0.4260   -0.7430 f         1 E71     -0.124900
      2 C6          1.6340    0.2370   -0.4920 ca        1 E71      0.088900
      3 C1          2.0850    0.1530    0.8550 ca        1 E71      0.090900
      4 F1          1.1820    0.2740    1.8540 f         1 E71     -0.120900
      5 C5          2.5490    0.1240   -1.5490 ca        1 E71     -0.140000
      6 C4          3.8990   -0.0700   -1.2710 ca        1 E71     -0.118000
      7 C3          4.3470   -0.1530    0.0430 ca        1 E71     -0.108000
      8 C2          3.4570   -0.0470    1.1220 ca        1 E71     -0.009000
      9 C7          3.9730   -0.1140    2.4670 cc        1 E71     -0.310600
     10 C9          3.8090   -1.0660    3.4710 cd        1 E71      0.410500
     11 O           4.5970   -0.6460    4.5770 os        1 E71     -0.123100
     12 N1          5.2100    0.4880    4.2940 nd        1 E71     -0.361300
     13 C8          4.8880    0.8690    3.0520 cc        1 E71      0.332200
     14 C10         3.0960   -2.2830    3.6170 cd        1 E71     -0.219000
     15 C16         2.0770   -2.7500    2.7700 cc        1 E71     -0.037100
     16 N3          1.6070   -3.9800    3.2060 na        1 E71     -0.271100
     17 C15         2.3140   -4.3380    4.3700 ca        1 E71      0.419800
     18 C11         3.2680   -3.2760    4.6550 ca        1 E71     -0.167100
     19 N2          2.1690   -5.4660    5.1280 nb        1 E71     -0.662000
     20 C14         2.9830   -5.5410    6.1830 ca        1 E71      0.429200
     21 C13         3.9520   -4.5600    6.5540 cp        1 E71     -0.182300
     22 C12         4.0890   -3.4120    5.7740 ca        1 E71     -0.026000
     23 C17         4.7760   -4.7710    7.7370 cp        1 E71      0.009000
     24 C21         5.1210   -3.6990    8.5740 ca        1 E71     -0.239300
     25 C20         5.9190   -3.9530    9.7030 ca        1 E71      0.395200
     26 N4          6.3770   -5.1750   10.0350 nb        1 E71     -0.663000
     27 C19         6.0400   -6.1970    9.2230 ca        1 E71      0.395200
     28 C18         5.2490   -6.0490    8.0720 ca        1 E71     -0.239300
     29 H4          2.1870    0.1930   -2.5860 ha        1 E71      0.157000
     30 H3          4.6170   -0.1570   -2.1010 ha        1 E71      0.147000
     31 H2          5.4180   -0.3080    0.2500 ha        1 E71      0.151000
     32 H5          5.2590    1.7790    2.5790 h4        1 E71      0.056100
     33 H8          1.6520   -2.2630    1.8850 h4        1 E71      0.185000
     34 H1          0.8800   -4.5070    2.7970 hn        1 E71      0.318700
     35 H7          2.8600   -6.4500    6.8030 h4        1 E71      0.030100
     36 H6          4.8240   -2.6280    6.0220 ha        1 E71      0.165000
     37 H12         4.7730   -2.6800    8.3580 ha        1 E71      0.147000
     38 H11         6.2080   -3.1310   10.3830 h4        1 E71      0.024100
     39 H10         6.4300   -7.1890    9.5140 h4        1 E71      0.024100
     40 H9          5.0180   -6.9200    7.4440 ha        1 E71      0.147000
@<TRIPOS>BOND
     1    1    2 1   
     2    2    3 ar  
     3    2    5 ar  
     4    3    4 1   
     5    3    8 ar  
     6    5    6 ar  
     7    5   29 1   
     8    6    7 ar  
     9    6   30 1   
    10    7    8 ar  
    11    7   31 1   
    12    8    9 1   
    13    9   10 2   
    14    9   13 1   
    15   10   11 1   
    16   10   14 1   
    17   11   12 1   
    18   12   13 2   
    19   13   32 1   
    20   14   15 2   
    21   14   18 1   
    22   15   16 1   
    23   15   33 1   
    24   16   17 1   
    25   16   34 1   
    26   17   18 ar  
    27   17   19 ar  
    28   18   22 ar  
    29   19   20 ar  
    30   20   21 ar  
    31   20   35 1   
    32   21   22 ar  
    33   21   23 1   
    34   22   36 1   
    35   23   24 ar  
    36   23   28 ar  
    37   24   25 ar  
    38   24   37 1   
    39   25   26 ar  
    40   25   38 1   
    41   26   27 ar  
    42   27   28 ar  
    43   27   39 1   
    44   28   40 1   
@<TRIPOS>SUBSTRUCTURE
     1 E71         1 TEMP              0 ****  ****    0 ROOT
