@<TRIPOS>MOLECULE
E72
   91    89     1     0     0
SMALL
bcc


@<TRIPOS>ATOM
      1 N1          0.2930    0.2830   -0.7830 n1        1 E72     -0.301000
      2 C2          1.6790    0.3870   -0.7920 c1        1 E72      0.192000
      3 N3          2.3750    0.4090    0.3900 n1        1 E72     -0.265000
      4 C4          1.7060    0.3300    1.5820 c1        1 E72      0.113000
      5 C5          0.3380    0.2280    1.5940 c1        1 E72     -0.218000
      6 C6         -0.3700    0.2050    0.3880 c2        1 E72      0.215000
      7 CAA         1.7510    0.2170    4.0200 c1        1 E72      0.105000
      8 CAB         0.3630    0.1140    4.0330 c2        1 E72     -0.001000
      9 CAC        -0.3520    0.1180    2.8280 c1        1 E72     -0.067000
     10 CAF         2.4310    0.3250    2.8070 c2        1 E72     -0.219000
     11 OAK         2.2150    0.1660    5.3940 o         1 E72     -0.208000
     12 OAL        -0.1570   -0.1300    5.3460 os        1 E72     -0.212000
     13 CAM        -1.0620    0.8700    5.8030 c3        1 E72     -0.075000
     14 NAN        -1.8250    0.0650    0.2320 n3        1 E72     -0.286000
     15 CAO        -2.4060   -0.1480   -1.1070 c3        1 E72      0.014000
     16 CAP        -3.1090    1.0990   -1.5370 c3        1 E72     -0.174000
     17 CAQ        -3.8890    0.9060   -2.8330 c3        1 E72     -0.066000
     18 NAR        -4.7890   -0.2630   -2.7820 n3        1 E72     -0.257000
     19 CAS        -4.0950   -1.5040   -2.3540 c3        1 E72     -0.066000
     20 CAT        -3.3170   -1.3210   -1.0580 c3        1 E72     -0.174000
     21 NAU         2.3940    0.3540   -2.0460 n3        1 E72     -0.275000
     22 CAV         3.7710    0.8040   -2.1090 c3        1 E72     -0.034000
     23 CAW         4.2790    0.6820   -3.5420 c3        1 E72     -0.175000
     24 CAX         5.5840    1.4880   -3.6930 c3        1 E72     -0.064000
     25 NAY         6.2500    1.1140   -4.9570 n3        1 E72     -0.264000
     26 CAZ         6.5100    2.3110   -5.7370 c3        1 E72     -0.120000
     27 CBA         7.5090    0.4380   -4.6650 c3        1 E72     -0.120000
     28 CBB         3.2060   -0.8490    5.6360 c3        1 E72     -0.025000
     29 CBC         3.6830   -0.7680    7.1070 c3        1 E72     -0.165000
     30 CBD         4.5450   -2.0420    7.4490 c3        1 E72     -0.153000
     31 CBE         4.7350   -2.1450    8.9840 c3        1 E72     -0.201000
     32 CBF         5.3860   -3.5100    9.3380 c3        1 E72     -0.086000
     33 NBG         5.5760   -3.5930   10.7550 n3        1 E72     -0.337000
     34 CBH        -5.3910   -0.4760   -4.1070 c3        1 E72     -0.065000
     35 CBI        -6.9020   -0.1380   -4.0530 c3        1 E72     -0.160000
     36 CBJ        -7.3790    0.2640   -5.4430 c3        1 E72     -0.154000
     37 CBK        -8.7620    0.8860   -5.3480 c3        1 E72     -0.200000
     38 CBL        -9.1780    1.4110   -6.7240 c3        1 E72     -0.087000
     39 NBM       -10.3750    2.2140   -6.5940 n3        1 E72     -0.337000
     40 HAC        -1.3290    0.0450    2.8370 ha        1 E72      0.143000
     41 HAF         3.4140    0.3980    2.7990 ha        1 E72      0.158000
     42 HAM        -0.6870    1.7620    5.6160 h1        1 E72      0.081667
     43 HAMA       -1.2010    0.7700    6.7730 h1        1 E72      0.081667
     44 HAMB       -1.9170    0.7720    5.3390 h1        1 E72      0.081667
     45 HNAN       -2.3700    0.1140    0.9640 hn        1 E72      0.214000
     46 HAO        -1.6880   -0.3360   -1.7340 h1        1 E72      0.126000
     47 HAP        -2.4400    1.8130   -1.6690 hc        1 E72      0.094500
     48 HAPA       -3.7280    1.3720   -0.8320 hc        1 E72      0.094500
     49 HAQ        -3.2570    0.7870   -3.5670 h1        1 E72      0.073750
     50 HAQA       -4.4260    1.7130   -3.0030 h1        1 E72      0.073750
     51 HAS        -3.4720   -1.7810   -3.0620 h1        1 E72      0.073750
     52 HASA       -4.7660   -2.2150   -2.2240 h1        1 E72      0.073750
     53 HAT        -3.9560   -1.1980   -0.3190 hc        1 E72      0.094500
     54 HATA       -2.7840   -2.1330   -0.8870 hc        1 E72      0.094500
     55 HNAU        1.9600    0.1010   -2.8150 hn        1 E72      0.221000
     56 HAV         3.8230    1.7400   -1.8220 h1        1 E72      0.092500
     57 HAVA        4.3230    0.2500   -1.5170 h1        1 E72      0.092500
     58 HAW         4.4490   -0.2490   -3.7470 hc        1 E72      0.093500
     59 HAWA        3.6050    1.0330   -4.1570 hc        1 E72      0.093500
     60 HAX         6.1770    1.2910   -2.9410 h1        1 E72      0.072500
     61 HAXA        5.3760    2.4530   -3.7030 h1        1 E72      0.072500
     62 HAZ         7.3130    2.1810   -6.2750 h1        1 E72      0.070833
     63 HAZA        5.7410    2.4900   -6.3330 h1        1 E72      0.070833
     64 HAZB        6.6410    3.0760   -5.1310 h1        1 E72      0.070833
     65 HBA         7.3320   -0.3630   -4.1110 h1        1 E72      0.070833
     66 HBAA        8.1040    1.0490   -4.1760 h1        1 E72      0.070833
     67 HBAB        7.9360    0.1660   -5.5020 h1        1 E72      0.070833
     68 HBB         3.9650   -0.7100    5.0400 h1        1 E72      0.085000
     69 HBBA        2.8180   -1.7260    5.4680 h1        1 E72      0.085000
     70 HBC         4.2290    0.0410    7.2300 hc        1 E72      0.096500
     71 HBCA        2.9070   -0.7290    7.7010 hc        1 E72      0.096500
     72 HBD         5.4190   -1.9700    7.0170 hc        1 E72      0.083000
     73 HBDA        4.0850   -2.8440    7.1220 hc        1 E72      0.083000
     74 HBE         5.3180   -1.4140    9.2930 hc        1 E72      0.080500
     75 HBEA        3.8650   -2.0760    9.4240 hc        1 E72      0.080500
     76 HBF         4.7970   -4.2400    9.0430 h1        1 E72      0.091500
     77 HBFA        6.2490   -3.5860    8.8880 h1        1 E72      0.091500
     78 HNBG        6.2750   -3.0640   10.9990 hn        1 E72      0.140500
     79 HNBA        4.8170   -3.3110   11.1810 hn        1 E72      0.140500
     80 HBH        -5.2750   -1.4140   -4.3710 h1        1 E72      0.070000
     81 HBHA       -4.9530    0.1010   -4.7580 h1        1 E72      0.070000
     82 HBI        -7.4050   -0.9270   -3.7490 hc        1 E72      0.087500
     83 HBIA       -7.0490    0.5950   -3.4360 hc        1 E72      0.087500
     84 HBJ        -7.4180   -0.5280   -6.0170 hc        1 E72      0.081000
     85 HBJA       -6.7600    0.9090   -5.8240 hc        1 E72      0.081000
     86 HBK        -9.4050    0.2080   -5.0480 hc        1 E72      0.079000
     87 HBKA       -8.7450    1.6220   -4.7090 hc        1 E72      0.079000
     88 HBL        -9.3560    0.6500   -7.3260 h1        1 E72      0.091000
     89 HBLA       -8.4560    1.9590   -7.0970 h1        1 E72      0.091000
     90 HNBM      -11.0800    1.6760   -6.3200 hn        1 E72      0.140000
     91 HNBB      -10.2350    2.8730   -5.9740 hn        1 E72      0.140000
@<TRIPOS>BOND
     1    1    6 1   
     2    2    3 1   
     3    2   21 1   
     4    4    5 1   
     5    4   10 1   
     6    5    6 1   
     7    6   14 1   
     8    7    8 1   
     9    7   10 1   
    10    8    9 1   
    11    8   12 1   
    12    9   40 1   
    13   10   41 1   
    14   11   28 1   
    15   12   13 1   
    16   13   42 1   
    17   13   43 1   
    18   13   44 1   
    19   14   15 1   
    20   14   45 1   
    21   15   16 1   
    22   15   20 1   
    23   15   46 1   
    24   16   17 1   
    25   16   47 1   
    26   16   48 1   
    27   17   18 1   
    28   17   49 1   
    29   17   50 1   
    30   18   19 1   
    31   18   34 1   
    32   19   20 1   
    33   19   51 1   
    34   19   52 1   
    35   20   53 1   
    36   20   54 1   
    37   21   22 1   
    38   21   55 1   
    39   22   23 1   
    40   22   56 1   
    41   22   57 1   
    42   23   24 1   
    43   23   58 1   
    44   23   59 1   
    45   24   25 1   
    46   24   60 1   
    47   24   61 1   
    48   25   26 1   
    49   25   27 1   
    50   26   62 1   
    51   26   63 1   
    52   26   64 1   
    53   27   65 1   
    54   27   66 1   
    55   27   67 1   
    56   28   29 1   
    57   28   68 1   
    58   28   69 1   
    59   29   30 1   
    60   29   70 1   
    61   29   71 1   
    62   30   31 1   
    63   30   72 1   
    64   30   73 1   
    65   31   32 1   
    66   31   74 1   
    67   31   75 1   
    68   32   33 1   
    69   32   76 1   
    70   32   77 1   
    71   33   78 1   
    72   33   79 1   
    73   34   35 1   
    74   34   80 1   
    75   34   81 1   
    76   35   36 1   
    77   35   82 1   
    78   35   83 1   
    79   36   37 1   
    80   36   84 1   
    81   36   85 1   
    82   37   38 1   
    83   37   86 1   
    84   37   87 1   
    85   38   39 1   
    86   38   88 1   
    87   38   89 1   
    88   39   90 1   
    89   39   91 1   
@<TRIPOS>SUBSTRUCTURE
     1 E72         1 TEMP              0 ****  ****    0 ROOT
