@<TRIPOS>MOLECULE
E72
   91    93     1     0     0
SMALL
bcc


@<TRIPOS>ATOM
      1 N1         -0.6820    0.6850    0.5210 nb        1 E72     -0.818000
      2 C2          0.3780    1.5610    0.2380 ca        1 E72      0.898900
      3 N3          1.6830    1.2000    0.0770 nb        1 E72     -0.781000
      4 C4          1.9670   -0.1400    0.1780 ca        1 E72      0.489600
      5 C5          0.9730   -1.1230    0.4610 ca        1 E72     -0.323600
      6 C6         -0.3920   -0.6260    0.6340 ca        1 E72      0.721200
      7 CAA         3.6590   -1.8930    0.0980 ca        1 E72      0.158100
      8 CAB         2.6500   -2.8730    0.3980 ca        1 E72      0.082100
      9 CAC         1.3410   -2.4850    0.5750 ca        1 E72     -0.143000
     10 CAF         3.3250   -0.5620   -0.0060 ca        1 E72     -0.273300
     11 OAK         4.9230   -2.4100   -0.0600 os        1 E72     -0.304900
     12 OAL         3.1210   -4.1690    0.4810 os        1 E72     -0.302900
     13 CAM         2.1620   -5.1620    0.8230 c3        1 E72      0.109700
     14 NAN        -1.3940   -1.5300    1.0040 nh        1 E72     -0.834900
     15 CAO        -2.7980   -1.1530    1.0180 c3        1 E72      0.206500
     16 CAP        -3.6260   -2.1850    1.8020 c3        1 E72     -0.095900
     17 CAQ        -5.0820   -1.7350    1.8740 c3        1 E72      0.170800
     18 NAR        -5.6820   -1.5020    0.5660 n3        1 E72     -0.731600
     19 CAS        -4.8930   -0.5990   -0.2590 c3        1 E72      0.170800
     20 CAT        -3.4260   -1.0030   -0.3760 c3        1 E72     -0.095900
     21 NAU         0.0060    2.9050    0.0350 nh        1 E72     -0.827900
     22 CAV         1.0150    3.9360    0.1220 c3        1 E72      0.200800
     23 CAW         0.4160    5.3430    0.1160 c3        1 E72     -0.096400
     24 CAX         1.5580    6.3560    0.2020 c3        1 E72      0.172800
     25 NAY         1.1300    7.7360    0.0190 n3        1 E72     -0.738600
     26 CAZ         0.2660    8.2160    1.0730 c3        1 E72      0.156600
     27 CBA         2.2440    8.6230   -0.2390 c3        1 E72      0.156600
     28 CBB         5.9520   -1.4590   -0.3740 c3        1 E72      0.123400
     29 CBC         7.2290   -2.2710   -0.5090 c3        1 E72     -0.085400
     30 CBD         8.3950   -1.3590   -0.8220 c3        1 E72     -0.078400
     31 CBE         9.6760   -2.1530   -0.9650 c3        1 E72     -0.082400
     32 CBF        10.8450   -1.2170   -1.2690 c3        1 E72      0.158800
     33 NBG        12.0940   -1.9090   -1.4770 n3        1 E72     -0.915800
     34 CBH        -7.0740   -1.0880    0.6900 c3        1 E72      0.171800
     35 CBI        -7.8360   -1.0540   -0.6330 c3        1 E72     -0.081400
     36 CBJ        -9.3160   -0.8640   -0.3710 c3        1 E72     -0.079400
     37 CBK       -10.0890   -0.7820   -1.6690 c3        1 E72     -0.082400
     38 CBL       -11.5780   -0.5910   -1.3850 c3        1 E72      0.158800
     39 NBM       -12.3900   -0.5590   -2.5780 n3        1 E72     -0.915800
     40 HAC         0.5880   -3.2470    0.8200 ha        1 E72      0.135000
     41 HAF         4.0830    0.2020   -0.2310 ha        1 E72      0.159000
     42 HAM         2.7660   -6.1040    0.8510 h1        1 E72      0.043367
     43 HAMA        1.7120   -4.9520    1.8240 h1        1 E72      0.043367
     44 HAMB        1.3660   -5.2290    0.0420 h1        1 E72      0.043367
     45 HNAN       -1.2380   -2.4600    0.6780 hn        1 E72      0.410800
     46 HAO        -2.8830   -0.1610    1.5540 h1        1 E72      0.084700
     47 HAP        -3.5610   -3.1890    1.3090 hc        1 E72      0.055200
     48 HAPA       -3.2360   -2.2840    2.8480 hc        1 E72      0.055200
     49 HAQ        -5.6780   -2.5470    2.3810 h1        1 E72      0.033950
     50 HAQA       -5.1390   -0.8130    2.5270 h1        1 E72      0.033950
     51 HAS        -5.3420   -0.6070   -1.2920 h1        1 E72      0.033950
     52 HASA       -4.9410    0.4630    0.1280 h1        1 E72      0.033950
     53 HAT        -2.8910   -0.2110   -0.9600 hc        1 E72      0.055200
     54 HATA       -3.3410   -1.9680   -0.9400 hc        1 E72      0.055200
     55 HNAU       -0.8870    3.1540    0.4050 hn        1 E72      0.422800
     56 HAV         1.6440    3.8130    1.0520 h1        1 E72      0.053200
     57 HAVA        1.7020    3.8190   -0.7660 h1        1 E72      0.053200
     58 HAW        -0.1770    5.5090   -0.8210 hc        1 E72      0.054200
     59 HAWA       -0.2780    5.4700    0.9870 hc        1 E72      0.054200
     60 HAX         2.0860    6.2140    1.1920 h1        1 E72      0.033200
     61 HAXA        2.3010    6.1180   -0.6130 h1        1 E72      0.033200
     62 HAZ         0.7460    8.1870    2.0900 h1        1 E72      0.031033
     63 HAZA       -0.0310    9.2740    0.8500 h1        1 E72      0.031033
     64 HAZB       -0.6610    7.5840    1.0980 h1        1 E72      0.031033
     65 HBA         2.7940    8.2640   -1.1470 h1        1 E72      0.031033
     66 HBAA        1.8470    9.6510   -0.4440 h1        1 E72      0.031033
     67 HBAB        2.9700    8.6850    0.6180 h1        1 E72      0.031033
     68 HBB         5.7000   -0.9360   -1.3330 h1        1 E72      0.042700
     69 HBBA        6.0340   -0.7090    0.4560 h1        1 E72      0.042700
     70 HBC         7.4170   -2.8300    0.4440 hc        1 E72      0.060700
     71 HBCA        7.1010   -3.0330   -1.3210 hc        1 E72      0.060700
     72 HBD         8.1920   -0.7980   -1.7720 hc        1 E72      0.041700
     73 HBDA        8.5100   -0.5990   -0.0050 hc        1 E72      0.041700
     74 HBE         9.8750   -2.7200   -0.0180 hc        1 E72      0.049200
     75 HBEA        9.5650   -2.9050   -1.7890 hc        1 E72      0.049200
     76 HBF        10.6170   -0.6480   -2.2160 h1        1 E72      0.024200
     77 HBFA       10.9060   -0.4540   -0.4350 h1        1 E72      0.024200
     78 HNBG       12.8470   -1.2550   -1.5460 hn        1 E72      0.348800
     79 HNBA       12.2810   -2.5490   -0.7310 hn        1 E72      0.348800
     80 HBH        -7.5830   -1.8300    1.3710 h1        1 E72      0.030200
     81 HBHA       -7.1620   -0.0700    1.1770 h1        1 E72      0.030200
     82 HBI        -7.4600   -0.2130   -1.2730 hc        1 E72      0.049700
     83 HBIA       -7.6720   -2.0080   -1.2000 hc        1 E72      0.049700
     84 HBJ        -9.7040   -1.7190    0.2440 hc        1 E72      0.040200
     85 HBJA       -9.4760    0.0730    0.2250 hc        1 E72      0.040200
     86 HBK        -9.7030    0.0730   -2.2850 hc        1 E72      0.047700
     87 HBKA       -9.9310   -1.7200   -2.2640 hc        1 E72      0.047700
     88 HBL       -11.9410   -1.4540   -0.7570 h1        1 E72      0.023700
     89 HBLA      -11.6950    0.3440   -0.7580 h1        1 E72      0.023700
     90 HNBM      -13.3300   -0.3040   -2.3520 hn        1 E72      0.348300
     91 HNBB      -12.0240    0.0880   -3.2470 hn        1 E72      0.348300
@<TRIPOS>BOND
     1    1    2 ar  
     2    1    6 ar  
     3    2    3 ar  
     4    2   21 1   
     5    3    4 ar  
     6    4    5 ar  
     7    4   10 ar  
     8    5    6 ar  
     9    5    9 ar  
    10    6   14 1   
    11    7    8 ar  
    12    7   10 ar  
    13    7   11 1   
    14    8    9 ar  
    15    8   12 1   
    16    9   40 1   
    17   10   41 1   
    18   11   28 1   
    19   12   13 1   
    20   13   42 1   
    21   13   43 1   
    22   13   44 1   
    23   14   15 1   
    24   14   45 1   
    25   15   16 1   
    26   15   20 1   
    27   15   46 1   
    28   16   17 1   
    29   16   47 1   
    30   16   48 1   
    31   17   18 1   
    32   17   49 1   
    33   17   50 1   
    34   18   19 1   
    35   18   34 1   
    36   19   20 1   
    37   19   51 1   
    38   19   52 1   
    39   20   53 1   
    40   20   54 1   
    41   21   22 1   
    42   21   55 1   
    43   22   23 1   
    44   22   56 1   
    45   22   57 1   
    46   23   24 1   
    47   23   58 1   
    48   23   59 1   
    49   24   25 1   
    50   24   60 1   
    51   24   61 1   
    52   25   26 1   
    53   25   27 1   
    54   26   62 1   
    55   26   63 1   
    56   26   64 1   
    57   27   65 1   
    58   27   66 1   
    59   27   67 1   
    60   28   29 1   
    61   28   68 1   
    62   28   69 1   
    63   29   30 1   
    64   29   70 1   
    65   29   71 1   
    66   30   31 1   
    67   30   72 1   
    68   30   73 1   
    69   31   32 1   
    70   31   74 1   
    71   31   75 1   
    72   32   33 1   
    73   32   76 1   
    74   32   77 1   
    75   33   78 1   
    76   33   79 1   
    77   34   35 1   
    78   34   80 1   
    79   34   81 1   
    80   35   36 1   
    81   35   82 1   
    82   35   83 1   
    83   36   37 1   
    84   36   84 1   
    85   36   85 1   
    86   37   38 1   
    87   37   86 1   
    88   37   87 1   
    89   38   39 1   
    90   38   88 1   
    91   38   89 1   
    92   39   90 1   
    93   39   91 1   
@<TRIPOS>SUBSTRUCTURE
     1 E72         1 TEMP              0 ****  ****    0 ROOT
