@<TRIPOS>MOLECULE
E72
   96    98     1     0     0
SMALL
bcc


@<TRIPOS>ATOM
      1 N1          1.4820   -0.8430   -1.3770 nb        1 E72     -0.682000
      2 C2          2.5030   -0.0020   -0.9950 ca        1 E72      0.689900
      3 N3          2.8980    0.2920    0.2720 nb        1 E72     -0.617000
      4 C4          2.1830   -0.2770    1.2840 ca        1 E72      0.470600
      5 C5          1.0530   -1.1590    1.0180 ca        1 E72     -0.151600
      6 C6          0.7790   -1.4110   -0.3680 ca        1 E72      0.528200
      7 CAA         1.8390   -0.5540    3.6850 ca        1 E72      0.209100
      8 CAB         0.6990   -1.4300    3.4080 ca        1 E72      0.248100
      9 CAC         0.3300   -1.7000    2.0980 ca        1 E72     -0.278000
     10 CAF         2.5480   -0.0010    2.6430 ca        1 E72     -0.270300
     11 OAK         2.0620   -0.3890    5.0090 os        1 E72     -0.272900
     12 OAL         0.0970   -1.8990    4.5180 os        1 E72     -0.245900
     13 CAM        -1.0180   -2.7930    4.3720 c3        1 E72      0.094700
     14 NAN        -0.2770   -2.3680   -0.7670 n4        1 E72     -0.762700
     15 CAO        -1.6010   -1.7310   -1.1920 c3        1 E72      0.139500
     16 CAP        -2.5120   -1.4760    0.0090 c3        1 E72     -0.110400
     17 CAQ        -3.8560   -0.9110   -0.4720 c3        1 E72      0.173800
     18 NAR        -4.5100   -1.7850   -1.4340 n3        1 E72     -0.741600
     19 CAS        -3.6640   -2.0380   -2.5880 c3        1 E72      0.173800
     20 CAT        -2.3100   -2.6470   -2.1980 c3        1 E72     -0.110400
     21 NAU         3.2430    0.6800   -2.1070 n4        1 E72     -0.732700
     22 CAV         4.5950    0.0770   -2.3430 c3        1 E72      0.114800
     23 CAW         5.3380    0.7590   -3.4970 c3        1 E72     -0.136400
     24 CAX         6.7100    0.0990   -3.6580 c3        1 E72      0.107800
     25 NAY         7.5120    0.6240   -4.8110 n4        1 E72     -0.678400
     26 CAZ         8.0920    1.9650   -4.5230 c3        1 E72      0.077100
     27 CBA         8.5990   -0.3400   -5.1640 c3        1 E72      0.077100
     28 CBB         3.1500    0.4650    5.4410 c3        1 E72      0.128400
     29 CBC         3.0790    0.4010    6.9610 c3        1 E72     -0.091400
     30 CBD         4.1510    1.2620    7.6000 c3        1 E72     -0.074400
     31 CBE         4.0540    1.1740    9.1140 c3        1 E72     -0.109400
     32 CBF         5.1320    2.0420    9.7560 c3        1 E72      0.100800
     33 NBG         5.1020    2.0090   11.2470 n4        1 E72     -0.838600
     34 CBH        -5.8570   -1.3380   -1.7820 c3        1 E72      0.173800
     35 CBI        -6.7620   -2.4550   -2.3120 c3        1 E72     -0.080400
     36 CBJ        -8.1740   -1.9230   -2.4810 c3        1 E72     -0.080400
     37 CBK        -9.1060   -2.9980   -3.0100 c3        1 E72     -0.107400
     38 CBL       -10.5120   -2.4220   -3.1490 c3        1 E72      0.098800
     39 NBM       -11.5080   -3.4090   -3.6590 n4        1 E72     -0.837600
     40 HAC        -0.5570   -2.3320    1.9320 ha        1 E72      0.159000
     41 HAF         3.4040    0.6680    2.8410 ha        1 E72      0.194000
     42 HAM        -1.8600   -2.2760    3.8520 h1        1 E72      0.083033
     43 HAMA       -1.2830   -3.0180    5.4410 h1        1 E72      0.083033
     44 HAMB       -0.7020   -3.7190    3.8350 h1        1 E72      0.083033
     45 HNAN        0.0630   -2.9360   -1.5600 hn        1 E72      0.472300
     46 HAO        -1.3430   -0.7510   -1.6920 hx        1 E72      0.111700
     47 HAP        -2.0480   -0.7330    0.7080 hc        1 E72      0.075200
     48 HAPA       -2.6970   -2.4310    0.5710 hc        1 E72      0.075200
     49 HAQ        -4.5260   -0.8120    0.4290 h1        1 E72      0.065950
     50 HAQA       -3.6780    0.1250   -0.8880 h1        1 E72      0.065950
     51 HAS        -4.1930   -2.7790   -3.2530 h1        1 E72      0.065950
     52 HASA       -3.4740   -1.1020   -3.1920 h1        1 E72      0.065950
     53 HAT        -1.7000   -2.7600   -3.1320 hc        1 E72      0.075200
     54 HATA       -2.4790   -3.6640   -1.7540 hc        1 E72      0.075200
     55 HNAU        2.6810    0.6190   -2.9700 hn        1 E72      0.483800
     56 HAV         5.1890    0.1750   -1.3860 hx        1 E72      0.127700
     57 HAVA        4.4470   -1.0200   -2.5670 hx        1 E72      0.127700
     58 HAW         5.4630    1.8550   -3.2830 hc        1 E72      0.092200
     59 HAWA        4.7480    0.6580   -4.4490 hc        1 E72      0.092200
     60 HAX         6.5720   -1.0120   -3.8180 hx        1 E72      0.117700
     61 HAXA        7.3220    0.2490   -2.7210 hx        1 E72      0.117700
     62 HAZ         8.8220    1.8900   -3.6710 hx        1 E72      0.120700
     63 HAZA        8.6380    2.3340   -5.4380 hx        1 E72      0.120700
     64 HAZB        7.2720    2.6850   -4.2650 hx        1 E72      0.120700
     65 HBA         8.1490   -1.3210   -5.4760 hx        1 E72      0.120700
     66 HBAA        9.2750   -0.4900   -4.2790 hx        1 E72      0.120700
     67 HBAB        9.1970    0.0840   -6.0200 hx        1 E72      0.120700
     68 HBB         2.9740    1.5020    5.0560 h1        1 E72      0.063700
     69 HBBA        4.1140    0.0540    5.0480 h1        1 E72      0.063700
     70 HBC         3.1960   -0.6670    7.2880 hc        1 E72      0.080700
     71 HBCA        2.0620    0.7420    7.2950 hc        1 E72      0.080700
     72 HBD         5.1660    0.9180    7.2660 hc        1 E72      0.062200
     73 HBDA        4.0290    2.3290    7.2740 hc        1 E72      0.062200
     74 HBE         4.1750    0.1040    9.4340 hc        1 E72      0.077700
     75 HBEA        3.0340    1.5150    9.4410 hc        1 E72      0.077700
     76 HBF         5.0010    3.1180    9.4380 hx        1 E72      0.116200
     77 HBFA        6.1550    1.6920    9.4290 hx        1 E72      0.116200
     78 HNBG        4.1970    2.3460   11.5970 hn        1 E72      0.471800
     79 HNBA        5.2450    1.0510   11.5880 hn        1 E72      0.471800
     80 HBH        -6.3330   -0.9210   -0.8470 h1        1 E72      0.053200
     81 HBHA       -5.8240   -0.5070   -2.5470 h1        1 E72      0.053200
     82 HBI        -6.3810   -2.8290   -3.2980 hc        1 E72      0.059700
     83 HBIA       -6.7650   -3.3200   -1.5990 hc        1 E72      0.059700
     84 HBJ        -8.5550   -1.5500   -1.4930 hc        1 E72      0.062200
     85 HBJA       -8.1650   -1.0510   -3.1890 hc        1 E72      0.062200
     86 HBK        -8.7330   -3.3630   -4.0040 hc        1 E72      0.072700
     87 HBKA       -9.1090   -3.8710   -2.3030 hc        1 E72      0.072700
     88 HBL       -10.5010   -1.5490   -3.8650 hx        1 E72      0.117700
     89 HBLA      -10.8800   -2.0580   -2.1450 hx        1 E72      0.117700
     90 HNBM      -12.4320   -2.9670   -3.7320 hn        1 E72      0.469467
     91 HNBB      -11.5750   -4.2130   -3.0240 hn        1 E72      0.469467
     92 HAN2       -0.4500   -3.0010    0.0250 hn        1 E72      0.472300
     93 HAU2        3.3470    1.6770   -1.8550 hn        1 E72      0.483800
     94 HAY1        6.8910    0.7130   -5.6290 hn        1 E72      0.457800
     95 HBG3        5.8470    2.6090   11.6250 hn        1 E72      0.471800
     96 HBM3      -11.2320   -3.7500   -4.5870 hn        1 E72      0.469467
@<TRIPOS>BOND
     1    1    2 ar  
     2    1    6 ar  
     3    2    3 ar  
     4    2   21 1   
     5    3    4 ar  
     6    4    5 ar  
     7    4   10 ar  
     8    5    6 ar  
     9    5    9 ar  
    10    6   14 1   
    11    7    8 ar  
    12    7   10 ar  
    13    7   11 1   
    14    8    9 ar  
    15    8   12 1   
    16    9   40 1   
    17   10   41 1   
    18   11   28 1   
    19   12   13 1   
    20   13   42 1   
    21   13   43 1   
    22   13   44 1   
    23   14   15 1   
    24   14   45 1   
    25   14   92 1   
    26   15   16 1   
    27   15   20 1   
    28   15   46 1   
    29   16   17 1   
    30   16   47 1   
    31   16   48 1   
    32   17   18 1   
    33   17   49 1   
    34   17   50 1   
    35   18   19 1   
    36   18   34 1   
    37   19   20 1   
    38   19   51 1   
    39   19   52 1   
    40   20   53 1   
    41   20   54 1   
    42   21   22 1   
    43   21   55 1   
    44   21   93 1   
    45   22   23 1   
    46   22   56 1   
    47   22   57 1   
    48   23   24 1   
    49   23   58 1   
    50   23   59 1   
    51   24   25 1   
    52   24   60 1   
    53   24   61 1   
    54   25   26 1   
    55   25   27 1   
    56   25   94 1   
    57   26   62 1   
    58   26   63 1   
    59   26   64 1   
    60   27   65 1   
    61   27   66 1   
    62   27   67 1   
    63   28   29 1   
    64   28   68 1   
    65   28   69 1   
    66   29   30 1   
    67   29   70 1   
    68   29   71 1   
    69   30   31 1   
    70   30   72 1   
    71   30   73 1   
    72   31   32 1   
    73   31   74 1   
    74   31   75 1   
    75   32   33 1   
    76   32   76 1   
    77   32   77 1   
    78   33   78 1   
    79   33   79 1   
    80   33   95 1   
    81   34   35 1   
    82   34   80 1   
    83   34   81 1   
    84   35   36 1   
    85   35   82 1   
    86   35   83 1   
    87   36   37 1   
    88   36   84 1   
    89   36   85 1   
    90   37   38 1   
    91   37   86 1   
    92   37   87 1   
    93   38   39 1   
    94   38   88 1   
    95   38   89 1   
    96   39   90 1   
    97   39   91 1   
    98   39   96 1   
@<TRIPOS>SUBSTRUCTURE
     1 E72         1 TEMP              0 ****  ****    0 ROOT
