@<TRIPOS>MOLECULE
E72
   94    96     1     0     0
SMALL
bcc


@<TRIPOS>ATOM
      1 N1          0.4680   -0.2880   -0.4900 nb        1 E72     -0.822000
      2 C2          1.8590   -0.2000   -0.3770 ca        1 E72      0.884900
      3 N3          2.5670   -0.1150    0.7790 nb        1 E72     -0.782000
      4 C4          1.8390   -0.1600    1.9480 ca        1 E72      0.482600
      5 C5          0.4170   -0.2540    1.9640 ca        1 E72     -0.305600
      6 C6         -0.2470   -0.3040    0.6570 ca        1 E72      0.745200
      7 CAA         1.8510   -0.1340    4.3830 ca        1 E72      0.155100
      8 CAB         0.4140   -0.2210    4.3890 ca        1 E72      0.102100
      9 CAC        -0.2750   -0.2790    3.1980 ca        1 E72     -0.149000
     10 CAF         2.5440   -0.1030    3.1960 ca        1 E72     -0.265300
     11 OAK         2.3980   -0.0800    5.6440 os        1 E72     -0.302900
     12 OAL        -0.1470   -0.2430    5.6470 os        1 E72     -0.301900
     13 CAM        -1.5700   -0.2600    5.7030 c3        1 E72      0.106700
     14 NAN        -1.6310   -0.2940    0.6060 nu        1 E72     -0.849900
     15 CAO        -2.4100   -0.4630   -0.6060 c3        1 E72      0.220500
     16 CAP        -3.7700    0.2450   -0.4660 c3        1 E72     -0.096400
     17 CAQ        -4.5890    0.0790   -1.7430 c3        1 E72      0.178300
     18 NAR        -4.7870   -1.3160   -2.1090 n3        1 E72     -0.747600
     19 CAS        -3.5330   -2.0470   -2.2170 c3        1 E72      0.178300
     20 CAT        -2.6630   -1.9370   -0.9670 c3        1 E72     -0.096400
     21 NAU         2.5600   -0.2780   -1.6190 nu        1 E72     -0.816900
     22 CAV         3.8790    0.3070   -1.6810 c3        1 E72      0.202800
     23 CAW         4.4720    0.2110   -3.0950 c3        1 E72     -0.124400
     24 CAX         5.8930    0.7550   -3.0520 c3        1 E72      0.107800
     25 NAY         6.6120    0.6390   -4.3680 nx        1 E72     -0.680400
     26 CAZ         6.1510    1.6720   -5.3330 c3        1 E72      0.081100
     27 CBA         8.0830    0.7300   -4.1710 c3        1 E72      0.081100
     28 CBB         3.8280   -0.0490    5.7340 c3        1 E72      0.129400
     29 CBC         4.1000   -0.0450    7.2310 c3        1 E72     -0.091400
     30 CBD         5.5830    0.0140    7.5250 c3        1 E72     -0.074400
     31 CBE         5.8040    0.0190    9.0280 c3        1 E72     -0.111400
     32 CBF         7.2950    0.0800    9.3300 c3        1 E72      0.100800
     33 NBG         7.5830    0.0900   10.7960 nz        1 E72     -0.839600
     34 CBH        -5.6530   -1.4890   -3.2640 c3        1 E72      0.181800
     35 CBI        -6.5740   -2.7060   -3.1230 c3        1 E72     -0.084400
     36 CBJ        -7.5670   -2.7340   -4.2670 c3        1 E72     -0.079400
     37 CBK        -8.5480   -3.8790   -4.0940 c3        1 E72     -0.109400
     38 CBL        -9.5620   -3.8490   -5.2310 c3        1 E72      0.098800
     39 NBM       -10.5920   -4.9240   -5.1170 nz        1 E72     -0.838600
     40 HAC        -1.3730   -0.3360    3.2290 ha        1 E72      0.142000
     41 HAF         3.6420   -0.0350    3.1810 ha        1 E72      0.153000
     42 HAM        -1.7820   -0.2420    6.8030 h1        1 E72      0.051700
     43 HAMA       -1.9710   -1.1940    5.2400 h1        1 E72      0.051700
     44 HAMB       -1.9980    0.6440    5.2040 h1        1 E72      0.051700
     45 HNAN       -2.1020   -0.5610    1.4410 hn        1 E72      0.429800
     46 HAO        -1.8550    0.0210   -1.4640 h1        1 E72      0.085700
     47 HAP        -4.3380   -0.1750    0.4050 hc        1 E72      0.059700
     48 HAPA       -3.6200    1.3410   -0.2860 hc        1 E72      0.059700
     49 HAQ        -4.0850    0.6580   -2.5730 h1        1 E72      0.036450
     50 HAQA       -5.6030    0.5390   -1.5720 h1        1 E72      0.036450
     51 HAS        -3.7860   -3.1320   -2.3840 h1        1 E72      0.036450
     52 HASA       -2.9270   -1.6970   -3.1060 h1        1 E72      0.036450
     53 HAT        -3.1640   -2.4610   -0.1120 hc        1 E72      0.059700
     54 HATA       -1.6900   -2.4540   -1.1700 hc        1 E72      0.059700
     55 HNAU        1.9830   -0.0480   -2.4050 hn        1 E72      0.413800
     56 HAV         3.8800    1.3910   -1.3650 h1        1 E72      0.060700
     57 HAVA        4.5440   -0.2590   -0.9660 h1        1 E72      0.060700
     58 HAW         3.8450    0.8020   -3.8130 hc        1 E72      0.072700
     59 HAWA        4.4680   -0.8600   -3.4330 hc        1 E72      0.072700
     60 HAX         6.4900    0.1790   -2.2860 hx        1 E72      0.107200
     61 HAXA        5.8880    1.8430   -2.7570 hx        1 E72      0.107200
     62 HAZ         5.0400    1.5880   -5.4680 hx        1 E72      0.108033
     63 HAZA        6.6630    1.5120   -6.3210 hx        1 E72      0.108033
     64 HAZB        6.4060    2.6940   -4.9430 hx        1 E72      0.108033
     65 HBA         8.4270   -0.1170   -3.5190 hx        1 E72      0.108033
     66 HBAA        8.5960    0.6670   -5.1690 hx        1 E72      0.108033
     67 HBAB        8.3360    1.7090   -3.6820 hx        1 E72      0.108033
     68 HBB         4.2180    0.8800    5.2420 h1        1 E72      0.045700
     69 HBBA        4.2630   -0.9540    5.2370 h1        1 E72      0.045700
     70 HBC         3.6510   -0.9700    7.6830 hc        1 E72      0.072200
     71 HBCA        3.5770    0.8350    7.6920 hc        1 E72      0.072200
     72 HBD         6.0250    0.9390    7.0710 hc        1 E72      0.056700
     73 HBDA        6.0990   -0.8700    7.0660 hc        1 E72      0.056700
     74 HBE         5.3520   -0.9090    9.4710 hc        1 E72      0.074700
     75 HBEA        5.2770    0.9040    9.4760 hc        1 E72      0.074700
     76 HBF         7.7420    1.0170    8.8880 hx        1 E72      0.113200
     77 HBFA        7.8180   -0.8160    8.8860 hx        1 E72      0.113200
     78 HNBG        8.5950    0.1320   10.9560 hn        1 E72      0.465133
     79 HNBA        7.1420    0.9050   11.2370 hn        1 E72      0.465133
     80 HBH        -6.3010   -0.5740   -3.3830 h1        1 E72      0.037200
     81 HBHA       -5.0590   -1.6010   -4.2190 h1        1 E72      0.037200
     82 HBI        -5.9670   -3.6480   -3.1210 hc        1 E72      0.058200
     83 HBIA       -7.1220   -2.6570   -2.1450 hc        1 E72      0.058200
     84 HBJ        -7.0210   -2.8450   -5.2410 hc        1 E72      0.057200
     85 HBJA       -8.1270   -1.7620   -4.3040 hc        1 E72      0.057200
     86 HBK        -7.9890   -4.8530   -4.0910 hc        1 E72      0.071200
     87 HBKA       -9.0660   -3.7770   -3.1030 hc        1 E72      0.071200
     88 HBL       -10.1030   -2.8580   -5.2390 hx        1 E72      0.114700
     89 HBLA       -9.0370   -3.9820   -6.2210 hx        1 E72      0.114700
     90 HNBM      -10.1430   -5.8460   -5.1270 hn        1 E72      0.463800
     91 HNBB      -11.1100   -4.8250   -4.2370 hn        1 E72      0.463800
     92 HAY1        6.3960   -0.2870   -4.7640 hn        1 E72      0.452800
     93 HBG3        7.2100   -0.7580   11.2360 hn        1 E72      0.465133
     94 HBM3      -11.2510   -4.8650   -5.9010 hn        1 E72      0.463800
@<TRIPOS>BOND
     1    1    2 ar  
     2    1    6 ar  
     3    2    3 ar  
     4    2   21 1   
     5    3    4 ar  
     6    4    5 ar  
     7    4   10 ar  
     8    5    6 ar  
     9    5    9 ar  
    10    6   14 1   
    11    7    8 ar  
    12    7   10 ar  
    13    7   11 1   
    14    8    9 ar  
    15    8   12 1   
    16    9   40 1   
    17   10   41 1   
    18   11   28 1   
    19   12   13 1   
    20   13   42 1   
    21   13   43 1   
    22   13   44 1   
    23   14   15 1   
    24   14   45 1   
    25   15   16 1   
    26   15   20 1   
    27   15   46 1   
    28   16   17 1   
    29   16   47 1   
    30   16   48 1   
    31   17   18 1   
    32   17   49 1   
    33   17   50 1   
    34   18   19 1   
    35   18   34 1   
    36   19   20 1   
    37   19   51 1   
    38   19   52 1   
    39   20   53 1   
    40   20   54 1   
    41   21   22 1   
    42   21   55 1   
    43   22   23 1   
    44   22   56 1   
    45   22   57 1   
    46   23   24 1   
    47   23   58 1   
    48   23   59 1   
    49   24   25 1   
    50   24   60 1   
    51   24   61 1   
    52   25   26 1   
    53   25   27 1   
    54   25   92 1   
    55   26   62 1   
    56   26   63 1   
    57   26   64 1   
    58   27   65 1   
    59   27   66 1   
    60   27   67 1   
    61   28   29 1   
    62   28   68 1   
    63   28   69 1   
    64   29   30 1   
    65   29   70 1   
    66   29   71 1   
    67   30   31 1   
    68   30   72 1   
    69   30   73 1   
    70   31   32 1   
    71   31   74 1   
    72   31   75 1   
    73   32   33 1   
    74   32   76 1   
    75   32   77 1   
    76   33   78 1   
    77   33   79 1   
    78   33   93 1   
    79   34   35 1   
    80   34   80 1   
    81   34   81 1   
    82   35   36 1   
    83   35   82 1   
    84   35   83 1   
    85   36   37 1   
    86   36   84 1   
    87   36   85 1   
    88   37   38 1   
    89   37   86 1   
    90   37   87 1   
    91   38   39 1   
    92   38   88 1   
    93   38   89 1   
    94   39   90 1   
    95   39   91 1   
    96   39   94 1   
@<TRIPOS>SUBSTRUCTURE
     1 E72         1 TEMP              0 ****  ****    0 ROOT
