@<TRIPOS>MOLECULE
E75
   48    51     1     0     0
SMALL
bcc


@<TRIPOS>ATOM
      1 O2         -0.0790    0.1910   -0.3600 oh        1 E75     -0.598800
      2 C10         1.3390    0.1720   -0.4700 c3        1 E75      0.139100
      3 C9          1.8680   -0.3510    0.8620 c3        1 E75     -0.092400
      4 C8          3.3800   -0.3450    0.8790 c3        1 E75     -0.092900
      5 C11         1.8860    1.5650   -0.7620 c3        1 E75     -0.092400
      6 C12         3.3970    1.5720   -0.7320 c3        1 E75     -0.092900
      7 C7          3.9120    1.0800    0.6330 c3        1 E75      0.207500
      8 N4          5.3590    1.1060    0.7630 nu        1 E75     -0.816900
      9 C4          6.0520    2.3270    0.8190 ca        1 E75      0.869900
     10 N2          7.4020    2.2830    0.4810 nb        1 E75     -0.739000
     11 N3          5.3900    3.4650    1.2730 nb        1 E75     -0.741000
     12 C5          6.1430    4.5620    1.4300 ca        1 E75      0.463200
     13 C6          7.5180    4.6090    1.1490 ca        1 E75     -0.423600
     14 C3          8.1130    3.4200    0.6620 ca        1 E75      0.564800
     15 C2          9.5250    3.4270    0.3220 cc        1 E75     -0.384100
     16 C13        10.2580    4.4760   -0.2160 cd        1 E75      0.295000
     17 C14         9.9850    5.8590   -0.6010 c3        1 E75     -0.146400
     18 O1         11.5750    4.0130   -0.4190 os        1 E75     -0.115100
     19 C1         10.4920    2.3230    0.4290 cc        1 E75      0.415800
     20 N1         11.6860    2.7580   -0.0310 nd        1 E75     -0.359300
     21 C15        10.2490    0.9860    0.9520 ca        1 E75     -0.126500
     22 C20        10.6880   -0.1360    0.2360 ca        1 E75     -0.091000
     23 C19        10.4640   -1.4150    0.7430 ca        1 E75     -0.137000
     24 C18         9.8110   -1.5820    1.9640 ca        1 E75     -0.118000
     25 C17         9.3790   -0.4670    2.6810 ca        1 E75     -0.137000
     26 C16         9.5950    0.8160    2.1800 ca        1 E75     -0.091000
     27 H10        -0.4150    0.5920   -1.1690 ho        1 E75      0.400000
     28 H9          1.6330   -0.5310   -1.3000 h1        1 E75      0.032700
     29 H8          1.4890   -1.3930    1.0240 hc        1 E75      0.055200
     30 H7          1.4650    0.2860    1.6920 hc        1 E75      0.055200
     31 H6          3.7380   -0.7200    1.8730 hc        1 E75      0.050200
     32 H5          3.7710   -1.0410    0.0900 hc        1 E75      0.050200
     33 H12         1.4820    2.2850   -0.0020 hc        1 E75      0.055200
     34 H11         1.5300    1.9040   -1.7700 hc        1 E75      0.055200
     35 H14         3.7950    0.9140   -1.5480 hc        1 E75      0.050200
     36 H13         3.7660    2.6140   -0.9220 hc        1 E75      0.050200
     37 H4          3.4790    1.7510    1.4350 h1        1 E75      0.089700
     38 H3          5.8290    0.3840    0.2550 hn        1 E75      0.425800
     39 H1          5.6080    5.4550    1.8020 h4        1 E75      0.026100
     40 H2          8.1060    5.5190    1.3020 ha        1 E75      0.153000
     41 H16         8.9190    5.9610   -0.9260 hc        1 E75      0.070367
     42 H15        10.1610    6.5390    0.2730 hc        1 E75      0.070367
     43 H17        10.6580    6.1760   -1.4370 hc        1 E75      0.070367
     44 H22        11.2090   -0.0060   -0.7240 ha        1 E75      0.140000
     45 H21        10.8080   -2.2940    0.1770 ha        1 E75      0.133500
     46 H20         9.6390   -2.5930    2.3620 ha        1 E75      0.131000
     47 H19         8.8650   -0.5960    3.6440 ha        1 E75      0.133500
     48 H18         9.2500    1.6950    2.7440 ha        1 E75      0.140000
@<TRIPOS>BOND
     1    1    2 1   
     2    1   27 1   
     3    2    3 1   
     4    2    5 1   
     5    2   28 1   
     6    3    4 1   
     7    3   29 1   
     8    3   30 1   
     9    4    7 1   
    10    4   31 1   
    11    4   32 1   
    12    5    6 1   
    13    5   33 1   
    14    5   34 1   
    15    6    7 1   
    16    6   35 1   
    17    6   36 1   
    18    7    8 1   
    19    7   37 1   
    20    8    9 1   
    21    8   38 1   
    22    9   10 ar  
    23    9   11 ar  
    24   10   14 ar  
    25   11   12 ar  
    26   12   13 ar  
    27   12   39 1   
    28   13   14 ar  
    29   13   40 1   
    30   14   15 1   
    31   15   16 2   
    32   15   19 1   
    33   16   17 1   
    34   16   18 1   
    35   17   41 1   
    36   17   42 1   
    37   17   43 1   
    38   18   20 1   
    39   19   20 2   
    40   19   21 1   
    41   21   22 ar  
    42   21   26 ar  
    43   22   23 ar  
    44   22   44 1   
    45   23   24 ar  
    46   23   45 1   
    47   24   25 ar  
    48   24   46 1   
    49   25   26 ar  
    50   25   47 1   
    51   26   48 1   
@<TRIPOS>SUBSTRUCTURE
     1 E75         1 TEMP              0 ****  ****    0 ROOT
