@<TRIPOS>MOLECULE
E75
   48    45     1     0     0
SMALL
bcc


@<TRIPOS>ATOM
      1 O2         -2.2500    3.5040   -4.6420 oh        1 E75     -0.327000
      2 C10        -2.2700    2.1980   -4.0930 c3        1 E75      0.028000
      3 C9         -3.2250    2.1750   -2.9060 c3        1 E75     -0.174000
      4 C8         -2.7000    2.9750   -1.7240 c3        1 E75     -0.172500
      5 C11        -0.8530    1.8020   -3.7060 c3        1 E75     -0.174000
      6 C12        -0.3300    2.5990   -2.5260 c3        1 E75     -0.172500
      7 C7         -1.2850    2.5780   -1.3380 c3        1 E75      0.011000
      8 N4         -1.3090    1.2400   -0.7770 n3        1 E75     -0.258000
      9 C4         -0.5440    0.9460    0.4150 c2        1 E75      0.146000
     10 N2         -0.5280   -0.3330    0.9240 n1        1 E75     -0.240000
     11 N3          0.1100    1.9410    1.0610 n2        1 E75     -0.214000
     12 C5          0.7750    1.6820    2.2010 c1        1 E75     -0.005000
     13 C6          0.7910    0.4020    2.7120 c1        1 E75     -0.275000
     14 C3          0.1350   -0.5970    2.0630 c1        1 E75      0.129000
     15 C2          0.1420   -2.0310    2.6400 c2        1 E75     -0.158000
     16 C13        -0.8150   -2.5760    3.4850 c1        1 E75      0.038000
     17 C14        -2.0050   -1.8030    4.1390 c2        1 E75     -0.166000
     18 O1         -0.4390   -3.8600    3.7740 os        1 E75     -0.061000
     19 C1          1.1140   -2.9990    2.4120 c1        1 E75     -0.039000
     20 N1          0.7620   -4.1210    3.1050 n2        1 E75     -0.020000
     21 C15         2.3790   -2.8280    1.5440 c1        1 E75     -0.034000
     22 C20         3.5980   -2.5110    2.1470 c2        1 E75     -0.097000
     23 C19         4.7690   -2.5330    1.4000 c1        1 E75     -0.136000
     24 C18         4.7280   -2.8690    0.0540 c1        1 E75     -0.126000
     25 C17         3.5090   -3.1860   -0.5500 c1        1 E75     -0.126000
     26 C16         2.3400   -3.1650    0.1940 c1        1 E75     -0.102000
     27 H10        -2.4880    3.4700   -5.4910 ho        1 E75      0.199000
     28 H9         -2.5990    1.5710   -4.7770 h1        1 E75      0.071000
     29 H8         -3.3590    1.2390   -2.6230 hc        1 E75      0.088000
     30 H7         -4.0870    2.5500   -3.1850 hc        1 E75      0.088000
     31 H6         -2.7090    3.9280   -1.9560 hc        1 E75      0.099250
     32 H5         -3.2890    2.8310   -0.9580 hc        1 E75      0.099250
     33 H12        -0.2580    1.9510   -4.4790 hc        1 E75      0.088000
     34 H11        -0.8420    0.8540   -3.4780 hc        1 E75      0.088000
     35 H14         0.5320    2.2230   -2.2460 hc        1 E75      0.099250
     36 H13        -0.1930    3.5320   -2.8070 hc        1 E75      0.099250
     37 H4         -0.9540    3.2040   -0.6530 h1        1 E75      0.126000
     38 H3         -1.8870    0.6170   -1.1110 hn        1 E75      0.213000
     39 H1          1.2420    2.3940    2.6610 ha        1 E75      0.164000
     40 H2          1.2740    0.2120    3.5400 ha        1 E75      0.166000
     41 H16        -2.1510   -2.1380    5.0630 ha        1 E75      0.113000
     42 H15        -1.7940   -0.8430    4.1690 ha        1 E75      0.113000
     43 H17        -2.8190   -1.9430    3.6080 ha        1 E75      0.113000
     44 H22         3.6280   -2.2720    3.1080 ha        1 E75      0.146000
     45 H21         5.6280   -2.3100    1.8240 ha        1 E75      0.137000
     46 H20         5.5590   -2.8850   -0.4770 ha        1 E75      0.135000
     47 H19         3.4810   -3.4260   -1.5110 ha        1 E75      0.135000
     48 H18         1.4870   -3.3870   -0.2310 ha        1 E75      0.142000
@<TRIPOS>BOND
     1    1    2 1   
     2    1   27 1   
     3    2    3 1   
     4    2    5 1   
     5    2   28 1   
     6    3    4 1   
     7    3   29 1   
     8    3   30 1   
     9    4    7 1   
    10    4   31 1   
    11    4   32 1   
    12    5    6 1   
    13    5   33 1   
    14    5   34 1   
    15    6    7 1   
    16    6   35 1   
    17    6   36 1   
    18    7    8 1   
    19    7   37 1   
    20    8    9 1   
    21    8   38 1   
    22    9   10 1   
    23    9   11 1   
    24   11   12 1   
    25   12   39 1   
    26   13   14 1   
    27   13   40 1   
    28   14   15 1   
    29   15   16 1   
    30   15   19 1   
    31   16   18 1   
    32   17   41 1   
    33   17   42 1   
    34   17   43 1   
    35   18   20 1   
    36   19   20 1   
    37   21   22 1   
    38   21   26 1   
    39   22   23 1   
    40   22   44 1   
    41   23   45 1   
    42   24   25 1   
    43   24   46 1   
    44   25   47 1   
    45   26   48 1   
@<TRIPOS>SUBSTRUCTURE
     1 E75         1 TEMP              0 ****  ****    0 ROOT
