@<TRIPOS>MOLECULE
E75
   49    52     1     0     0
SMALL
bcc


@<TRIPOS>ATOM
      1 O2          1.0280    0.2840   -1.7940 oh        1 E75     -0.580800
      2 C10         2.1590    0.0250   -0.9800 c3        1 E75      0.141100
      3 C9          1.7940    0.1760    0.4960 c3        1 E75     -0.100900
      4 C8          3.0200    0.1010    1.3810 c3        1 E75     -0.096900
      5 C11         3.2140    1.0490   -1.3930 c3        1 E75     -0.100900
      6 C12         4.4350    0.9660   -0.5030 c3        1 E75     -0.096900
      7 C7          4.0190    1.1860    0.9540 c3        1 E75      0.127500
      8 N4          5.2150    1.1840    1.8820 n4        1 E75     -0.743700
      9 C4          6.0000    2.4530    1.7940 ca        1 E75      0.711900
     10 N2          7.1740    2.3800    1.0990 nb        1 E75     -0.668000
     11 N3          5.4610    3.5490    2.4240 nb        1 E75     -0.680000
     12 C5          6.2030    4.6720    2.3360 ca        1 E75      0.463200
     13 C6          7.4310    4.7220    1.6560 ca        1 E75     -0.325600
     14 C3          7.9020    3.5350    1.0360 ca        1 E75      0.592800
     15 C2          9.1550    3.5240    0.3250 cc        1 E75     -0.450100
     16 C13         9.8130    4.5900   -0.2890 cd        1 E75      0.352000
     17 C14         9.5840    6.0260   -0.4470 c3        1 E75     -0.166400
     18 O1         10.9700    4.0730   -0.8910 os        1 E75     -0.088100
     19 C1         10.0130    2.3580    0.0470 cc        1 E75      0.420800
     20 N1         11.0700    2.7740   -0.6800 nd        1 E75     -0.319300
     21 C15         9.7990    0.9850    0.4870 ca        1 E75     -0.139500
     22 C20         9.6600   -0.0370   -0.4610 ca        1 E75     -0.100000
     23 C19         9.4760   -1.3540   -0.0380 ca        1 E75     -0.139000
     24 C18         9.4410   -1.6550    1.3230 ca        1 E75     -0.117000
     25 C17         9.5890   -0.6380    2.2670 ca        1 E75     -0.139000
     26 C16         9.7680    0.6810    1.8540 ca        1 E75     -0.100000
     27 H10         0.3950   -0.4270   -1.6360 ho        1 E75      0.416000
     28 H9          2.5420   -1.0180   -1.1700 h1        1 E75      0.043700
     29 H8          1.0820   -0.6390    0.7910 hc        1 E75      0.078700
     30 H7          1.2640    1.1530    0.6440 hc        1 E75      0.078700
     31 H6          3.4900   -0.9140    1.2900 hc        1 E75      0.068200
     32 H5          2.7090    0.2500    2.4500 hc        1 E75      0.068200
     33 H12         3.5150    0.8550   -2.4570 hc        1 E75      0.078700
     34 H11         2.7650    2.0760   -1.3550 hc        1 E75      0.078700
     35 H14         5.1760    1.7460   -0.8220 hc        1 E75      0.068200
     36 H13         4.9210   -0.0390   -0.6180 hc        1 E75      0.068200
     37 H4          3.5250    2.2000    1.0560 hx        1 E75      0.123700
     38 H3          5.8280    0.3920    1.6410 hn        1 E75      0.469800
     39 H1          5.7790    5.5620    2.8440 h4        1 E75      0.069100
     40 H2          8.0200    5.6500    1.6150 ha        1 E75      0.187000
     41 H16        10.1740    6.4260   -1.3130 hc        1 E75      0.085033
     42 H15         9.9130    6.5670    0.4780 hc        1 E75      0.085033
     43 H17         8.4980    6.2290   -0.6230 hc        1 E75      0.085033
     44 H22         9.7130    0.1960   -1.5350 ha        1 E75      0.143500
     45 H21         9.3810   -2.1580   -0.7840 ha        1 E75      0.144500
     46 H20         9.3190   -2.6990    1.6530 ha        1 E75      0.144000
     47 H19         9.5920   -0.8800    3.3410 ha        1 E75      0.144500
     48 H18         9.9120    1.4770    2.5990 ha        1 E75      0.143500
     49 H42         4.8860    1.0730    2.8500 hn        1 E75      0.469800
@<TRIPOS>BOND
     1    1    2 1   
     2    1   27 1   
     3    2    3 1   
     4    2    5 1   
     5    2   28 1   
     6    3    4 1   
     7    3   29 1   
     8    3   30 1   
     9    4    7 1   
    10    4   31 1   
    11    4   32 1   
    12    5    6 1   
    13    5   33 1   
    14    5   34 1   
    15    6    7 1   
    16    6   35 1   
    17    6   36 1   
    18    7    8 1   
    19    7   37 1   
    20    8    9 1   
    21    8   38 1   
    22    8   49 1   
    23    9   10 ar  
    24    9   11 ar  
    25   10   14 ar  
    26   11   12 ar  
    27   12   13 ar  
    28   12   39 1   
    29   13   14 ar  
    30   13   40 1   
    31   14   15 1   
    32   15   16 2   
    33   15   19 1   
    34   16   17 1   
    35   16   18 1   
    36   17   41 1   
    37   17   42 1   
    38   17   43 1   
    39   18   20 1   
    40   19   20 2   
    41   19   21 1   
    42   21   22 ar  
    43   21   26 ar  
    44   22   23 ar  
    45   22   44 1   
    46   23   24 ar  
    47   23   45 1   
    48   24   25 ar  
    49   24   46 1   
    50   25   26 ar  
    51   25   47 1   
    52   26   48 1   
@<TRIPOS>SUBSTRUCTURE
     1 E75         1 TEMP              0 ****  ****    0 ROOT
