@<TRIPOS>MOLECULE
E75
   48    51     1     0     0
SMALL
bcc


@<TRIPOS>ATOM
      1 O2          7.2730   -0.4220   -0.7470 oh        1 E75     -0.597800
      2 C10         5.9350    0.0480   -0.8510 c3        1 E75      0.139100
      3 C9          5.5250    0.8180    0.4010 c3        1 E75     -0.092900
      4 C8          4.0620    1.1970    0.3530 c3        1 E75     -0.092900
      5 C11         5.0570   -1.1850   -1.0410 c3        1 E75     -0.092900
      6 C12         3.5960   -0.8010   -1.0830 c3        1 E75     -0.092900
      7 C7          3.1900   -0.0650    0.2060 c3        1 E75      0.206500
      8 N4          1.7820    0.2890    0.2680 nh        1 E75     -0.815900
      9 C4          0.8000   -0.7090    0.4010 ca        1 E75      0.867900
     10 N2         -0.4830   -0.3670   -0.0150 nb        1 E75     -0.738000
     11 N3          1.1380   -1.9200    1.0010 nb        1 E75     -0.740000
     12 C5          0.1270   -2.7710    1.2180 ca        1 E75      0.463200
     13 C6         -1.2060   -2.5060    0.8640 ca        1 E75     -0.422600
     14 C3         -1.4640   -1.2650    0.2320 ca        1 E75      0.563800
     15 C2         -2.8210   -0.9570   -0.1860 cc        1 E75     -0.384100
     16 C13        -3.7760   -1.8420   -0.6670 cd        1 E75      0.295000
     17 C14        -3.8480   -3.2820   -0.9060 c3        1 E75     -0.146400
     18 O1         -4.9280   -1.0910   -0.9860 os        1 E75     -0.115100
     19 C1         -3.4820    0.3560   -0.2370 cc        1 E75      0.414800
     20 N1         -4.7310    0.1850   -0.7230 nd        1 E75     -0.359300
     21 C15        -2.9270    1.6390    0.1740 ca        1 E75     -0.126500
     22 C20        -3.0480    2.7550   -0.6650 ca        1 E75     -0.091000
     23 C19        -2.5270    3.9840   -0.2660 ca        1 E75     -0.137000
     24 C18        -1.8900    4.1090    0.9690 ca        1 E75     -0.118000
     25 C17        -1.7740    3.0010    1.8080 ca        1 E75     -0.137000
     26 C16        -2.2890    1.7670    1.4150 ca        1 E75     -0.091000
     27 H10         7.8240    0.3480   -0.5650 ho        1 E75      0.399000
     28 H9          5.8500    0.7200   -1.7520 h1        1 E75      0.031700
     29 H8          5.7310    0.1850    1.3040 hc        1 E75      0.055450
     30 H7          6.1480    1.7460    0.4910 hc        1 E75      0.055450
     31 H6          3.7890    1.7430    1.2930 hc        1 E75      0.049950
     32 H5          3.8800    1.8900   -0.5100 hc        1 E75      0.049950
     33 H12         5.3460   -1.6980   -1.9950 hc        1 E75      0.055450
     34 H11         5.2480   -1.9040   -0.2020 hc        1 E75      0.055450
     35 H14         3.4010   -0.1450   -1.9720 hc        1 E75      0.049950
     36 H13         2.9770   -1.7280   -1.2000 hc        1 E75      0.049950
     37 H4          3.4180   -0.7420    1.0840 h1        1 E75      0.089700
     38 H3          1.5250    1.0440   -0.3360 hn        1 E75      0.424800
     39 H1          0.4070   -3.7250    1.7040 h4        1 E75      0.027100
     40 H2         -2.0100   -3.2200    1.0680 ha        1 E75      0.153000
     41 H16        -4.5500   -3.5070   -1.7490 hc        1 E75      0.070700
     42 H15        -2.8310   -3.6780   -1.1560 hc        1 E75      0.070700
     43 H17        -4.2210   -3.8030    0.0140 hc        1 E75      0.070700
     44 H22        -3.5550    2.6600   -1.6370 ha        1 E75      0.140000
     45 H21        -2.6210    4.8580   -0.9270 ha        1 E75      0.133500
     46 H20        -1.4820    5.0810    1.2820 ha        1 E75      0.131000
     47 H19        -1.2730    3.0970    2.7820 ha        1 E75      0.133500
     48 H18        -2.1930    0.8920    2.0750 ha        1 E75      0.140000
@<TRIPOS>BOND
     1    1    2 1   
     2    1   27 1   
     3    2    3 1   
     4    2    5 1   
     5    2   28 1   
     6    3    4 1   
     7    3   29 1   
     8    3   30 1   
     9    4    7 1   
    10    4   31 1   
    11    4   32 1   
    12    5    6 1   
    13    5   33 1   
    14    5   34 1   
    15    6    7 1   
    16    6   35 1   
    17    6   36 1   
    18    7    8 1   
    19    7   37 1   
    20    8    9 1   
    21    8   38 1   
    22    9   10 ar  
    23    9   11 ar  
    24   10   14 ar  
    25   11   12 ar  
    26   12   13 ar  
    27   12   39 1   
    28   13   14 ar  
    29   13   40 1   
    30   14   15 1   
    31   15   16 2   
    32   15   19 1   
    33   16   17 1   
    34   16   18 1   
    35   17   41 1   
    36   17   42 1   
    37   17   43 1   
    38   18   20 1   
    39   19   20 2   
    40   19   21 1   
    41   21   22 ar  
    42   21   26 ar  
    43   22   23 ar  
    44   22   44 1   
    45   23   24 ar  
    46   23   45 1   
    47   24   25 ar  
    48   24   46 1   
    49   25   26 ar  
    50   25   47 1   
    51   26   48 1   
@<TRIPOS>SUBSTRUCTURE
     1 E75         1 TEMP              0 ****  ****    0 ROOT
