@<TRIPOS>MOLECULE
E86
   54    57     1     0     0
SMALL
bcc


@<TRIPOS>ATOM
      1 C1         -0.9490   -3.5660   -0.3100 c3        1 E86     -0.037800
      2 C2         -1.9030   -2.4680   -0.0720 ca        1 E86     -0.341900
      3 C3         -3.2900   -2.7300   -0.0700 ca        1 E86      0.454200
      4 N4         -4.2320   -1.8080    0.1620 nb        1 E86     -0.730000
      5 C5         -3.7710   -0.5240    0.4220 ca        1 E86      0.860900
      6 N6         -4.6970    0.4890    0.7810 nh        1 E86     -0.702300
      7 C7         -6.0650    0.3700    0.4470 ca        1 E86      0.137600
      8 C8         -6.8580   -0.6550    1.0060 ca        1 E86     -0.097000
      9 C9         -8.2210   -0.7210    0.7360 ca        1 E86     -0.121000
     10 C10        -8.8320    0.2300   -0.0800 ca        1 E86     -0.132000
     11 C11        -8.0730    1.2560   -0.6360 ca        1 E86     -0.112000
     12 C12        -6.7020    1.3260   -0.3840 ca        1 E86     -0.021600
     13 CL13       -5.8100    2.5950   -1.0890 cl        1 E86     -0.098400
     14 N14        -2.4380   -0.1530    0.4190 nb        1 E86     -0.752000
     15 C15        -1.5190   -1.1230    0.1740 ca        1 E86      0.572800
     16 C16        -0.1240   -0.7160    0.1830 cc        1 E86     -0.255500
     17 C17         0.4040    0.3340    0.9710 cd        1 E86     -0.070300
     18 N18         1.7560    0.4390    0.7240 na        1 E86     -0.157100
     19 C20         2.1110   -0.5110   -0.2460 cd        1 E86     -0.206900
     20 C21         0.9600   -1.2380   -0.5970 cc        1 E86     -0.081000
     21 C22         3.4600   -0.7060   -0.8090 c         1 E86      0.693700
     22 O23         3.6150   -1.2670   -1.9120 o         1 E86     -0.597100
     23 N24         4.5390   -0.1950   -0.0920 n         1 E86     -0.543900
     24 C25         5.8960   -0.4370   -0.5400 c3        1 E86      0.139000
     25 C27         6.5110   -1.7470    0.0090 c3        1 E86      0.102400
     26 O28         6.2990   -1.8110    1.4110 oh        1 E86     -0.614800
     27 C29         6.7870    0.7380   -0.2170 ca        1 E86     -0.097300
     28 C30         7.1400    1.0300    1.1040 ca        1 E86     -0.114500
     29 C31         7.9620    2.1210    1.3830 ca        1 E86     -0.135000
     30 C32         8.4330    2.9260    0.3460 ca        1 E86     -0.124000
     31 C33         8.0800    2.6390   -0.9720 ca        1 E86     -0.135000
     32 C34         7.2560    1.5500   -1.2550 ca        1 E86     -0.114500
     33 H1         -0.6510   -3.5980   -1.3890 hc        1 E86      0.046700
     34 H1A        -0.0250   -3.4330    0.3060 hc        1 E86      0.046700
     35 H1B        -1.4080   -4.5520   -0.0490 hc        1 E86      0.046700
     36 H3         -3.6670   -3.7510   -0.2680 h4        1 E86      0.026100
     37 HN6        -4.3330    1.4200    0.6870 hn        1 E86      0.440800
     38 H8         -6.3970   -1.4130    1.6590 ha        1 E86      0.158000
     39 H9         -8.8190   -1.5320    1.1770 ha        1 E86      0.137000
     40 H10        -9.9110    0.1720   -0.2860 ha        1 E86      0.138000
     41 H11        -8.5510    2.0100   -1.2800 ha        1 E86      0.147000
     42 H17        -0.1120    0.9890    1.6780 h4        1 E86      0.187000
     43 H21         0.9200   -2.0290   -1.3430 ha        1 E86      0.175000
     44 HN24        4.4460   -0.1030    0.8950 hn        1 E86      0.307500
     45 H25         5.8610   -0.5670   -1.6680 h1        1 E86      0.095700
     46 H27         6.0180   -2.6260   -0.4880 h1        1 E86      0.040200
     47 H27A        7.6100   -1.7560   -0.2150 h1        1 E86      0.040200
     48 HO28        6.6860   -2.6420    1.7090 ho        1 E86      0.408000
     49 H30         6.7770    0.3830    1.9190 ha        1 E86      0.143000
     50 H31         8.2390    2.3450    2.4240 ha        1 E86      0.132500
     51 H32         9.0810    3.7860    0.5680 ha        1 E86      0.132000
     52 H33         8.4490    3.2730   -1.7920 ha        1 E86      0.132500
     53 H34         6.9730    1.3330   -2.2970 ha        1 E86      0.143000
     54 HN18        2.3590    1.1310    1.0880 hn        1 E86      0.305700
@<TRIPOS>BOND
     1    1    2 1   
     2    1   33 1   
     3    1   34 1   
     4    1   35 1   
     5    2    3 ar  
     6    2   15 ar  
     7    3    4 ar  
     8    3   36 1   
     9    4    5 ar  
    10    5    6 1   
    11    5   14 ar  
    12    6    7 1   
    13    6   37 1   
    14    7    8 ar  
    15    7   12 ar  
    16    8    9 ar  
    17    8   38 1   
    18    9   10 ar  
    19    9   39 1   
    20   10   11 ar  
    21   10   40 1   
    22   11   12 ar  
    23   11   41 1   
    24   12   13 1   
    25   14   15 ar  
    26   15   16 1   
    27   16   17 2   
    28   16   20 1   
    29   17   18 1   
    30   17   42 1   
    31   18   19 1   
    32   18   54 1   
    33   19   20 2   
    34   19   21 1   
    35   20   43 1   
    36   21   22 2   
    37   21   23 1   
    38   23   24 1   
    39   23   44 1   
    40   24   25 1   
    41   24   27 1   
    42   24   45 1   
    43   25   26 1   
    44   25   46 1   
    45   25   47 1   
    46   26   48 1   
    47   27   28 ar  
    48   27   32 ar  
    49   28   29 ar  
    50   28   49 1   
    51   29   30 ar  
    52   29   50 1   
    53   30   31 ar  
    54   30   51 1   
    55   31   32 ar  
    56   31   52 1   
    57   32   53 1   
@<TRIPOS>SUBSTRUCTURE
     1 E86         1 TEMP              0 ****  ****    0 ROOT
