@<TRIPOS>MOLECULE
E86
   55    58     1     0     0
SMALL
bcc


@<TRIPOS>ATOM
      1 C1         -0.1760    0.4080    0.3620 c3        1 E86     -0.040800
      2 C2          1.2700    0.1450    0.2560 ca        1 E86     -0.342900
      3 C3          2.0780    0.1690    1.4230 ca        1 E86      0.471200
      4 N4          3.3870   -0.0740    1.4330 nb        1 E86     -0.706000
      5 C5          3.9690   -0.3780    0.2010 ca        1 E86      0.880900
      6 N6          5.3250   -0.7490    0.1510 nu        1 E86     -0.698300
      7 C7          6.2120   -0.4240    1.2070 ca        1 E86      0.118600
      8 C8          6.0560   -1.0080    2.4810 ca        1 E86     -0.092000
      9 C9          6.9730   -0.7400    3.4940 ca        1 E86     -0.118000
     10 C10         8.0620    0.0990    3.2640 ca        1 E86     -0.118000
     11 C11         8.2380    0.6810    2.0100 ca        1 E86     -0.110000
     12 C12         7.3200    0.4300    0.9900 ca        1 E86     -0.012600
     13 Cl13        7.5640    1.1640   -0.5290 cl        1 E86     -0.097400
     14 N14         3.2760   -0.4060   -0.9980 nb        1 E86     -0.766000
     15 C15         1.9430   -0.1460   -0.9500 ca        1 E86      0.534800
     16 C16         1.2410   -0.1920   -2.2280 cc        1 E86     -0.221500
     17 C17         1.6060   -1.0420   -3.3110 cd        1 E86      0.009700
     18 N18         0.7730   -0.8020   -4.3760 na        1 E86     -0.167100
     19 C20        -0.1540    0.1960   -4.0030 cd        1 E86     -0.308900
     20 C21         0.1380    0.5870   -2.6620 cc        1 E86      0.009000
     21 C22        -1.2010    0.7780   -4.7860 c         1 E86      0.598700
     22 O23        -2.0510    1.5800   -4.4100 o         1 E86     -0.457100
     23 N24        -1.2500    0.3740   -6.2500 ny        1 E86     -0.676800
     24 C25        -2.3810    1.0010   -7.0330 c3        1 E86      0.155800
     25 C27        -3.6860    0.1890   -6.8440 c3        1 E86      0.115400
     26 O28        -3.4450   -1.1880   -7.0330 oh        1 E86     -0.615800
     27 C29        -1.9910    1.1300   -8.4740 ca        1 E86     -0.181300
     28 C30        -1.6690    0.0020   -9.2400 ca        1 E86     -0.113500
     29 C31        -1.3310    0.1440  -10.5830 ca        1 E86     -0.114500
     30 C32        -1.3160    1.4110  -11.1710 ca        1 E86     -0.085000
     31 C33        -1.6360    2.5360  -10.4110 ca        1 E86     -0.114500
     32 C34        -1.9690    2.4000   -9.0630 ca        1 E86     -0.113500
     33 H1         -0.3950    1.4870    0.1560 hc        1 E86      0.048033
     34 H1A        -0.5460    0.1730    1.3920 hc        1 E86      0.048033
     35 H1B        -0.7540   -0.2170   -0.3650 hc        1 E86      0.048033
     36 H3          1.6270    0.4020    2.4080 h4        1 E86      0.040100
     37 HN6         5.7390   -0.7150   -0.7620 hn        1 E86      0.446800
     38 H8          5.2050   -1.6770    2.6820 ha        1 E86      0.156000
     39 H9          6.8340   -1.2020    4.4840 ha        1 E86      0.145000
     40 H10         8.7840    0.3030    4.0680 ha        1 E86      0.147000
     41 H11         9.0980    1.3430    1.8250 ha        1 E86      0.155000
     42 H17         2.4170   -1.7800   -3.3520 h4        1 E86      0.216000
     43 H21        -0.3960    1.3600   -2.1060 ha        1 E86      0.195000
     44 HN24       -1.3680   -0.6460   -6.3090 hn        1 E86      0.458800
     45 H25        -2.5620    2.0310   -6.5930 hx        1 E86      0.130700
     46 H27        -4.0430    0.2970   -5.7820 h1        1 E86      0.093200
     47 H27A       -4.4560    0.5960   -7.5480 h1        1 E86      0.093200
     48 HO28       -3.7470   -1.4310   -7.9190 ho        1 E86      0.435000
     49 H30        -1.6980   -1.0020   -8.7880 ha        1 E86      0.139500
     50 H31        -1.0820   -0.7450  -11.1850 ha        1 E86      0.159000
     51 H32        -1.0530    1.5210  -12.2360 ha        1 E86      0.161000
     52 H33        -1.6280    3.5360  -10.8730 ha        1 E86      0.159000
     53 H34        -2.2230    3.2940   -8.4710 ha        1 E86      0.139500
     54 HN18        0.7660   -1.3140   -5.2200 hn        1 E86      0.301700
     55 H242       -0.3630    0.6330   -6.6930 hn        1 E86      0.458800
@<TRIPOS>BOND
     1    1    2 1   
     2    1   33 1   
     3    1   34 1   
     4    1   35 1   
     5    2    3 ar  
     6    2   15 ar  
     7    3    4 ar  
     8    3   36 1   
     9    4    5 ar  
    10    5    6 1   
    11    5   14 ar  
    12    6    7 1   
    13    6   37 1   
    14    7    8 ar  
    15    7   12 ar  
    16    8    9 ar  
    17    8   38 1   
    18    9   10 ar  
    19    9   39 1   
    20   10   11 ar  
    21   10   40 1   
    22   11   12 ar  
    23   11   41 1   
    24   12   13 1   
    25   14   15 ar  
    26   15   16 1   
    27   16   17 2   
    28   16   20 1   
    29   17   18 1   
    30   17   42 1   
    31   18   19 1   
    32   18   54 1   
    33   19   20 2   
    34   19   21 1   
    35   20   43 1   
    36   21   22 2   
    37   21   23 1   
    38   23   24 1   
    39   23   44 1   
    40   23   55 1   
    41   24   25 1   
    42   24   27 1   
    43   24   45 1   
    44   25   26 1   
    45   25   46 1   
    46   25   47 1   
    47   26   48 1   
    48   27   28 ar  
    49   27   32 ar  
    50   28   29 ar  
    51   28   49 1   
    52   29   30 ar  
    53   29   50 1   
    54   30   31 ar  
    55   30   51 1   
    56   31   32 ar  
    57   31   52 1   
    58   32   53 1   
@<TRIPOS>SUBSTRUCTURE
     1 E86         1 TEMP              0 ****  ****    0 ROOT
