@<TRIPOS>MOLECULE
E86
   54    46     1     0     0
SMALL
bcc


@<TRIPOS>ATOM
      1 C1         -1.0600   -0.4220    2.9430 c3        1 E86     -0.163000
      2 C2          0.3570   -0.0020    2.9860 c2        1 E86     -0.205000
      3 C3          1.0360   -0.0650    4.1400 c2        1 E86     -0.010000
      4 N4          2.4080    0.3210    4.1850 n1        1 E86     -0.193000
      5 C5          3.0830    0.7890    2.9630 c1        1 E86      0.141000
      6 N6          4.3960    1.1100    2.9900 n3        1 E86     -0.225000
      7 C7          5.1100    1.3490    4.3390 c2        1 E86      0.048000
      8 C8          5.1700    2.7140    4.9190 c1        1 E86     -0.151000
      9 C9          5.7730    2.9180    6.1300 c1        1 E86     -0.125500
     10 C10         6.3460    1.8190    6.8370 c1        1 E86     -0.125500
     11 C11         6.2880    0.4720    6.2680 c1        1 E86     -0.122000
     12 C12         5.6770    0.2640    5.0410 c2        1 E86     -0.032000
     13 CL13        5.5890   -1.3010    4.3910 cl        1 E86      0.011000
     14 N14         2.4150    0.8540    1.8160 n1        1 E86     -0.229000
     15 C15         1.0280    0.4640    1.7680 c1        1 E86      0.133000
     16 C16         0.3200    0.4910    0.5130 c1        1 E86     -0.110000
     17 C17        -0.4240    1.4780    0.0650 c1        1 E86     -0.107500
     18 N18        -0.8890    1.1210   -1.2070 n2        1 E86     -0.161000
     19 C20        -0.4090   -0.0810   -1.4950 c1        1 E86     -0.107500
     20 C21         0.3450   -0.4940   -0.4400 c1        1 E86     -0.110000
     21 C22        -0.7470   -0.9270   -2.7450 c1        1 E86      0.369000
     22 O23        -0.1060   -2.0240   -2.9700 o         1 E86     -0.340000
     23 N24        -1.6710   -0.4080   -3.7370 n3        1 E86     -0.367000
     24 C25        -2.2590   -1.2570   -4.5830 c3        1 E86      0.042000
     25 C27        -1.9940   -0.7770   -6.0450 c3        1 E86     -0.022000
     26 O28        -2.5400   -1.7700   -7.0090 oh        1 E86     -0.322000
     27 C29        -3.7820   -1.2750   -4.3130 c2        1 E86     -0.098000
     28 C30        -4.4440   -2.4800   -4.1030 c2        1 E86     -0.099000
     29 C31        -5.7220   -2.4800   -3.7740 c1        1 E86     -0.129000
     30 C32        -6.4160   -1.2670   -3.6360 c1        1 E86     -0.125500
     31 C33        -5.7490   -0.0580   -3.8480 c1        1 E86     -0.125500
     32 C34        -4.4770   -0.0570   -4.1750 c1        1 E86     -0.133000
     33 H1         -1.3100   -0.7880    3.7870 hc        1 E86      0.086333
     34 H1A        -1.1740   -1.0600    2.2880 hc        1 E86      0.086333
     35 H1B        -1.5640    0.2730    2.7660 hc        1 E86      0.086333
     36 H3          0.6240   -0.3510    4.8880 h4        1 E86      0.164000
     37 HN6         4.8580    1.2540    2.1820 hn        1 E86      0.229000
     38 H8          4.7930    3.4440    4.4530 ha        1 E86      0.135000
     39 H9          5.8120    3.8260    6.5150 ha        1 E86      0.134500
     40 H10         6.7430    1.9540    7.6360 ha        1 E86      0.134500
     41 H11         6.6840   -0.2830    6.7550 ha        1 E86      0.148000
     42 H17        -0.6240    2.3550    0.5630 DU        1 E86      0.204333
     43 H21         0.8580   -1.4010   -0.3660 DU        1 E86      0.204333
     44 HN24       -1.6620    0.4610   -3.9300 hn        1 E86      0.208000
     45 H25        -1.9370   -2.0280   -4.4770 h1        1 E86      0.157000
     46 H27        -2.4450    0.1160   -6.1950 h1        1 E86      0.069000
     47 H27A       -0.9520   -0.6710   -6.1960 h1        1 E86      0.069000
     48 HO28       -2.2340   -1.5790   -7.8490 ho        1 E86      0.202000
     49 H30        -3.9650   -3.3330   -4.2010 ha        1 E86      0.146000
     50 H31        -6.1320   -3.2170   -3.6410 ha        1 E86      0.135000
     51 H32        -7.3950   -1.2690   -3.3830 ha        1 E86      0.134500
     52 H33        -6.2420    0.8190   -3.7510 ha        1 E86      0.134500
     53 H34        -3.9790    0.8450   -4.3350 ha        1 E86      0.122000
     54 HN18       -1.4100    1.6140   -1.7240 DU        1 E86      0.204333
@<TRIPOS>BOND
     1    1    2 1   
     2    1   33 1   
     3    1   34 1   
     4    1   35 1   
     5    2    3 1   
     6    2   15 1   
     7    3    4 1   
     8    3   36 1   
     9    5    6 1   
    10    5   14 1   
    11    6    7 1   
    12    6   37 1   
    13    7    8 1   
    14    7   12 1   
    15    8   38 1   
    16    9   10 1   
    17    9   39 1   
    18   10   40 1   
    19   11   12 1   
    20   11   41 1   
    21   12   13 1   
    22   16   17 1   
    23   16   20 1   
    24   17   18 1   
    25   18   19 1   
    26   19   20 1   
    27   21   22 1   
    28   21   23 1   
    29   23   24 1   
    30   23   44 1   
    31   24   25 1   
    32   24   27 1   
    33   24   45 1   
    34   25   26 1   
    35   25   46 1   
    36   25   47 1   
    37   26   48 1   
    38   27   28 1   
    39   27   32 1   
    40   28   29 1   
    41   28   49 1   
    42   29   50 1   
    43   30   31 1   
    44   30   51 1   
    45   31   52 1   
    46   32   53 1   
@<TRIPOS>SUBSTRUCTURE
     1 E86         1 TEMP              0 ****  ****    0 ROOT
