@<TRIPOS>MOLECULE
E86
   56    59     1     0     0
SMALL
bcc


@<TRIPOS>ATOM
      1 C1         -0.2830    0.8400    0.3580 c3        1 E86     -0.073800
      2 C2          1.0040    0.1250    0.4040 ca        1 E86     -0.228900
      3 C3          1.6130   -0.1310    1.6600 ca        1 E86      0.458200
      4 N4          2.7750   -0.7870    1.7980 nb        1 E86     -0.653000
      5 C5          3.3480   -1.2110    0.6220 ca        1 E86      0.708900
      6 N6          4.6490   -1.9460    0.7510 n4        1 E86     -0.603100
      7 C7          5.7460   -1.0520    1.1360 ca        1 E86     -0.064400
      8 C8          5.9070   -0.6940    2.4860 ca        1 E86     -0.074000
      9 C9          6.9730    0.1240    2.8530 ca        1 E86     -0.105000
     10 C10         7.8720    0.5890    1.8920 ca        1 E86     -0.056000
     11 C11         7.7130    0.2400    0.5500 ca        1 E86     -0.100000
     12 C12         6.6500   -0.5780    0.1600 ca        1 E86      0.033400
     13 CL13        6.4720   -1.0070   -1.4700 cl        1 E86     -0.044400
     14 N14         2.8680   -1.0310   -0.6430 nb        1 E86     -0.675000
     15 C15         1.6870   -0.3500   -0.7480 ca        1 E86      0.544800
     16 C16         1.1620   -0.1460   -2.0860 cc        1 E86     -0.272500
     17 C17         1.2840   -1.0640   -3.1690 cd        1 E86      0.001700
     18 N18         0.6940   -0.5290   -4.2850 na        1 E86     -0.139100
     19 C20         0.1710    0.7360   -3.9500 cd        1 E86     -0.274900
     20 C21         0.4610    0.9900   -2.5820 cc        1 E86     -0.003000
     21 C22        -0.5340    1.6700   -4.7920 c         1 E86      0.591700
     22 O23        -1.1410    2.6660   -4.4110 o         1 E86     -0.433100
     23 N24        -0.5100    1.4710   -6.2870 n4        1 E86     -0.672800
     24 C25        -1.8050    0.8850   -6.8200 c3        1 E86      0.167800
     25 C27        -1.8780   -0.6380   -6.5730 c3        1 E86      0.112400
     26 O28        -0.6410   -1.2550   -6.8690 oh        1 E86     -0.651800
     27 C29        -1.9490    1.2310   -8.2700 ca        1 E86     -0.198300
     28 C30        -1.0340    0.7540   -9.2190 ca        1 E86     -0.108500
     29 C31        -1.1990    1.0700  -10.5650 ca        1 E86     -0.110500
     30 C32        -2.2780    1.8610  -10.9710 ca        1 E86     -0.072000
     31 C33        -3.1880    2.3370  -10.0280 ca        1 E86     -0.110500
     32 C34        -3.0240    2.0300   -8.6770 ca        1 E86     -0.108500
     33 H1         -0.8510    0.7020    1.3150 hc        1 E86      0.077033
     34 H1A        -0.9210    0.4700   -0.4830 hc        1 E86      0.077033
     35 H1B        -0.1100    1.9400    0.2190 hc        1 E86      0.077033
     36 H3          1.1380    0.2060    2.6070 h4        1 E86      0.077100
     37 HN6         4.5390   -2.6700    1.4780 hn        1 E86      0.481800
     38 H8          5.2020   -1.0480    3.2580 ha        1 E86      0.174000
     39 H9          7.1030    0.4010    3.9140 ha        1 E86      0.180000
     40 H10         8.7160    1.2350    2.1920 ha        1 E86      0.181000
     41 H11         8.4290    0.6070   -0.2060 ha        1 E86      0.186000
     42 H17         1.7590   -2.0530   -3.1810 h4        1 E86      0.210000
     43 H21         0.1990    1.9040   -2.0460 ha        1 E86      0.196000
     44 HN24       -0.3840    2.3930   -6.7330 hn        1 E86      0.466800
     45 H25        -2.6430    1.3720   -6.2290 hx        1 E86      0.124700
     46 H27        -2.7220   -1.0510   -7.1850 h1        1 E86      0.093200
     47 H27A       -2.0690   -0.8410   -5.4820 h1        1 E86      0.093200
     48 HO28       -0.7160   -1.7080   -7.7200 ho        1 E86      0.456000
     49 H30        -0.1890    0.1220   -8.9080 ha        1 E86      0.136500
     50 H31        -0.4810    0.6940  -11.3110 ha        1 E86      0.166000
     51 H32        -2.4090    2.1060  -12.0390 ha        1 E86      0.170000
     52 H33        -4.0410    2.9590  -10.3470 ha        1 E86      0.166000
     53 H34        -3.7490    2.4120   -7.9400 ha        1 E86      0.136500
     54 HN18        0.5580   -1.0060   -5.1480 hn        1 E86      0.340700
     55 H62         4.8770   -2.3970   -0.1520 hn        1 E86      0.481800
     56 H242        0.2620    0.8620   -6.5750 hn        1 E86      0.466800
@<TRIPOS>BOND
     1    1    2 1   
     2    1   33 1   
     3    1   34 1   
     4    1   35 1   
     5    2    3 ar  
     6    2   15 ar  
     7    3    4 ar  
     8    3   36 1   
     9    4    5 ar  
    10    5    6 1   
    11    5   14 ar  
    12    6    7 1   
    13    6   37 1   
    14    6   55 1   
    15    7    8 ar  
    16    7   12 ar  
    17    8    9 ar  
    18    8   38 1   
    19    9   10 ar  
    20    9   39 1   
    21   10   11 ar  
    22   10   40 1   
    23   11   12 ar  
    24   11   41 1   
    25   12   13 1   
    26   14   15 ar  
    27   15   16 1   
    28   16   17 2   
    29   16   20 1   
    30   17   18 1   
    31   17   42 1   
    32   18   19 1   
    33   18   54 1   
    34   19   20 2   
    35   19   21 1   
    36   20   43 1   
    37   21   22 2   
    38   21   23 1   
    39   23   24 1   
    40   23   44 1   
    41   23   56 1   
    42   24   25 1   
    43   24   27 1   
    44   24   45 1   
    45   25   26 1   
    46   25   46 1   
    47   25   47 1   
    48   26   48 1   
    49   27   28 ar  
    50   27   32 ar  
    51   28   29 ar  
    52   28   49 1   
    53   29   30 ar  
    54   29   50 1   
    55   30   31 ar  
    56   30   51 1   
    57   31   32 ar  
    58   31   52 1   
    59   32   53 1   
@<TRIPOS>SUBSTRUCTURE
     1 E86         1 TEMP              0 ****  ****    0 ROOT
