@<TRIPOS>MOLECULE
E86
   55    58     1     0     0
SMALL
bcc


@<TRIPOS>ATOM
      1 C1         -0.1750    0.4120    0.3590 c3        1 E86     -0.040800
      2 C2          1.2700    0.1470    0.2540 ca        1 E86     -0.342900
      3 C3          2.0780    0.1680    1.4220 ca        1 E86      0.471200
      4 N4          3.3870   -0.0770    1.4340 nb        1 E86     -0.706000
      5 C5          3.9690   -0.3800    0.2010 ca        1 E86      0.880900
      6 N6          5.3250   -0.7530    0.1520 nh        1 E86     -0.698300
      7 C7          6.2110   -0.4320    1.2100 ca        1 E86      0.118600
      8 C8          6.0530   -1.0160    2.4820 ca        1 E86     -0.092000
      9 C9          6.9690   -0.7520    3.4970 ca        1 E86     -0.118000
     10 C10         8.0590    0.0850    3.2690 ca        1 E86     -0.118000
     11 C11         8.2380    0.6690    2.0170 ca        1 E86     -0.110000
     12 C12         7.3210    0.4210    0.9940 ca        1 E86     -0.012600
     13 CL13        7.5680    1.1560   -0.5230 cl        1 E86     -0.097400
     14 N14         3.2770   -0.4060   -0.9980 nb        1 E86     -0.766000
     15 C15         1.9440   -0.1440   -0.9510 ca        1 E86      0.534800
     16 C16         1.2430   -0.1880   -2.2290 cc        1 E86     -0.221500
     17 C17         1.6070   -1.0380   -3.3120 cd        1 E86      0.009700
     18 N18         0.7750   -0.7970   -4.3780 na        1 E86     -0.167100
     19 C20        -0.1500    0.2030   -4.0050 cd        1 E86     -0.308900
     20 C21         0.1420    0.5930   -2.6630 cc        1 E86      0.009000
     21 C22        -1.1960    0.7860   -4.7880 c         1 E86      0.598700
     22 O23        -2.0440    1.5910   -4.4130 o         1 E86     -0.457100
     23 N24        -1.2470    0.3810   -6.2510 n4        1 E86     -0.676800
     24 C25        -2.3790    1.0070   -7.0340 c3        1 E86      0.155800
     25 C27        -3.6840    0.1980   -6.8400 c3        1 E86      0.115400
     26 O28        -3.4460   -1.1800   -7.0270 oh        1 E86     -0.615800
     27 C29        -1.9920    1.1330   -8.4760 ca        1 E86     -0.181300
     28 C30        -1.6740    0.0020   -9.2400 ca        1 E86     -0.113500
     29 C31        -1.3390    0.1400  -10.5840 ca        1 E86     -0.114500
     30 C32        -1.3220    1.4060  -11.1750 ca        1 E86     -0.085000
     31 C33        -1.6380    2.5330  -10.4170 ca        1 E86     -0.114500
     32 C34        -1.9690    2.4010   -9.0680 ca        1 E86     -0.113500
     33 H1         -0.7530   -0.2110   -0.3680 hc        1 E86      0.048033
     34 H1A        -0.3920    1.4920    0.1550 hc        1 E86      0.048033
     35 H1B        -0.5460    0.1770    1.3890 hc        1 E86      0.048033
     36 H3          1.6270    0.4010    2.4070 h4        1 E86      0.040100
     37 HN6         5.7390   -0.7190   -0.7600 hn        1 E86      0.446800
     38 H8          5.2000   -1.6850    2.6820 ha        1 E86      0.156000
     39 H9          6.8280   -1.2140    4.4860 ha        1 E86      0.145000
     40 H10         8.7810    0.2870    4.0750 ha        1 E86      0.147000
     41 H11         9.1000    1.3300    1.8330 ha        1 E86      0.155000
     42 H17         2.4180   -1.7770   -3.3540 h4        1 E86      0.216000
     43 H21        -0.3910    1.3670   -2.1080 ha        1 E86      0.195000
     44 HN24       -1.3670   -0.6400   -6.3090 hn        1 E86      0.458800
     45 H25        -2.5570    2.0390   -6.5960 hx        1 E86      0.130700
     46 H27        -4.4560    0.6050   -7.5430 h1        1 E86      0.093200
     47 H27A       -4.0390    0.3090   -5.7770 h1        1 E86      0.093200
     48 HO28       -3.7510   -1.4240   -7.9110 ho        1 E86      0.435000
     49 H30        -1.7030   -1.0010   -8.7850 ha        1 E86      0.139500
     50 H31        -1.0920   -0.7510  -11.1840 ha        1 E86      0.159000
     51 H32        -1.0610    1.5120  -12.2410 ha        1 E86      0.161000
     52 H33        -1.6290    3.5320  -10.8820 ha        1 E86      0.159000
     53 H34        -2.2190    3.2970   -8.4780 ha        1 E86      0.139500
     54 HN18        0.7690   -1.3070   -5.2230 hn        1 E86      0.301700
     55 H242       -0.3600    0.6380   -6.6960 hn        1 E86      0.458800
@<TRIPOS>BOND
     1    1    2 1   
     2    1   33 1   
     3    1   34 1   
     4    1   35 1   
     5    2    3 ar  
     6    2   15 ar  
     7    3    4 ar  
     8    3   36 1   
     9    4    5 ar  
    10    5    6 1   
    11    5   14 ar  
    12    6    7 1   
    13    6   37 1   
    14    7    8 ar  
    15    7   12 ar  
    16    8    9 ar  
    17    8   38 1   
    18    9   10 ar  
    19    9   39 1   
    20   10   11 ar  
    21   10   40 1   
    22   11   12 ar  
    23   11   41 1   
    24   12   13 1   
    25   14   15 ar  
    26   15   16 1   
    27   16   17 2   
    28   16   20 1   
    29   17   18 1   
    30   17   42 1   
    31   18   19 1   
    32   18   54 1   
    33   19   20 2   
    34   19   21 1   
    35   20   43 1   
    36   21   22 2   
    37   21   23 1   
    38   23   24 1   
    39   23   44 1   
    40   23   55 1   
    41   24   25 1   
    42   24   27 1   
    43   24   45 1   
    44   25   26 1   
    45   25   46 1   
    46   25   47 1   
    47   26   48 1   
    48   27   28 ar  
    49   27   32 ar  
    50   28   29 ar  
    51   28   49 1   
    52   29   30 ar  
    53   29   50 1   
    54   30   31 ar  
    55   30   51 1   
    56   31   32 ar  
    57   31   52 1   
    58   32   53 1   
@<TRIPOS>SUBSTRUCTURE
     1 E86         1 TEMP              0 ****  ****    0 ROOT
