@<TRIPOS>MOLECULE
E89
   42    45     1     0     0
SMALL
bcc


@<TRIPOS>ATOM
      1 C2         -0.9620   -0.1910   -3.9570 ca        1 E89     -0.064000
      2 C3          0.3060   -0.0610   -3.3900 ca        1 E89     -0.180600
      3 C7          1.4800   -0.2010   -4.2710 c         1 E89      0.717100
      4 O24         1.4290   -0.4310   -5.4940 o         1 E89     -0.628500
      5 N8          2.7410   -0.0520   -3.6780 n         1 E89     -0.504400
      6 C9          2.8520    0.1700   -2.2840 cc        1 E89      0.650800
      7 N25         4.1660    0.1690   -1.7410 nh        1 E89     -0.879800
      8 N10         1.8020    0.3210   -1.4740 nd        1 E89     -0.670100
      9 C4          0.5120    0.1940   -1.9980 ca        1 E89      0.183400
     10 C5         -0.6000    0.3320   -1.1250 ca        1 E89     -0.015300
     11 C14        -0.4410    0.6040    0.3290 c3        1 E89     -0.022100
     12 C15        -0.2310   -0.6850    1.1120 c3        1 E89     -0.027100
     13 C16        -0.1590   -0.4250    2.5750 ca        1 E89     -0.108300
     14 C21        -1.3160   -0.0650    3.2830 ca        1 E89     -0.095500
     15 C20        -1.2700    0.1690    4.6510 ca        1 E89     -0.179500
     16 C19        -0.0430    0.0400    5.3290 ca        1 E89      0.117100
     17 O22        -0.1020    0.2930    6.6870 os        1 E89     -0.328900
     18 C23         1.1210    0.1630    7.4010 c3        1 E89      0.114700
     19 C18         1.1190   -0.3190    4.6380 ca        1 E89     -0.179500
     20 C17         1.0500   -0.5480    3.2630 ca        1 E89     -0.095500
     21 C6         -1.8770    0.2020   -1.6820 ca        1 E89      0.104400
     22 N13        -3.1540    0.2830   -1.0760 nc        1 E89     -0.577100
     23 C12        -4.0350    0.0840   -2.0670 cd        1 E89      0.441700
     24 N11        -3.4350   -0.1290   -3.3190 na        1 E89     -0.294300
     25 C1         -2.0510   -0.0600   -3.1060 ca        1 E89     -0.096200
     26 H2         -1.0690   -0.3900   -5.0340 ha        1 E89      0.163000
     27 HN8         3.5500   -0.2140   -4.2350 hn        1 E89      0.336500
     28 H251        4.1920    0.3910   -0.7670 hn        1 E89      0.408800
     29 H252        4.8240    0.6970   -2.2740 hn        1 E89      0.408800
     30 H141       -1.3550    1.1260    0.7220 hc        1 E89      0.065200
     31 H142        0.4270    1.2930    0.5060 hc        1 E89      0.065200
     32 H151        0.7100   -1.1840    0.7600 hc        1 E89      0.054200
     33 H152       -1.0840   -1.3860    0.9030 hc        1 E89      0.054200
     34 H21        -2.2710    0.0330    2.7440 ha        1 E89      0.136500
     35 H20        -2.1710    0.4510    5.2130 ha        1 E89      0.140000
     36 H231        0.8350    0.4060    8.4560 h1        1 E89      0.042367
     37 H232        1.5120   -0.8810    7.3300 h1        1 E89      0.042367
     38 H233        1.8800    0.8900    7.0220 h1        1 E89      0.042367
     39 H18         2.0800   -0.4220    5.1590 ha        1 E89      0.140000
     40 H17         1.9630   -0.8300    2.7180 ha        1 E89      0.136500
     41 H12        -5.1270    0.0820   -1.9450 h5        1 E89      0.070800
     42 H11        -3.8830   -0.2980   -4.1780 hn        1 E89      0.310700
@<TRIPOS>BOND
     1    1    2 ar  
     2    1   25 ar  
     3    1   26 1   
     4    2    3 1   
     5    2    9 ar  
     6    3    4 2   
     7    3    5 1   
     8    5    6 1   
     9    5   27 1   
    10    6    7 1   
    11    6    8 2   
    12    7   28 1   
    13    7   29 1   
    14    8    9 1   
    15    9   10 ar  
    16   10   11 1   
    17   10   21 ar  
    18   11   12 1   
    19   11   30 1   
    20   11   31 1   
    21   12   13 1   
    22   12   32 1   
    23   12   33 1   
    24   13   14 ar  
    25   13   20 ar  
    26   14   15 ar  
    27   14   34 1   
    28   15   16 ar  
    29   15   35 1   
    30   16   17 1   
    31   16   19 ar  
    32   17   18 1   
    33   18   36 1   
    34   18   37 1   
    35   18   38 1   
    36   19   20 ar  
    37   19   39 1   
    38   20   40 1   
    39   21   22 1   
    40   21   25 ar  
    41   22   23 2   
    42   23   24 1   
    43   23   41 1   
    44   24   25 1   
    45   24   42 1   
@<TRIPOS>SUBSTRUCTURE
     1 E89         1 TEMP              0 ****  ****    0 ROOT
