@<TRIPOS>MOLECULE
E89
   42    45     1     0     0
SMALL
bcc


@<TRIPOS>ATOM
      1 C2         -0.1220    0.0470    0.0510 ca        1 E89     -0.063000
      2 C3          1.2720    0.0160    0.0750 ca        1 E89     -0.180600
      3 C7          1.9450   -0.0120    1.3870 c         1 E89      0.717100
      4 O24         1.3610   -0.0120    2.4870 o         1 E89     -0.628500
      5 N8          3.3470   -0.0290    1.3820 ns        1 E89     -0.504400
      6 C9          4.0550   -0.0690    0.1570 cc        1 E89      0.651800
      7 N25         5.4650   -0.2300    0.2420 nv        1 E89     -0.880800
      8 N10         3.4660   -0.0160   -1.0400 nd        1 E89     -0.670100
      9 C4          2.0700    0.0030   -1.1120 ca        1 E89      0.183400
     10 C5          1.4490    0.0160   -2.3890 ca        1 E89     -0.015300
     11 C14         2.2300   -0.0110   -3.6550 c3        1 E89     -0.023100
     12 C15         2.6540    1.3900   -4.0740 c3        1 E89     -0.026100
     13 C16         3.3410    1.3770   -5.3940 ca        1 E89     -0.108300
     14 C21         2.6030    1.1640   -6.5670 ca        1 E89     -0.095500
     15 C20         3.2240    1.1610   -7.8090 ca        1 E89     -0.179000
     16 C19         4.6140    1.3740   -7.8820 ca        1 E89      0.117100
     17 O22         5.1370    1.3540   -9.1620 os        1 E89     -0.328900
     18 C23         6.5400    1.5590   -9.2670 c3        1 E89      0.114700
     19 C18         5.3640    1.5870   -6.7210 ca        1 E89     -0.179000
     20 C17         4.7190    1.5860   -5.4840 ca        1 E89     -0.095500
     21 C6          0.0500    0.0540   -2.4270 ca        1 E89      0.104400
     22 N13        -0.8370    0.0810   -3.5290 nc        1 E89     -0.577100
     23 C12        -2.0690    0.1080   -2.9990 cd        1 E89      0.441700
     24 N11        -2.0760    0.1040   -1.5940 na        1 E89     -0.294300
     25 C1         -0.7320    0.0680   -1.1960 ca        1 E89     -0.096200
     26 H2         -0.6920    0.0550    0.9920 ha        1 E89      0.163000
     27 HN8         3.8240   -0.1260    2.2500 hn        1 E89      0.336500
     28 H251        5.8990    0.3650    0.9150 hn        1 E89      0.408800
     29 H252        5.9210   -0.2040   -0.6470 hn        1 E89      0.408800
     30 H141        1.6110   -0.4660   -4.4760 hc        1 E89      0.066200
     31 H142        3.1410   -0.6570   -3.5380 hc        1 E89      0.066200
     32 H151        3.3300    1.8230   -3.2890 hc        1 E89      0.052700
     33 H152        1.7450    2.0470   -4.1370 hc        1 E89      0.052700
     34 H21         1.5160    0.9980   -6.4990 ha        1 E89      0.136000
     35 H20         2.6530    0.9950   -8.7330 ha        1 E89      0.140000
     36 H231        6.7310    1.4980  -10.3690 h1        1 E89      0.042367
     37 H232        6.8230    2.5660   -8.8740 h1        1 E89      0.042367
     38 H233        7.0990    0.7580   -8.7260 h1        1 E89      0.042367
     39 H18         6.4480    1.7550   -6.7680 ha        1 E89      0.140000
     40 H17         5.3080    1.7530   -4.5690 ha        1 E89      0.136000
     41 H12        -3.0010    0.1350   -3.5790 h5        1 E89      0.070800
     42 H11        -2.8580    0.1130   -0.9990 hn        1 E89      0.310700
@<TRIPOS>BOND
     1    1    2 ar  
     2    1   25 ar  
     3    1   26 1   
     4    2    3 1   
     5    2    9 ar  
     6    3    4 2   
     7    3    5 1   
     8    5    6 1   
     9    5   27 1   
    10    6    7 1   
    11    6    8 2   
    12    7   28 1   
    13    7   29 1   
    14    8    9 1   
    15    9   10 ar  
    16   10   11 1   
    17   10   21 ar  
    18   11   12 1   
    19   11   30 1   
    20   11   31 1   
    21   12   13 1   
    22   12   32 1   
    23   12   33 1   
    24   13   14 ar  
    25   13   20 ar  
    26   14   15 ar  
    27   14   34 1   
    28   15   16 ar  
    29   15   35 1   
    30   16   17 1   
    31   16   19 ar  
    32   17   18 1   
    33   18   36 1   
    34   18   37 1   
    35   18   38 1   
    36   19   20 ar  
    37   19   39 1   
    38   20   40 1   
    39   21   22 1   
    40   21   25 ar  
    41   22   23 2   
    42   23   24 1   
    43   23   41 1   
    44   24   25 1   
    45   24   42 1   
@<TRIPOS>SUBSTRUCTURE
     1 E89         1 TEMP              0 ****  ****    0 ROOT
