@<TRIPOS>MOLECULE
E89
   43    46     1     0     0
SMALL
bcc


@<TRIPOS>ATOM
      1 C2         -0.0920    0.1270    0.0680 ca        1 E89     -0.053000
      2 C3          1.2910    0.0170    0.0810 ca        1 E89     -0.142600
      3 C7          1.9660   -0.0510    1.3930 c         1 E89      0.726100
      4 O24         1.4180   -0.0190    2.4990 o         1 E89     -0.552500
      5 N8          3.3820   -0.1640    1.3810 n         1 E89     -0.513400
      6 C9          4.0300   -0.2040    0.1390 cc        1 E89      0.485800
      7 N25         5.5260   -0.3290    0.1520 n4        1 E89     -0.795600
      8 N10         3.4680   -0.1420   -1.0500 nd        1 E89     -0.525100
      9 C4          2.0740   -0.0300   -1.1230 ca        1 E89      0.091400
     10 C5          1.4590    0.0310   -2.3970 ca        1 E89      0.072700
     11 C14         2.2200   -0.0130   -3.6750 c3        1 E89     -0.046100
     12 C15         2.5180    1.3910   -4.1860 c3        1 E89     -0.018100
     13 C16         3.2760    1.3490   -5.4660 ca        1 E89     -0.132300
     14 C21         2.6750    0.8260   -6.6210 ca        1 E89     -0.093500
     15 C20         3.3600    0.7970   -7.8270 ca        1 E89     -0.177000
     16 C19         4.6730    1.3050   -7.8860 ca        1 E89      0.136100
     17 O22         5.2700    1.2230   -9.1260 os        1 E89     -0.319900
     18 C23         6.5620    1.8090   -9.2470 c3        1 E89      0.111700
     19 C18         5.2820    1.8360   -6.7430 ca        1 E89     -0.177000
     20 C17         4.5760    1.8530   -5.5410 ca        1 E89     -0.093500
     21 C6          0.0590    0.1430   -2.4190 ca        1 E89      0.081400
     22 N13        -0.8260    0.2250   -3.5140 nc        1 E89     -0.550100
     23 C12        -2.0530    0.3160   -2.9780 cd        1 E89      0.460700
     24 N11        -2.0480    0.3010   -1.5690 na        1 E89     -0.266300
     25 C1         -0.7130    0.1910   -1.1830 ca        1 E89     -0.057200
     26 H2         -0.6630    0.1620    1.0100 ha        1 E89      0.182000
     27 HN8         3.8680   -0.2130    2.2480 hn        1 E89      0.348500
     28 H251        5.9330    0.4730    0.6450 hn        1 E89      0.477800
     29 H252        5.7920   -1.2020    0.6230 hn        1 E89      0.477800
     30 H141        1.6140   -0.5610   -4.4490 hc        1 E89      0.075700
     31 H142        3.1790   -0.5810   -3.5570 hc        1 E89      0.075700
     32 H151        1.5500    1.9380   -4.3470 hc        1 E89      0.052200
     33 H152        3.0990    1.9560   -3.4100 hc        1 E89      0.052200
     34 H21         1.6440    0.4420   -6.5720 ha        1 E89      0.130000
     35 H20         2.8970    0.3910   -8.7380 ha        1 E89      0.149000
     36 H231        6.8120    1.6600  -10.3290 h1        1 E89      0.048367
     37 H232        6.5280    2.8970   -8.9950 h1        1 E89      0.048367
     38 H233        7.2960    1.2770   -8.5960 h1        1 E89      0.048367
     39 H18         6.3010    2.2440   -6.7830 ha        1 E89      0.149000
     40 H17         5.0520    2.2810   -4.6460 ha        1 E89      0.130000
     41 H12        -2.9890    0.3960   -3.5520 h5        1 E89      0.095800
     42 H11        -2.8290    0.3550   -0.9680 hn        1 E89      0.328700
     43 H253        5.8790   -0.3460   -0.8170 hn        1 E89      0.477800
@<TRIPOS>BOND
     1    1    2 ar  
     2    1   25 ar  
     3    1   26 1   
     4    2    3 1   
     5    2    9 ar  
     6    3    4 2   
     7    3    5 1   
     8    5    6 1   
     9    5   27 1   
    10    6    7 1   
    11    6    8 2   
    12    7   28 1   
    13    7   29 1   
    14    7   43 1   
    15    8    9 1   
    16    9   10 ar  
    17   10   11 1   
    18   10   21 ar  
    19   11   12 1   
    20   11   30 1   
    21   11   31 1   
    22   12   13 1   
    23   12   32 1   
    24   12   33 1   
    25   13   14 ar  
    26   13   20 ar  
    27   14   15 ar  
    28   14   34 1   
    29   15   16 ar  
    30   15   35 1   
    31   16   17 1   
    32   16   19 ar  
    33   17   18 1   
    34   18   36 1   
    35   18   37 1   
    36   18   38 1   
    37   19   20 ar  
    38   19   39 1   
    39   20   40 1   
    40   21   22 1   
    41   21   25 ar  
    42   22   23 2   
    43   23   24 1   
    44   23   41 1   
    45   24   25 1   
    46   24   42 1   
@<TRIPOS>SUBSTRUCTURE
     1 E89         1 TEMP              0 ****  ****    0 ROOT
