@<TRIPOS>MOLECULE
E8U
   21    20     1     0     0
SMALL
bcc


@<TRIPOS>ATOM
      1 OAC        -0.0210   -0.3920   -0.1380 oh        1 E8U     -0.624800
      2 CAM         1.3690   -0.1050    0.0000 c3        1 E8U      0.148100
      3 CAF         1.6520    0.0500    1.4940 c3        1 E8U     -0.058400
      4 CAK         1.6960   -1.2790    2.2090 c3        1 E8U     -0.182400
      5 CAI         2.1100   -1.1530    3.6810 c         1 E8U      0.904600
      6 OAD         2.9630   -0.2800    4.0200 o         1 E8U     -0.868300
      7 OAA         1.5950   -1.9630    4.5110 o         1 E8U     -0.868300
      8 CAG         1.7390    1.1570   -0.7760 c3        1 E8U     -0.226400
      9 CAL         1.5700    1.0500   -2.2660 c         1 E8U      0.476100
     10 CAJ         2.1140    2.2370   -3.0730 c         1 E8U      0.851600
     11 OAE         3.3130    2.1840   -3.4580 o         1 E8U     -0.827300
     12 OAB         1.3270    3.2010   -3.2880 o         1 E8U     -0.827300
     13 O10         1.0150    0.0740   -2.7940 o         1 E8U     -0.618100
     14 HAC        -0.1800   -0.5000   -1.0850 ho        1 E8U      0.406000
     15 HAM         1.9580   -0.9710   -0.4180 h1        1 E8U      0.023700
     16 HAF1        0.8580    0.6940    1.9510 hc        1 E8U      0.047700
     17 HAF2        2.6350    0.5720    1.6300 hc        1 E8U      0.047700
     18 HAG1        2.8100    1.4180   -0.5680 hc        1 E8U      0.073700
     19 HAG2        1.1020    2.0130   -0.4270 hc        1 E8U      0.073700
     20 HAK1        2.4380   -1.9550    1.7100 hc        1 E8U      0.023200
     21 HAK2        0.6940   -1.7740    2.1490 hc        1 E8U      0.023200
@<TRIPOS>BOND
     1    1    2 1   
     2    1   14 1   
     3    2    3 1   
     4    2    8 1   
     5    2   15 1   
     6    3    4 1   
     7    3   16 1   
     8    3   17 1   
     9    4    5 1   
    10    4   20 1   
    11    4   21 1   
    12    5    6 1   
    13    5    7 1   
    14    8    9 1   
    15    8   18 1   
    16    8   19 1   
    17    9   10 1   
    18    9   13 2   
    19   10   11 1   
    20   10   12 1   
@<TRIPOS>SUBSTRUCTURE
     1 E8U         1 TEMP              0 ****  ****    0 ROOT
