@<TRIPOS>MOLECULE
E8U
   21    20     1     0     0
SMALL
bcc


@<TRIPOS>ATOM
      1 OAC         0.2700   -1.3540    1.2740 oh        1 E8U     -0.613800
      2 CAM         0.1580   -0.5390    0.1100 c3        1 E8U      0.133100
      3 CAF         1.4160    0.3030   -0.0960 c3        1 E8U     -0.096400
      4 CAK         2.6640   -0.5380   -0.2080 c3        1 E8U     -0.187400
      5 CAI         3.9460    0.2830   -0.0130 c         1 E8U      0.904600
      6 OAD         4.0260    1.0760    0.9720 o         1 E8U     -0.866300
      7 OAA         4.8960    0.1100   -0.8350 o         1 E8U     -0.866300
      8 CAG        -1.0870    0.3420    0.2070 c3        1 E8U     -0.217400
      9 CAL        -2.3130   -0.1920   -0.4840 c         1 E8U      0.479100
     10 CAJ        -3.5930    0.6030   -0.1910 c         1 E8U      0.846600
     11 OAE        -3.8800    1.5550   -0.9690 o         1 E8U     -0.831800
     12 OAB        -4.2720    0.2760    0.8220 o         1 E8U     -0.831800
     13 O10        -2.2840   -1.1730   -1.2390 o         1 E8U     -0.597100
     14 HAC         0.6240   -0.7930    1.9740 ho        1 E8U      0.388000
     15 HAM         0.0370   -1.2840   -0.7270 h1        1 E8U      0.080700
     16 HAF1        1.2880    0.9170   -1.0250 hc        1 E8U      0.044700
     17 HAF2        1.5360    1.0150    0.7650 hc        1 E8U      0.044700
     18 HAG1       -1.3530    0.4970    1.2860 hc        1 E8U      0.066200
     19 HAG2       -0.8800    1.3500   -0.2410 hc        1 E8U      0.066200
     20 HAK1        2.6490   -1.3350    0.5800 hc        1 E8U      0.026200
     21 HAK2        2.6980   -1.0460   -1.2050 hc        1 E8U      0.026200
@<TRIPOS>BOND
     1    1    2 1   
     2    1   14 1   
     3    2    3 1   
     4    2    8 1   
     5    2   15 1   
     6    3    4 1   
     7    3   16 1   
     8    3   17 1   
     9    4    5 1   
    10    4   20 1   
    11    4   21 1   
    12    5    6 1   
    13    5    7 1   
    14    8    9 1   
    15    8   18 1   
    16    8   19 1   
    17    9   10 1   
    18    9   13 2   
    19   10   11 1   
    20   10   12 1   
@<TRIPOS>SUBSTRUCTURE
     1 E8U         1 TEMP              0 ****  ****    0 ROOT
