@<TRIPOS>MOLECULE
E8U
   21    20     1     0     0
SMALL
bcc


@<TRIPOS>ATOM
      1 OAC        -1.6360   -0.2080   -0.2340 oh        1 E8U     -0.624800
      2 CAM        -0.2280   -0.2080   -0.2340 c3        1 E8U      0.148100
      3 CAF         0.2760   -0.2080    1.1910 c3        1 E8U     -0.058400
      4 CAK         0.2890   -1.6250    1.7210 c3        1 E8U     -0.182400
      5 CAI         0.7910   -1.6250    3.1490 c         1 E8U      0.904600
      6 OAD         2.0170   -1.7830    3.3850 o         1 E8U     -0.868300
      7 OAA        -0.0180   -1.4660    4.1000 o         1 E8U     -0.868300
      8 CAG         0.2760    1.0260   -0.9470 c3        1 E8U     -0.226400
      9 CAL        -0.1810    0.9980   -2.3890 c         1 E8U      0.476100
     10 CAJ        -0.4990    2.2900   -3.1080 c         1 E8U      0.851600
     11 OAE         0.4260    2.9590   -3.6400 o         1 E8U     -0.827300
     12 OAB        -1.6880    2.6970   -3.1750 o         1 E8U     -0.827300
     13 O10        -0.2910   -0.0640   -2.9700 o         1 E8U     -0.618100
     14 HAC        -1.9320   -0.9810   -0.5560 ho        1 E8U      0.406000
     15 HAM         0.0970   -1.0050   -0.6940 h1        1 E8U      0.023700
     16 HAF1        1.1800    0.1570    1.2160 hc        1 E8U      0.047700
     17 HAF2       -0.3130    0.3410    1.7440 hc        1 E8U      0.047700
     18 HAG1       -0.0800    1.8230   -0.5090 hc        1 E8U      0.073700
     19 HAG2        1.2510    1.0450   -0.9140 hc        1 E8U      0.073700
     20 HAK1       -0.6150   -1.9910    1.6950 hc        1 E8U      0.023200
     21 HAK2        0.8790   -2.1730    1.1690 hc        1 E8U      0.023200
@<TRIPOS>BOND
     1    1    2 1   
     2    1   14 1   
     3    2    3 1   
     4    2    8 1   
     5    2   15 1   
     6    3    4 1   
     7    3   16 1   
     8    3   17 1   
     9    4    5 1   
    10    4   20 1   
    11    4   21 1   
    12    5    6 1   
    13    5    7 1   
    14    8    9 1   
    15    8   18 1   
    16    8   19 1   
    17    9   10 1   
    18    9   13 2   
    19   10   11 1   
    20   10   12 1   
@<TRIPOS>SUBSTRUCTURE
     1 E8U         1 TEMP              0 ****  ****    0 ROOT
