@<TRIPOS>MOLECULE
E8U
   21    20     1     0     0
SMALL
bcc


@<TRIPOS>ATOM
      1 OAC        -0.0110   -0.4090   -0.1500 oh        1 E8U     -0.624800
      2 CAM         1.3740   -0.1060   -0.0040 c3        1 E8U      0.148100
      3 CAF         1.6500    0.0380    1.4920 c3        1 E8U     -0.058400
      4 CAK         1.7060   -1.2970    2.1960 c3        1 E8U     -0.182400
      5 CAI         2.1140   -1.1790    3.6700 c         1 E8U      0.904600
      6 OAD         2.9620   -0.3040    4.0180 o         1 E8U     -0.868300
      7 OAA         1.6000   -1.9970    4.4930 o         1 E8U     -0.868300
      8 CAG         1.7310    1.1680   -0.7660 c3        1 E8U     -0.226400
      9 CAL         1.5690    1.0720   -2.2590 c         1 E8U      0.476100
     10 CAJ         2.1000    2.2740   -3.0530 c         1 E8U      0.851600
     11 OAE         3.3020    2.2400   -3.4330 o         1 E8U     -0.827300
     12 OAB         1.3020    3.2290   -3.2610 o         1 E8U     -0.827300
     13 O10         1.0280    0.0940   -2.7970 o         1 E8U     -0.618100
     14 HAC        -0.1660   -0.5100   -1.0980 ho        1 E8U      0.406000
     15 HAM         1.9750   -0.9610   -0.4270 h1        1 E8U      0.023700
     16 HAF1        2.6270    0.5690    1.6370 hc        1 E8U      0.047700
     17 HAF2        0.8480    0.6700    1.9520 hc        1 E8U      0.047700
     18 HAG1        1.0830    2.0120   -0.4120 hc        1 E8U      0.073700
     19 HAG2        2.7980    1.4400   -0.5530 hc        1 E8U      0.073700
     20 HAK1        0.7090   -1.8010    2.1280 hc        1 E8U      0.023200
     21 HAK2        2.4560   -1.9600    1.6930 hc        1 E8U      0.023200
@<TRIPOS>BOND
     1    1    2 1   
     2    1   14 1   
     3    2    3 1   
     4    2    8 1   
     5    2   15 1   
     6    3    4 1   
     7    3   16 1   
     8    3   17 1   
     9    4    5 1   
    10    4   20 1   
    11    4   21 1   
    12    5    6 1   
    13    5    7 1   
    14    8    9 1   
    15    8   18 1   
    16    8   19 1   
    17    9   10 1   
    18    9   13 2   
    19   10   11 1   
    20   10   12 1   
@<TRIPOS>SUBSTRUCTURE
     1 E8U         1 TEMP              0 ****  ****    0 ROOT
