@<TRIPOS>MOLECULE
E90
   31    32     1     0     0
SMALL
bcc


@<TRIPOS>ATOM
      1 N1         -5.6250    0.4000    0.5070 nb        1 E90     -0.705500
      2 C2         -4.3790   -0.0160    0.0990 ca        1 E90      0.706300
      3 N3         -4.0120   -1.3190   -0.1160 nb        1 E90     -0.705500
      4 C4         -4.9580   -2.2540    0.0940 ca        1 E90      0.445200
      5 C5         -6.2620   -1.9330    0.5100 ca        1 E90     -0.379600
      6 C6         -6.5400   -0.5650    0.7030 ca        1 E90      0.445200
      7 S7         -3.2450    1.2530   -0.1500 ss        1 E90     -0.121400
      8 C8         -1.7570    0.4050   -0.5850 c3        1 E90     -0.165300
      9 C9         -0.6250    1.3700   -0.7720 c         1 E90      0.588700
     10 O10        -0.7750    2.5340   -1.1560 o         1 E90     -0.496100
     11 C11         0.7230    0.8220   -0.4790 ca        1 E90     -0.111600
     12 C12         1.0300   -0.5220   -0.7210 ca        1 E90     -0.115000
     13 C13         2.3080   -1.0010   -0.4450 ca        1 E90     -0.029500
     14 C14         3.2960   -0.1590    0.0760 ca        1 E90     -0.355500
     15 C15         2.9760    1.1800    0.3230 ca        1 E90     -0.029500
     16 C16         1.7040    1.6740    0.0430 ca        1 E90     -0.115000
     17 S17         4.8430   -0.7610    0.4360 sy        1 E90      1.524200
     18 O18         5.3850    0.0180    1.4780 o         1 E90     -0.653800
     19 O19         4.7340   -2.1520    0.6360 o         1 E90     -0.653800
     20 N20         5.6590   -0.4820   -0.9120 n3        1 E90     -1.027700
     21 H4         -4.6490   -3.3010   -0.0820 h4        1 E90      0.031100
     22 H5         -7.0210   -2.7040    0.6760 ha        1 E90      0.157000
     23 H6         -7.5390   -0.2220    1.0300 h4        1 E90      0.031100
     24 H8         -1.4890   -0.3420    0.2060 h1        1 E90      0.105700
     25 H8A        -1.8900   -0.1630   -1.5440 h1        1 E90      0.105700
     26 H12         0.2670   -1.2020   -1.1310 ha        1 E90      0.153500
     27 H13         2.5420   -2.0670   -0.6210 ha        1 E90      0.158500
     28 H15         3.7390    1.8490    0.7600 ha        1 E90      0.158500
     29 H16         1.4610    2.7340    0.2240 ha        1 E90      0.153500
     30 HN20        6.1700    0.3480   -1.0810 hn        1 E90      0.449800
     31 HN2A        5.7290   -1.1310   -1.6550 hn        1 E90      0.449800
@<TRIPOS>BOND
     1    1    2 ar  
     2    1    6 ar  
     3    2    3 ar  
     4    2    7 1   
     5    3    4 ar  
     6    4    5 ar  
     7    4   21 1   
     8    5    6 ar  
     9    5   22 1   
    10    6   23 1   
    11    7    8 1   
    12    8    9 1   
    13    8   24 1   
    14    8   25 1   
    15    9   10 2   
    16    9   11 1   
    17   11   12 ar  
    18   11   16 ar  
    19   12   13 ar  
    20   12   26 1   
    21   13   14 ar  
    22   13   27 1   
    23   14   15 ar  
    24   14   17 1   
    25   15   16 ar  
    26   15   28 1   
    27   16   29 1   
    28   17   18 2   
    29   17   19 2   
    30   17   20 1   
    31   20   30 1   
    32   20   31 1   
@<TRIPOS>SUBSTRUCTURE
     1 E90         1 TEMP              0 ****  ****    0 ROOT
