@<TRIPOS>MOLECULE
E90
   31    26     1     0     0
SMALL
bcc


@<TRIPOS>ATOM
      1 N1         -0.8790    4.4200    1.7730 n1        1 E90     -0.154000
      2 C2         -0.6940    3.3650    2.5370 c1        1 E90     -0.143000
      3 N3         -0.0030    3.4920    3.7520 n1        1 E90     -0.179000
      4 C4          0.4750    4.7050    4.1380 c1        1 E90     -0.130000
      5 C5          0.2850    5.7710    3.3600 c1        1 E90     -0.130000
      6 C6         -0.3990    5.6410    2.1590 c1        1 E90     -0.026000
      7 S7         -1.4000    1.7520    2.0470 ss        1 E90      0.337000
      8 C8         -0.2090    0.8390    1.1240 c3        1 E90     -0.367000
      9 C9         -0.4570   -0.6480    1.3000 c2        1 E90      0.267000
     10 O10        -0.6520   -1.1210    2.4630 o         1 E90     -0.254000
     11 C11        -0.2520   -1.6190    0.0930 c2        1 E90     -0.089000
     12 C12        -1.3330   -1.9150   -0.7660 c2        1 E90     -0.110000
     13 C13        -1.1360   -2.7160   -1.8820 c1        1 E90     -0.030000
     14 C14         0.1040   -3.2210   -2.1530 c1        1 E90     -0.803000
     15 C15         1.2080   -2.9200   -1.2760 c1        1 E90     -0.028000
     16 C16         1.0070   -2.1270   -0.1750 c1        1 E90     -0.124000
     17 S17         0.3440   -4.2480   -3.5430 s4        1 E90      2.079800
     18 O18         1.3720   -5.1700   -3.3070 o         1 E90     -0.542400
     19 O19        -0.8720   -5.1940   -3.7740 o         1 E90     -0.542400
     20 N20         0.6660   -3.2980   -4.9390 n2        1 E90     -0.953000
     21 H4          0.9500    4.7940    4.9690 ha        1 E90      0.164000
     22 H5          0.6540    6.7110    3.6570 ha        1 E90      0.164000
     23 H6         -0.5300    6.3820    1.6190 ha        1 E90      0.169000
     24 H8          0.6630    1.0520    1.4390 h1        1 E90      0.154500
     25 H8A        -0.2840    1.0770    0.1600 h1        1 E90      0.154500
     26 H12        -2.1580   -1.5800   -0.5880 ha        1 E90      0.158000
     27 H13        -1.8500   -2.9110   -2.4450 ha        1 E90      0.158000
     28 H15         2.1330   -3.2910   -1.4730 ha        1 E90      0.158000
     29 H16         1.7260   -1.9300    0.4040 ha        1 E90      0.154000
     30 HN20       -0.0370   -3.0980   -5.5550 hn        1 E90      0.245000
     31 HN2A        1.5590   -2.9930   -5.1150 hn        1 E90      0.245000
@<TRIPOS>BOND
     1    1    6 1   
     2    2    3 1   
     3    2    7 1   
     4    4    5 1   
     5    4   21 1   
     6    5   22 1   
     7    6   23 1   
     8    7    8 1   
     9    8    9 1   
    10    8   24 1   
    11    8   25 1   
    12    9   10 1   
    13    9   11 1   
    14   11   12 1   
    15   11   16 1   
    16   12   13 1   
    17   12   26 1   
    18   13   27 1   
    19   14   15 1   
    20   14   17 1   
    21   15   28 1   
    22   16   29 1   
    23   17   18 1   
    24   17   19 1   
    25   20   30 1   
    26   20   31 1   
@<TRIPOS>SUBSTRUCTURE
     1 E90         1 TEMP              0 ****  ****    0 ROOT
