@<TRIPOS>MOLECULE
E90
   32    33     1     0     0
SMALL
bcc


@<TRIPOS>ATOM
      1 N1          2.3110    1.7530    0.0560 nb        1 E90     -0.698000
      2 C2          2.4930    0.3990    0.1630 ca        1 E90      0.716300
      3 N3          1.6290   -0.4830    0.7490 nb        1 E90     -0.698000
      4 C4          0.4970    0.0400    1.2620 ca        1 E90      0.446200
      5 C5          0.2090    1.4160    1.2040 ca        1 E90     -0.351600
      6 C6          1.1690    2.2380    0.5800 ca        1 E90      0.446200
      7 S7          3.9680   -0.1900   -0.5270 ss        1 E90     -0.236400
      8 C8          3.9240   -1.9370   -0.2590 c3        1 E90     -0.147300
      9 C9          5.1880   -2.5420   -0.7760 c         1 E90      0.574700
     10 O10         5.2910   -3.7310   -1.0700 o         1 E90     -0.455100
     11 C11         6.3570   -1.6170   -0.9010 ca        1 E90     -0.025600
     12 C12         7.4610   -1.7740   -0.0510 ca        1 E90     -0.116000
     13 C13         8.5490   -0.9220   -0.1680 ca        1 E90      0.011000
     14 C14         8.5770    0.1040   -1.1410 ca        1 E90     -0.549500
     15 C15         7.4500    0.2430   -1.9830 ca        1 E90      0.011000
     16 C16         6.3570   -0.6040   -1.8710 ca        1 E90     -0.116000
     17 S17         9.7990    1.1310   -1.2210 sy        1 E90      1.493200
     18 O18         9.5730    2.2680   -1.9650 o         1 E90     -0.564300
     19 O19        10.6530    1.1210   -0.1410 o         1 E90     -0.564300
     20 N20        10.8760    0.1420   -2.4810 n4        1 E90     -0.787500
     21 H4         -0.1990   -0.6790    1.7330 h4        1 E90      0.042600
     22 H5         -0.7160    1.8280    1.6230 ha        1 E90      0.170000
     23 H6          1.0230    3.3310    0.4910 h4        1 E90      0.042600
     24 H8          3.0420   -2.4090   -0.7680 h1        1 E90      0.131200
     25 H8A         3.8260   -2.1820    0.8320 h1        1 E90      0.131200
     26 H12         7.4620   -2.5740    0.7090 ha        1 E90      0.189000
     27 H13         9.4060   -1.0370    0.5230 ha        1 E90      0.172500
     28 H15         7.4310    1.0580   -2.7320 ha        1 E90      0.172500
     29 H16         5.4860   -0.4730   -2.5420 ha        1 E90      0.189000
     30 HN20       10.4410   -0.7300   -2.7660 hn        1 E90      0.455467
     31 HN2A       11.0410    0.6990   -3.3170 hn        1 E90      0.455467
     32 H203       11.7830   -0.0800   -2.0720 hn        1 E90      0.455467
@<TRIPOS>BOND
     1    1    2 ar  
     2    1    6 ar  
     3    2    3 ar  
     4    2    7 1   
     5    3    4 ar  
     6    4    5 ar  
     7    4   21 1   
     8    5    6 ar  
     9    5   22 1   
    10    6   23 1   
    11    7    8 1   
    12    8    9 1   
    13    8   24 1   
    14    8   25 1   
    15    9   10 2   
    16    9   11 1   
    17   11   12 ar  
    18   11   16 ar  
    19   12   13 ar  
    20   12   26 1   
    21   13   14 ar  
    22   13   27 1   
    23   14   15 ar  
    24   14   17 1   
    25   15   16 ar  
    26   15   28 1   
    27   16   29 1   
    28   17   18 2   
    29   17   19 2   
    30   17   20 1   
    31   20   30 1   
    32   20   31 1   
    33   20   32 1   
@<TRIPOS>SUBSTRUCTURE
     1 E90         1 TEMP              0 ****  ****    0 ROOT
