@<TRIPOS>MOLECULE
E90
   32    33     1     0     0
SMALL
bcc


@<TRIPOS>ATOM
      1 N1          2.3650    1.8090    0.1760 nb        1 E90     -0.698000
      2 C2          2.5040    0.4450    0.1780 ca        1 E90      0.716300
      3 N3          1.6070   -0.4520    0.6870 nb        1 E90     -0.698000
      4 C4          0.4860    0.0660    1.2300 ca        1 E90      0.446200
      5 C5          0.2420    1.4510    1.2770 ca        1 E90     -0.351600
      6 C6          1.2340    2.2880    0.7270 ca        1 E90      0.446200
      7 S7          3.9670   -0.1350   -0.5430 ss        1 E90     -0.236400
      8 C8          3.8650   -1.8950   -0.4140 c3        1 E90     -0.147300
      9 C9          5.1130   -2.4990   -0.9690 c         1 E90      0.574700
     10 O10         5.1800   -3.6630   -1.3580 o         1 E90     -0.455100
     11 C11         6.3140   -1.6080   -1.0080 ca        1 E90     -0.025600
     12 C12         7.4020   -1.8710   -0.1650 ca        1 E90     -0.116500
     13 C13         8.5200   -1.0500   -0.2030 ca        1 E90      0.011000
     14 C14         8.5930    0.0500   -1.0890 ca        1 E90     -0.549500
     15 C15         7.4810    0.2950   -1.9260 ca        1 E90      0.011000
     16 C16         6.3590   -0.5200   -1.8930 ca        1 E90     -0.116500
     17 S17         9.8490    1.0360   -1.0750 sy        1 E90      1.493200
     18 O18         9.6700    2.2370   -1.7250 o         1 E90     -0.564300
     19 O19        10.6910    0.9100    0.0070 o         1 E90     -0.564300
     20 N20        10.9060    0.1170   -2.4030 n4        1 E90     -0.787500
     21 H4         -0.2370   -0.6650    1.6380 h4        1 E90      0.042600
     22 H5         -0.6740    1.8590    1.7200 ha        1 E90      0.170000
     23 H6          1.1230    3.3890    0.7230 h4        1 E90      0.042600
     24 H8          2.9730   -2.2970   -0.9630 h1        1 E90      0.131200
     25 H8A         3.7490   -2.2220    0.6540 h1        1 E90      0.131200
     26 H12         7.3680   -2.7300    0.5280 ha        1 E90      0.189000
     27 H13         9.3650   -1.2500    0.4830 ha        1 E90      0.172500
     28 H15         7.4970    1.1680   -2.6070 ha        1 E90      0.172500
     29 H16         5.5000   -0.3050   -2.5580 ha        1 E90      0.189000
     30 HN20       11.0990    0.7340   -3.1890 hn        1 E90      0.455467
     31 HN2A       11.8000   -0.1690   -2.0070 hn        1 E90      0.455467
     32 H203       10.4440   -0.7130   -2.7630 hn        1 E90      0.455467
@<TRIPOS>BOND
     1    1    2 ar  
     2    1    6 ar  
     3    2    3 ar  
     4    2    7 1   
     5    3    4 ar  
     6    4    5 ar  
     7    4   21 1   
     8    5    6 ar  
     9    5   22 1   
    10    6   23 1   
    11    7    8 1   
    12    8    9 1   
    13    8   24 1   
    14    8   25 1   
    15    9   10 2   
    16    9   11 1   
    17   11   12 ar  
    18   11   16 ar  
    19   12   13 ar  
    20   12   26 1   
    21   13   14 ar  
    22   13   27 1   
    23   14   15 ar  
    24   14   17 1   
    25   15   16 ar  
    26   15   28 1   
    27   16   29 1   
    28   17   18 2   
    29   17   19 2   
    30   17   20 1   
    31   20   30 1   
    32   20   31 1   
    33   20   32 1   
@<TRIPOS>SUBSTRUCTURE
     1 E90         1 TEMP              0 ****  ****    0 ROOT
