@<TRIPOS>MOLECULE
E90
   32    33     1     0     0
SMALL
bcc


@<TRIPOS>ATOM
      1 N1          2.2980    1.7370    0.0390 nb        1 E90     -0.698000
      2 C2          2.4810    0.3820    0.1250 ca        1 E90      0.716300
      3 N3          1.6100   -0.5110    0.6830 nb        1 E90     -0.698000
      4 C4          0.4690    0.0010    1.1880 ca        1 E90      0.446200
      5 C5          0.1800    1.3770    1.1490 ca        1 E90     -0.351600
      6 C6          1.1470    2.2120    0.5530 ca        1 E90      0.446200
      7 S7          3.9670   -0.1930   -0.5530 ss        1 E90     -0.236400
      8 C8          3.9220   -1.9440   -0.3150 c3        1 E90     -0.147300
      9 C9          5.1940   -2.5380   -0.8240 c         1 E90      0.574700
     10 O10         5.3040   -3.7220   -1.1370 o         1 E90     -0.455100
     11 C11         6.3640   -1.6110   -0.9150 ca        1 E90     -0.025600
     12 C12         7.4550   -1.7800   -0.0520 ca        1 E90     -0.116000
     13 C13         8.5440   -0.9260   -0.1390 ca        1 E90      0.011000
     14 C14         8.5850    0.1170   -1.0920 ca        1 E90     -0.549500
     15 C15         7.4710    0.2700   -1.9480 ca        1 E90      0.011000
     16 C16         6.3770   -0.5810   -1.8680 ca        1 E90     -0.116000
     17 S17         9.8060    1.1460   -1.1370 sy        1 E90      1.493200
     18 O18         9.5900    2.2960   -1.8630 o         1 E90     -0.564300
     19 O19        10.6450    1.1190   -0.0440 o         1 E90     -0.564300
     20 N20        10.9030    0.1810   -2.3980 nz        1 E90     -0.787500
     21 H4         -0.2320   -0.7270    1.6370 h4        1 E90      0.042600
     22 H5         -0.7520    1.7810    1.5610 ha        1 E90      0.170000
     23 H6          1.0010    3.3060    0.4810 h4        1 E90      0.042600
     24 H8          3.0480   -2.4090   -0.8440 h1        1 E90      0.131200
     25 H8A         3.8090   -2.2080    0.7700 h1        1 E90      0.131200
     26 H12         7.4460   -2.5940    0.6940 ha        1 E90      0.189000
     27 H13         9.3910   -1.0520    0.5630 ha        1 E90      0.172500
     28 H15         7.4610    1.0970   -2.6840 ha        1 E90      0.172500
     29 H16         5.5160   -0.4380   -2.5490 ha        1 E90      0.189000
     30 HN20       11.0800    0.7530   -3.2220 hn        1 E90      0.455467
     31 HN2A       11.8040   -0.0470   -1.9800 hn        1 E90      0.455467
     32 H203       10.4730   -0.6850   -2.7050 hn        1 E90      0.455467
@<TRIPOS>BOND
     1    1    2 ar  
     2    1    6 ar  
     3    2    3 ar  
     4    2    7 1   
     5    3    4 ar  
     6    4    5 ar  
     7    4   21 1   
     8    5    6 ar  
     9    5   22 1   
    10    6   23 1   
    11    7    8 1   
    12    8    9 1   
    13    8   24 1   
    14    8   25 1   
    15    9   10 2   
    16    9   11 1   
    17   11   12 ar  
    18   11   16 ar  
    19   12   13 ar  
    20   12   26 1   
    21   13   14 ar  
    22   13   27 1   
    23   14   15 ar  
    24   14   17 1   
    25   15   16 ar  
    26   15   28 1   
    27   16   29 1   
    28   17   18 2   
    29   17   19 2   
    30   17   20 1   
    31   20   30 1   
    32   20   31 1   
    33   20   32 1   
@<TRIPOS>SUBSTRUCTURE
     1 E90         1 TEMP              0 ****  ****    0 ROOT
