@<TRIPOS>MOLECULE
E91
   38    41     1     0     0
SMALL
bcc


@<TRIPOS>ATOM
      1 O01         1.2430    1.4910    0.7330 o         1 E91     -0.822800
      2 C02         1.5840    0.3450    0.3280 c         1 E91      0.905200
      3 O03         1.5490   -0.7030    1.0310 o         1 E91     -0.822800
      4 C04         2.0710    0.2170   -1.1110 ca        1 E91     -0.091600
      5 C05         2.4590   -1.0310   -1.6150 ca        1 E91     -0.124500
      6 C06         2.8970   -1.1570   -2.9270 ca        1 E91     -0.116500
      7 C07         2.9530   -0.0300   -3.7680 ca        1 E91     -0.206900
      8 C08         3.4060   -0.2300   -5.1420 ce        1 E91      0.505800
      9 N09         3.4550    0.7240   -6.0300 nf        1 E91     -0.435700
     10 N10         3.9730    0.6170   -7.2370 nf        1 E91     -0.334700
     11 C11         3.3180    0.2940   -8.3160 cc        1 E91      0.452500
     12 C12         1.9320   -0.1970   -8.5430 ca        1 E91     -0.135400
     13 C13         0.9020   -0.4410   -7.6530 ca        1 E91     -0.091000
     14 C14        -0.3240   -0.9100   -8.1540 ca        1 E91     -0.132500
     15 C15        -0.5080   -1.1240   -9.5150 ca        1 E91     -0.132500
     16 C16         0.5270   -0.8740  -10.4280 ca        1 E91     -0.114000
     17 C17         1.7380   -0.4130   -9.9470 cp        1 E91     -0.035500
     18 C18         2.9740   -0.0600  -10.6430 cp        1 E91     -0.035500
     19 C19         3.3040   -0.0850  -11.9860 ca        1 E91     -0.114000
     20 C20         4.5900    0.3260  -12.3700 ca        1 E91     -0.132500
     21 C21         5.5170    0.7510  -11.4250 ca        1 E91     -0.132500
     22 C22         5.1940    0.7800  -10.0590 ca        1 E91     -0.091000
     23 C23         3.9310    0.3760   -9.6720 ca        1 E91     -0.135400
     24 C24         2.5700    1.2200   -3.2630 ca        1 E91     -0.116500
     25 C25         2.1330    1.3370   -1.9450 ca        1 E91     -0.124500
     26 H2          2.4070   -1.9020   -0.9420 ha        1 E91      0.157500
     27 H3          3.2010   -2.1420   -3.3120 ha        1 E91      0.118500
     28 H4          3.7120   -1.2790   -5.3680 h4        1 E91     -0.021200
     29 H6          1.0190   -0.2740   -6.5720 ha        1 E91      0.155000
     30 H7         -1.1470   -1.1060   -7.4500 ha        1 E91      0.131500
     31 H8         -1.4760   -1.4910   -9.8860 ha        1 E91      0.125000
     32 H10         0.3740   -1.0420  -11.5030 ha        1 E91      0.129500
     33 H11         2.5770   -0.4170  -12.7400 ha        1 E91      0.129500
     34 H12         4.8620    0.3100  -13.4360 ha        1 E91      0.125000
     35 H13         6.5190    1.0710  -11.7460 ha        1 E91      0.131500
     36 H14         5.9310    1.1190   -9.3160 ha        1 E91      0.155000
     37 H15         2.6140    2.1120   -3.9040 ha        1 E91      0.118500
     38 H16         1.8270    2.3120   -1.5310 ha        1 E91      0.157500
@<TRIPOS>BOND
     1    1    2 1   
     2    2    3 1   
     3    2    4 1   
     4    4    5 ar  
     5    4   25 ar  
     6    5    6 ar  
     7    5   26 1   
     8    6    7 ar  
     9    6   27 1   
    10    7    8 1   
    11    7   24 ar  
    12    8    9 2   
    13    8   28 1   
    14    9   10 1   
    15   10   11 2   
    16   11   12 1   
    17   11   23 1   
    18   12   13 ar  
    19   12   17 ar  
    20   13   14 ar  
    21   13   29 1   
    22   14   15 ar  
    23   14   30 1   
    24   15   16 ar  
    25   15   31 1   
    26   16   17 ar  
    27   16   32 1   
    28   17   18 1   
    29   18   19 ar  
    30   18   23 ar  
    31   19   20 ar  
    32   19   33 1   
    33   20   21 ar  
    34   20   34 1   
    35   21   22 ar  
    36   21   35 1   
    37   22   23 ar  
    38   22   36 1   
    39   24   25 ar  
    40   24   37 1   
    41   25   38 1   
@<TRIPOS>SUBSTRUCTURE
     1 E91         1 TEMP              0 ****  ****    0 ROOT
