@<TRIPOS>MOLECULE
E91
   38    41     1     0     0
SMALL
bcc


@<TRIPOS>ATOM
      1 O01         1.1960    1.4680    0.7310 o         1 E91     -0.822800
      2 C02         1.5490    0.3270    0.3230 c         1 E91      0.905200
      3 O03         1.5210   -0.7250    1.0220 o         1 E91     -0.822800
      4 C04         2.0420    0.2080   -1.1140 ca        1 E91     -0.091600
      5 C05         2.4460   -1.0340   -1.6210 ca        1 E91     -0.124500
      6 C06         2.8900   -1.1520   -2.9320 ca        1 E91     -0.116500
      7 C07         2.9380   -0.0210   -3.7680 ca        1 E91     -0.206900
      8 C08         3.3980   -0.2110   -5.1410 ce        1 E91      0.505800
      9 N09         3.4420    0.7450   -6.0260 nf        1 E91     -0.435700
     10 N10         3.9640    0.6480   -7.2310 nf        1 E91     -0.334700
     11 C11         3.3200    0.3110   -8.3120 cc        1 E91      0.452500
     12 C12         1.9450   -0.2080   -8.5430 ca        1 E91     -0.135400
     13 C13         0.9170   -0.4730   -7.6570 ca        1 E91     -0.091000
     14 C14        -0.2980   -0.9660   -8.1610 ca        1 E91     -0.132500
     15 C15        -0.4730   -1.1850   -9.5230 ca        1 E91     -0.132500
     16 C16         0.5600   -0.9150  -10.4330 ca        1 E91     -0.114000
     17 C17         1.7600   -0.4290   -9.9470 cp        1 E91     -0.035500
     18 C18         2.9900   -0.0510  -10.6410 cp        1 E91     -0.035500
     19 C19         3.3250   -0.0700  -11.9820 ca        1 E91     -0.114000
     20 C20         4.6040    0.3660  -12.3630 ca        1 E91     -0.132500
     21 C21         5.5190    0.8100  -11.4150 ca        1 E91     -0.132500
     22 C22         5.1910    0.8340  -10.0500 ca        1 E91     -0.091000
     23 C23         3.9350    0.4040   -9.6670 ca        1 E91     -0.135400
     24 C24         2.5410    1.2240   -3.2600 ca        1 E91     -0.116500
     25 C25         2.0980    1.3310   -1.9440 ca        1 E91     -0.124500
     26 H2          2.3980   -1.9080   -0.9510 ha        1 E91      0.157500
     27 H3          3.2050   -2.1310   -3.3190 ha        1 E91      0.118500
     28 H4          3.7160   -1.2560   -5.3700 h4        1 E91     -0.021200
     29 H6          1.0270   -0.3020   -6.5750 ha        1 E91      0.155000
     30 H7         -1.1190   -1.1790   -7.4600 ha        1 E91      0.131500
     31 H8         -1.4320   -1.5720   -9.8970 ha        1 E91      0.125000
     32 H10         0.4140   -1.0860  -11.5080 ha        1 E91      0.129500
     33 H11         2.6080   -0.4180  -12.7380 ha        1 E91      0.129500
     34 H12         4.8800    0.3550  -13.4270 ha        1 E91      0.125000
     35 H13         6.5150    1.1500  -11.7330 ha        1 E91      0.131500
     36 H14         5.9190    1.1880   -9.3050 ha        1 E91      0.155000
     37 H15         2.5790    2.1190   -3.8980 ha        1 E91      0.118500
     38 H16         1.7810    2.3020   -1.5280 ha        1 E91      0.157500
@<TRIPOS>BOND
     1    1    2 1   
     2    2    3 1   
     3    2    4 1   
     4    4    5 ar  
     5    4   25 ar  
     6    5    6 ar  
     7    5   26 1   
     8    6    7 ar  
     9    6   27 1   
    10    7    8 1   
    11    7   24 ar  
    12    8    9 2   
    13    8   28 1   
    14    9   10 1   
    15   10   11 2   
    16   11   12 1   
    17   11   23 1   
    18   12   13 ar  
    19   12   17 ar  
    20   13   14 ar  
    21   13   29 1   
    22   14   15 ar  
    23   14   30 1   
    24   15   16 ar  
    25   15   31 1   
    26   16   17 ar  
    27   16   32 1   
    28   17   18 1   
    29   18   19 ar  
    30   18   23 ar  
    31   19   20 ar  
    32   19   33 1   
    33   20   21 ar  
    34   20   34 1   
    35   21   22 ar  
    36   21   35 1   
    37   22   23 ar  
    38   22   36 1   
    39   24   25 ar  
    40   24   37 1   
    41   25   38 1   
@<TRIPOS>SUBSTRUCTURE
     1 E91         1 TEMP              0 ****  ****    0 ROOT
