@<TRIPOS>MOLECULE
E94
   64    68     1     0     0
SMALL
bcc


@<TRIPOS>ATOM
      1 N3         -2.5940   -4.1370    1.9740 n1        1 E94     -0.376800
      2 C18        -2.2850   -3.0220    1.8440 cg        1 E94      0.262800
      3 C17        -1.9230   -1.6720    1.6840 cc        1 E94     -0.147000
      4 C7         -0.5880   -1.2240    1.3980 cc        1 E94      0.063000
      5 C3          0.5330   -2.1470    1.2820 ca        1 E94     -0.028000
      6 C2          1.0760   -2.4420    0.0250 ca        1 E94     -0.075000
      7 C4          1.0660   -2.7490    2.4300 ca        1 E94     -0.103000
      8 C5          2.1340   -3.6380    2.3220 ca        1 E94     -0.127000
      9 C6          2.6800   -3.9380    1.0750 ca        1 E94     -0.114000
     10 C1          2.1470   -3.3340   -0.0680 ca        1 E94      0.004400
     11 CL          2.8120   -3.6890   -1.5940 cl        1 E94     -0.101400
     12 C9         -2.8360   -0.6070    1.7770 cd        1 E94      0.186500
     13 N1         -4.1580   -0.7140    2.1610 nh        1 E94     -0.692600
     14 C10        -5.1210    0.2390    1.6620 c3        1 E94      0.175800
     15 C11        -5.6680   -0.0840    0.2500 c3        1 E94      0.139800
     16 N2         -6.7340    0.8280   -0.1360 n3        1 E94     -0.732600
     17 C16        -7.6710    0.2130   -1.0690 c3        1 E94      0.171300
     18 C15        -8.8050    1.1480   -1.4860 c3        1 E94     -0.077400
     19 C14        -8.2680    2.4590   -2.0150 c3        1 E94     -0.079400
     20 C13        -7.3300    3.0870   -1.0080 c3        1 E94     -0.077400
     21 C12        -6.2260    2.1120   -0.6030 c3        1 E94      0.171300
     22 S          -2.0450    0.8720    1.5160 ss        1 E94      0.028200
     23 C8         -0.5340    0.1530    1.2800 cd        1 E94     -0.208600
     24 C19         0.6230    0.9890    1.0000 ca        1 E94      0.569800
     25 C22         0.7370    2.2340    1.6670 ca        1 E94     -0.419600
     26 C21         1.8690    3.0090    1.3720 ca        1 E94      0.465200
     27 N5          2.8210    2.6360    0.5040 nb        1 E94     -0.733000
     28 C20         2.6300    1.4100   -0.1190 ca        1 E94      0.874900
     29 N4          1.5500    0.5630    0.1130 nb        1 E94     -0.736000
     30 N6          3.5380    0.9810   -1.1110 nh        1 E94     -0.706300
     31 C23         4.8570    1.4850   -1.1930 ca        1 E94      0.167600
     32 C28         5.9460    0.5830   -1.1700 ca        1 E94     -0.200000
     33 C27         7.2470    1.0480   -1.3370 ca        1 E94     -0.084000
     34 C26         7.5090    2.4020   -1.5200 ca        1 E94     -0.167000
     35 C25         6.4270    3.2960   -1.5430 ca        1 E94      0.134100
     36 O           6.7350    4.6240   -1.7330 oh        1 E94     -0.498100
     37 C24         5.1060    2.8560   -1.3920 ca        1 E94     -0.193000
     38 H2          0.6660   -1.9630   -0.8780 ha        1 E94      0.160000
     39 H3          0.6390   -2.5190    3.4180 ha        1 E94      0.142000
     40 H4          2.5470   -4.1090    3.2260 ha        1 E94      0.140000
     41 H5          3.5210   -4.6430    0.9930 ha        1 E94      0.147000
     42 H6         -4.4950   -1.6570    2.1940 hn        1 E94      0.419800
     43 H7         -5.9760    0.2460    2.3980 h1        1 E94      0.071200
     44 H8         -4.6520    1.2640    1.6620 h1        1 E94      0.071200
     45 H9         -4.8110   -0.0670   -0.4850 h1        1 E94      0.039700
     46 H10        -6.0780   -1.1350    0.2620 h1        1 E94      0.039700
     47 H20        -7.1440   -0.1480   -2.0020 h1        1 E94      0.030700
     48 H19        -8.1170   -0.6860   -0.5590 h1        1 E94      0.030700
     49 H18        -9.4120    0.6330   -2.2740 hc        1 E94      0.048950
     50 H17        -9.4760    1.3420   -0.6090 hc        1 E94      0.048950
     51 H15        -7.7220    2.2830   -2.9790 hc        1 E94      0.042200
     52 H16        -9.1160    3.1590   -2.2320 hc        1 E94      0.042200
     53 H14        -6.8500    4.0010   -1.4420 hc        1 E94      0.048950
     54 H13        -7.9080    3.4020   -0.1000 hc        1 E94      0.048950
     55 H12        -5.6340    2.5680    0.2400 h1        1 E94      0.030700
     56 H11        -5.5250    1.9820   -1.4810 h1        1 E94      0.030700
     57 H22        -0.0140    2.5650    2.3920 ha        1 E94      0.156000
     58 H21         2.0330    3.9870    1.8630 h4        1 E94      0.028100
     59 H23         3.4590    0.0110   -1.3500 hn        1 E94      0.443800
     60 H28         5.7750   -0.4940   -1.0230 ha        1 E94      0.137000
     61 H27         8.0830    0.3330   -1.3190 ha        1 E94      0.136000
     62 H26         8.5330    2.7790   -1.6450 ha        1 E94      0.152000
     63 H25         5.9110    5.1310   -1.6940 ho        1 E94      0.421000
     64 H24         4.2830    3.5840   -1.4290 ha        1 E94      0.155000
@<TRIPOS>BOND
     1    1    2 3   
     2    2    3 1   
     3    3    4 1   
     4    3   12 2   
     5    4    5 1   
     6    4   23 2   
     7    5    6 ar  
     8    5    7 ar  
     9    6   10 ar  
    10    6   38 1   
    11    7    8 ar  
    12    7   39 1   
    13    8    9 ar  
    14    8   40 1   
    15    9   10 ar  
    16    9   41 1   
    17   10   11 1   
    18   12   13 1   
    19   12   22 1   
    20   13   14 1   
    21   13   42 1   
    22   14   15 1   
    23   14   43 1   
    24   14   44 1   
    25   15   16 1   
    26   15   45 1   
    27   15   46 1   
    28   16   17 1   
    29   16   21 1   
    30   17   18 1   
    31   17   47 1   
    32   17   48 1   
    33   18   19 1   
    34   18   49 1   
    35   18   50 1   
    36   19   20 1   
    37   19   51 1   
    38   19   52 1   
    39   20   21 1   
    40   20   53 1   
    41   20   54 1   
    42   21   55 1   
    43   21   56 1   
    44   22   23 1   
    45   23   24 1   
    46   24   25 ar  
    47   24   29 ar  
    48   25   26 ar  
    49   25   57 1   
    50   26   27 ar  
    51   26   58 1   
    52   27   28 ar  
    53   28   29 ar  
    54   28   30 1   
    55   30   31 1   
    56   30   59 1   
    57   31   32 ar  
    58   31   37 ar  
    59   32   33 ar  
    60   32   60 1   
    61   33   34 ar  
    62   33   61 1   
    63   34   35 ar  
    64   34   62 1   
    65   35   36 1   
    66   35   37 ar  
    67   36   63 1   
    68   37   64 1   
@<TRIPOS>SUBSTRUCTURE
     1 E94         1 TEMP              0 ****  ****    0 ROOT
