@<TRIPOS>MOLECULE
E94
   64    57     1     0     0
SMALL
bcc


@<TRIPOS>ATOM
      1 N3         -2.8730   -0.8120   -4.7410 n1        1 E94     -0.053000
      2 C18        -2.2180   -0.7500   -3.8030 c1        1 E94     -0.066000
      3 C17        -1.3540   -0.6690   -2.5660 c1        1 E94     -0.052000
      4 C7          0.2480   -0.7200   -2.5350 c1        1 E94     -0.052000
      5 C3          1.1640   -0.7840   -3.7550 c1        1 E94     -0.028000
      6 C2          1.5350   -2.0140   -4.2800 c1        1 E94     -0.109000
      7 C4          1.5970    0.3870   -4.3600 c2        1 E94     -0.104000
      8 C5          2.4020    0.3290   -5.4910 c1        1 E94     -0.122000
      9 C6          2.7730   -0.9020   -6.0160 c1        1 E94     -0.117000
     10 C1          2.3410   -2.0730   -5.4120 c1        1 E94     -0.064000
     11 CL          2.8300   -3.6180   -6.0550 cl        1 E94     -0.012000
     12 C9         -1.8390   -0.5910   -1.1880 c1        1 E94     -0.283000
     13 N1         -3.2260   -0.6660   -0.7690 n2        1 E94     -0.246000
     14 C10        -3.6750    0.0820    0.3830 c3        1 E94     -0.062000
     15 C11        -5.2070   -0.0650    0.5280 c3        1 E94     -0.098000
     16 N2         -5.5880    0.1760    1.9050 n3        1 E94     -0.257000
     17 C16        -6.1010   -1.0630    2.4930 c3        1 E94     -0.066000
     18 C15        -6.6560   -0.8560    3.8910 c3        1 E94     -0.156000
     19 C14        -7.6340    0.2440    3.9490 c3        1 E94     -0.158000
     20 C13        -7.1120    1.4870    3.3550 c3        1 E94     -0.156000
     21 C12        -6.5550    1.2730    1.9600 c3        1 E94     -0.066000
     22 S          -0.5950   -0.5900   -0.2420 ss        1 E94      0.645000
     23 C8          0.6820   -0.6720   -1.1410 c1        1 E94     -0.283000
     24 C19         2.1470   -0.7410   -0.6400 c1        1 E94      0.128000
     25 C22         2.7370   -1.9570   -0.4130 c2        1 E94     -0.260000
     26 C21         4.0130   -2.0170    0.0810 c1        1 E94     -0.004000
     27 N5          4.6900   -0.8770    0.3460 n1        1 E94     -0.200000
     28 C20         4.1020    0.3350    0.1200 c1        1 E94      0.153000
     29 N4          2.8240    0.3960   -0.3750 n2        1 E94     -0.242000
     30 N6          4.8450    1.5460    0.3430 n2        1 E94     -0.228000
     31 C23         6.1460    1.4900    0.9700 c1        1 E94      0.085000
     32 C28         7.2820    1.3200    0.1910 c1        1 E94     -0.114500
     33 C27         8.5420    1.3790    0.7770 c1        1 E94     -0.114500
     34 C26         8.6630    1.6070    2.1410 c1        1 E94     -0.164000
     35 C25         7.5290    1.7770    2.9200 c1        1 E94      0.093000
     36 O           7.6490    1.9110    4.3200 o         1 E94     -0.251000
     37 C24         6.2680    1.7180    2.3350 c2        1 E94     -0.254000
     38 H2          1.2310   -2.8360   -3.8560 ha        1 E94      0.156000
     39 H3          1.3370    1.2510   -3.9920 ha        1 E94      0.145000
     40 H4          2.7070    1.1530   -5.9170 ha        1 E94      0.141000
     41 H5          3.3400   -0.9430   -6.8120 ha        1 E94      0.149000
     42 H6         -3.8220   -1.1580   -1.2550 hn        1 E94      0.211000
     43 H7         -3.2370   -0.2630    1.1860 h1        1 E94      0.110500
     44 H8         -3.4470    1.0280    0.2670 h1        1 E94      0.110500
     45 H9         -5.6540    0.5860   -0.0520 h1        1 E94      0.078000
     46 H10        -5.4740   -0.9700    0.2700 h1        1 E94      0.078000
     47 H20        -6.8120   -1.4140    1.9200 h1        1 E94      0.070000
     48 H19        -5.3770   -1.7160    2.5350 h1        1 E94      0.070000
     49 H18        -7.0910   -1.6830    4.1840 hc        1 E94      0.088250
     50 H17        -5.9160   -0.6550    4.4980 hc        1 E94      0.088250
     51 H15        -8.4410   -0.0240    3.4650 hc        1 E94      0.081500
     52 H16        -7.8660    0.4130    4.8860 hc        1 E94      0.081500
     53 H14        -7.8370    2.1450    3.3100 hc        1 E94      0.088250
     54 H13        -6.4010    1.8380    3.9300 hc        1 E94      0.088250
     55 H12        -6.1170    2.0950    1.6640 h1        1 E94      0.070000
     56 H11        -7.2950    1.0720    1.3520 h1        1 E94      0.070000
     57 H22         2.2500   -2.7780   -0.6040 ha        1 E94      0.168000
     58 H21         4.4340   -2.8830    0.2430 ha        1 E94      0.168000
     59 H23         4.5220    2.3400    0.0360 hn        1 E94      0.231000
     60 H28         7.1970    1.1600   -0.7660 ha        1 E94      0.147500
     61 H27         9.3410    1.2590    0.2290 ha        1 E94      0.147500
     62 H26         9.5490    1.6490    2.5530 ha        1 E94      0.152000
     63 H25         7.0290    2.4770    4.6190 ho        1 E94      0.217000
     64 H24         5.4690    1.8380    2.8820 ha        1 E94      0.133000
@<TRIPOS>BOND
     1    1    2 1   
     2    3    4 1   
     3    3   12 1   
     4    4   23 1   
     5    5    6 1   
     6    5    7 1   
     7    6   38 1   
     8    7    8 1   
     9    7   39 1   
    10    8   40 1   
    11    9   10 1   
    12    9   41 1   
    13   10   11 1   
    14   12   22 1   
    15   13   14 1   
    16   13   42 1   
    17   14   15 1   
    18   14   43 1   
    19   14   44 1   
    20   15   16 1   
    21   15   45 1   
    22   15   46 1   
    23   16   17 1   
    24   16   21 1   
    25   17   18 1   
    26   17   47 1   
    27   17   48 1   
    28   18   19 1   
    29   18   49 1   
    30   18   50 1   
    31   19   20 1   
    32   19   51 1   
    33   19   52 1   
    34   20   21 1   
    35   20   53 1   
    36   20   54 1   
    37   21   55 1   
    38   21   56 1   
    39   22   23 1   
    40   24   25 1   
    41   24   29 1   
    42   25   26 1   
    43   25   57 1   
    44   26   58 1   
    45   27   28 1   
    46   28   29 1   
    47   30   31 1   
    48   30   59 1   
    49   31   37 1   
    50   32   33 1   
    51   32   60 1   
    52   33   61 1   
    53   34   35 1   
    54   34   62 1   
    55   35   37 1   
    56   36   63 1   
    57   37   64 1   
@<TRIPOS>SUBSTRUCTURE
     1 E94         1 TEMP              0 ****  ****    0 ROOT
