@<TRIPOS>MOLECULE
E94
   64    68     1     0     0
SMALL
bcc


@<TRIPOS>ATOM
      1 N3         -1.5270   -0.4930   -2.2140 n1        1 E94     -0.383800
      2 C18        -0.8500   -0.3480   -1.2770 cg        1 E94      0.266800
      3 C17        -0.0440   -0.1730   -0.1380 cc        1 E94     -0.160000
      4 C7          1.3920   -0.1960   -0.1530 cc        1 E94      0.069000
      5 C3          2.1510   -0.4250   -1.3760 ca        1 E94     -0.025000
      6 C2          2.8320    0.6330   -1.9900 ca        1 E94     -0.072000
      7 C4          2.1930   -1.7060   -1.9440 ca        1 E94     -0.104000
      8 C5          2.9100   -1.9260   -3.1180 ca        1 E94     -0.128000
      9 C6          3.5910   -0.8790   -3.7380 ca        1 E94     -0.116000
     10 C1          3.5480    0.3960   -3.1670 ca        1 E94      0.004400
     11 Cl          4.3810    1.6790   -3.9130 cl        1 E94     -0.101400
     12 C9         -0.5620    0.0560    1.1500 cd        1 E94      0.209500
     13 N1         -1.8870    0.2400    1.4530 nu        1 E94     -0.713600
     14 C10        -2.3320    0.0460    2.8140 c3        1 E94      0.184800
     15 C11        -3.8130    0.4600    2.9900 c3        1 E94      0.168800
     16 N2         -4.2670    0.2180    4.3510 n3        1 E94     -0.737600
     17 C16        -5.6880   -0.1020    4.4110 c3        1 E94      0.172800
     18 C15        -6.1840   -0.3720    5.8300 c3        1 E94     -0.077400
     19 C14        -5.8250    0.7650    6.7620 c3        1 E94     -0.079400
     20 C13        -4.3390    1.0450    6.7020 c3        1 E94     -0.077400
     21 C12        -3.8850    1.2880    5.2650 c3        1 E94      0.172800
     22 S           0.7020    0.2010    2.2760 ss        1 E94      0.018200
     23 C8          1.9130   -0.0080    1.1140 cd        1 E94     -0.211600
     24 C19         3.3080    0.0120    1.5250 ca        1 E94      0.571800
     25 C22         3.6500   -0.5300    2.7890 ca        1 E94     -0.423600
     26 C21         5.0060   -0.4980    3.1480 ca        1 E94      0.466200
     27 N5          5.9690    0.0170    2.3700 nb        1 E94     -0.729000
     28 C20         5.5520    0.5460    1.1550 ca        1 E94      0.875900
     29 N4          4.2370    0.5490    0.7000 nb        1 E94     -0.737000
     30 N6          6.4860    1.1880    0.3170 nu        1 E94     -0.708300
     31 C23         7.8800    0.9780    0.4350 ca        1 E94      0.165600
     32 C28         8.6120    0.5500   -0.7000 ca        1 E94     -0.200000
     33 C27         9.9940    0.4210   -0.6340 ca        1 E94     -0.078000
     34 C26        10.6840    0.7010    0.5430 ca        1 E94     -0.225000
     35 C25         9.9600    1.1250    1.6630 ca        1 E94      0.133100
     36 O          10.5650    1.4320    2.8620 oh        1 E94     -0.496100
     37 C24         8.5650    1.2760    1.6260 ca        1 E94     -0.137000
     38 H2          2.8100    1.6380   -1.5410 ha        1 E94      0.162000
     39 H3          1.6570   -2.5370   -1.4620 ha        1 E94      0.140000
     40 H4          2.9390   -2.9330   -3.5610 ha        1 E94      0.138000
     41 H5          4.1520   -1.0560   -4.6670 ha        1 E94      0.146000
     42 H6         -2.5350   -0.0230    0.7390 hn        1 E94      0.429800
     43 H7         -2.2100   -1.0310    3.1300 h1        1 E94      0.054700
     44 H8         -1.6800    0.6780    3.4840 h1        1 E94      0.054700
     45 H9         -4.4410   -0.1510    2.2810 h1        1 E94      0.043700
     46 H10        -3.9260    1.5440    2.6940 h1        1 E94      0.043700
     47 H20        -6.3150    0.7270    3.9650 h1        1 E94      0.030950
     48 H19        -5.8540   -1.0280    3.7910 h1        1 E94      0.030950
     49 H18        -5.7360   -1.3270    6.2110 hc        1 E94      0.049200
     50 H17        -7.2960   -0.5060    5.7940 hc        1 E94      0.049200
     51 H15        -6.3940    1.6860    6.4700 hc        1 E94      0.042200
     52 H16        -6.1210    0.5050    7.8110 hc        1 E94      0.042200
     53 H14        -4.0920    1.9540    7.3080 hc        1 E94      0.049200
     54 H13        -3.7750    0.1790    7.1360 hc        1 E94      0.049200
     55 H12        -2.7610    1.3610    5.2470 h1        1 E94      0.030950
     56 H11        -4.2960    2.2850    4.9240 h1        1 E94      0.030950
     57 H22         2.8910   -0.9690    3.4460 ha        1 E94      0.154000
     58 H21         5.3510   -0.9140    4.1130 h4        1 E94      0.029100
     59 H23         6.1720    1.3320   -0.6240 hn        1 E94      0.444800
     60 H28         8.0930    0.3200   -1.6420 ha        1 E94      0.137000
     61 H27        10.5500    0.0880   -1.5240 ha        1 E94      0.134000
     62 H26        11.7760    0.5920    0.5920 ha        1 E94      0.135000
     63 H25        11.5170    1.2870    2.7590 ho        1 E94      0.418000
     64 H24         8.0420    1.6200    2.5310 ha        1 E94      0.171000
@<TRIPOS>BOND
     1    1    2 3   
     2    2    3 1   
     3    3    4 1   
     4    3   12 2   
     5    4    5 1   
     6    4   23 2   
     7    5    6 ar  
     8    5    7 ar  
     9    6   10 ar  
    10    6   38 1   
    11    7    8 ar  
    12    7   39 1   
    13    8    9 ar  
    14    8   40 1   
    15    9   10 ar  
    16    9   41 1   
    17   10   11 1   
    18   12   13 1   
    19   12   22 1   
    20   13   14 1   
    21   13   42 1   
    22   14   15 1   
    23   14   43 1   
    24   14   44 1   
    25   15   16 1   
    26   15   45 1   
    27   15   46 1   
    28   16   17 1   
    29   16   21 1   
    30   17   18 1   
    31   17   47 1   
    32   17   48 1   
    33   18   19 1   
    34   18   49 1   
    35   18   50 1   
    36   19   20 1   
    37   19   51 1   
    38   19   52 1   
    39   20   21 1   
    40   20   53 1   
    41   20   54 1   
    42   21   55 1   
    43   21   56 1   
    44   22   23 1   
    45   23   24 1   
    46   24   25 ar  
    47   24   29 ar  
    48   25   26 ar  
    49   25   57 1   
    50   26   27 ar  
    51   26   58 1   
    52   27   28 ar  
    53   28   29 ar  
    54   28   30 1   
    55   30   31 1   
    56   30   59 1   
    57   31   32 ar  
    58   31   37 ar  
    59   32   33 ar  
    60   32   60 1   
    61   33   34 ar  
    62   33   61 1   
    63   34   35 ar  
    64   34   62 1   
    65   35   36 1   
    66   35   37 ar  
    67   36   63 1   
    68   37   64 1   
@<TRIPOS>SUBSTRUCTURE
     1 E94         1 TEMP              0 ****  ****    0 ROOT
