@<TRIPOS>MOLECULE
E94
   64    67     1     0     0
SMALL
bcc


@<TRIPOS>ATOM
      1 N3         -1.4310   -0.3320   -2.3700 n1        1 E94     -0.381800
      2 C18        -0.7920   -0.2530   -1.4000 cg        1 E94      0.265800
      3 C17        -0.0310   -0.1550   -0.2220 cc        1 E94     -0.158000
      4 C7          1.4050   -0.1920   -0.1810 cc        1 E94      0.069000
      5 C3          2.2090   -0.3730   -1.3830 ca        1 E94     -0.026000
      6 C2          2.9160    0.7060   -1.9270 ca        1 E94     -0.073000
      7 C4          2.2680   -1.6290   -2.0020 ca        1 E94     -0.103000
      8 C5          3.0290   -1.8050   -3.1560 ca        1 E94     -0.128000
      9 C6          3.7350   -0.7370   -3.7060 ca        1 E94     -0.115000
     10 C1          3.6760    0.5140   -3.0850 ca        1 E94      0.004400
     11 CL          4.5410    1.8230   -3.7450 cl        1 E94     -0.101400
     12 C9         -0.5970    0.0010    1.0570 cd        1 E94      0.206500
     13 N1         -1.9410   -0.0280    1.3400 nh        1 E94     -0.711600
     14 C10        -2.4120    0.5720    2.5680 c3        1 E94      0.183800
     15 C11        -3.9060    0.2550    2.8150 c3        1 E94      0.167800
     16 N2         -4.3570    0.8210    4.0790 n3        1 E94     -0.742600
     17 C16        -5.3490   -0.0220    4.7310 c3        1 E94      0.178800
     18 C15        -5.8650    0.4900    6.0730 c3        1 E94     -0.047200
     19 C14        -4.8550    0.6400    7.1450 c2        1 E94     -0.169200
     20 C13        -3.6320    0.1170    7.1580 c2        1 E94     -0.207000
     21 C12        -4.7400    2.2090    3.9710 c3        1 E94      0.155100
     22 S           0.6220    0.1000    2.2340 ss        1 E94      0.022200
     23 C8          1.8770   -0.0610    1.1120 cd        1 E94     -0.213600
     24 C19         3.2550   -0.0570    1.5770 ca        1 E94      0.572800
     25 C22         3.5460   -0.6440    2.8340 ca        1 E94     -0.422600
     26 C21         4.8870   -0.6240    3.2460 ca        1 E94      0.465200
     27 N5          5.8800   -0.0820    2.5250 nb        1 E94     -0.735000
     28 C20         5.5120    0.4850    1.3120 ca        1 E94      0.875900
     29 N4          4.2150    0.5050    0.8080 nb        1 E94     -0.737000
     30 N6          6.4790    1.1530    0.5310 nh        1 E94     -0.706300
     31 C23         7.8640    0.8990    0.6650 ca        1 E94      0.168600
     32 C28         8.6110    0.5180   -0.4730 ca        1 E94     -0.200000
     33 C27         9.9900    0.3480   -0.3830 ca        1 E94     -0.084000
     34 C26        10.6610    0.5370    0.8200 ca        1 E94     -0.167000
     35 C25         9.9180    0.9160    1.9480 ca        1 E94      0.134100
     36 O          10.6260    1.0980    3.1150 oh        1 E94     -0.499100
     37 C24         8.5320    1.1090    1.8850 ca        1 E94     -0.193000
     38 H2          2.8810    1.6920   -1.4380 ha        1 E94      0.160000
     39 H3          1.7110   -2.4770   -1.5750 ha        1 E94      0.142000
     40 H4          3.0710   -2.7930   -3.6390 ha        1 E94      0.139000
     41 H5          4.3320   -0.8780   -4.6200 ha        1 E94      0.146000
     42 H6         -2.5480    0.0660    0.5510 hn        1 E94      0.427800
     43 H7         -1.7980    0.1580    3.4200 h1        1 E94      0.054700
     44 H8         -2.2630    1.6920    2.5490 h1        1 E94      0.054700
     45 H9         -4.0300   -0.8650    2.8370 h1        1 E94      0.043200
     46 H10        -4.5120    0.6450    1.9460 h1        1 E94      0.043200
     47 H20        -6.2490   -0.1780    4.0630 h1        1 E94      0.032700
     48 H19        -4.8700   -1.0300    4.8950 h1        1 E94      0.032700
     49 H18        -6.6430   -0.2460    6.4240 hc        1 E94      0.051200
     50 H17        -6.3930    1.4720    5.9250 hc        1 E94      0.051200
     51 H15        -3.2210   -0.4790    6.3330 ha        1 E94      0.113000
     52 H16        -5.2130    1.2360    8.0040 ha        1 E94      0.114000
     53 H14        -4.7830    2.6470    5.0040 h1        1 E94      0.034700
     54 H13        -2.9500    0.2640    8.0060 ha        1 E94      0.113000
     55 H12        -5.7390    2.3550    3.4750 h1        1 E94      0.034700
     56 H11        -3.9670    2.7680    3.3810 h1        1 E94      0.034700
     57 H22         2.7640   -1.1060    3.4440 ha        1 E94      0.156000
     58 H21         5.1930   -1.0730    4.2100 h4        1 E94      0.028100
     59 H23         6.1900    1.3420   -0.4100 hn        1 E94      0.443800
     60 H28         8.1110    0.3550   -1.4400 ha        1 E94      0.137000
     61 H27        10.5570    0.0530   -1.2800 ha        1 E94      0.136000
     62 H26        11.7470    0.3980    0.9020 ha        1 E94      0.152000
     63 H25         9.9960    1.3230    3.8150 ho        1 E94      0.421000
     64 H24         7.9850    1.4210    2.7880 ha        1 E94      0.156000
@<TRIPOS>BOND
     1    1    2 3   
     2    2    3 1   
     3    3    4 1   
     4    3   12 2   
     5    4    5 1   
     6    4   23 2   
     7    5    6 ar  
     8    5    7 ar  
     9    6   10 ar  
    10    6   38 1   
    11    7    8 ar  
    12    7   39 1   
    13    8    9 ar  
    14    8   40 1   
    15    9   10 ar  
    16    9   41 1   
    17   10   11 1   
    18   12   13 1   
    19   12   22 1   
    20   13   14 1   
    21   13   42 1   
    22   14   15 1   
    23   14   43 1   
    24   14   44 1   
    25   15   16 1   
    26   15   45 1   
    27   15   46 1   
    28   16   17 1   
    29   16   21 1   
    30   17   18 1   
    31   17   47 1   
    32   17   48 1   
    33   18   19 1   
    34   18   49 1   
    35   18   50 1   
    36   19   20 2   
    37   19   52 1   
    38   20   51 1   
    39   20   54 1   
    40   21   53 1   
    41   21   55 1   
    42   21   56 1   
    43   22   23 1   
    44   23   24 1   
    45   24   25 ar  
    46   24   29 ar  
    47   25   26 ar  
    48   25   57 1   
    49   26   27 ar  
    50   26   58 1   
    51   27   28 ar  
    52   28   29 ar  
    53   28   30 1   
    54   30   31 1   
    55   30   59 1   
    56   31   32 ar  
    57   31   37 ar  
    58   32   33 ar  
    59   32   60 1   
    60   33   34 ar  
    61   33   61 1   
    62   34   35 ar  
    63   34   62 1   
    64   35   36 1   
    65   35   37 ar  
    66   36   63 1   
    67   37   64 1   
@<TRIPOS>SUBSTRUCTURE
     1 E94         1 TEMP              0 ****  ****    0 ROOT
