@<TRIPOS>MOLECULE
E94
   66    70     1     0     0
SMALL
bcc


@<TRIPOS>ATOM
      1 N3         -1.0950   -0.5530   -1.9690 n1        1 E94     -0.228800
      2 C18        -0.4960   -0.2220   -1.0280 cg        1 E94      0.175800
      3 C17         0.2500    0.1740    0.1010 cc        1 E94      0.042000
      4 C7          1.6690    0.0280    0.2230 cc        1 E94      0.055000
      5 C3          2.5010   -0.5490   -0.8210 ca        1 E94     -0.086000
      6 C2          3.2800    0.2920   -1.6260 ca        1 E94     -0.101000
      7 C4          2.5070   -1.9330   -1.0410 ca        1 E94     -0.098000
      8 C5          3.2860   -2.4710   -2.0640 ca        1 E94     -0.108000
      9 C6          4.0610   -1.6420   -2.8740 ca        1 E94     -0.084000
     10 C1          4.0590   -0.2610   -2.6470 ca        1 E94      0.005400
     11 CL          4.9980    0.7620   -3.6220 cl        1 E94     -0.066400
     12 C9         -0.3070    0.7740    1.2440 cd        1 E94     -0.120500
     13 N1         -1.7140    1.0600    1.3790 n4        1 E94     -0.590400
     14 C10        -2.2820    0.6300    2.6990 c3        1 E94      0.082800
     15 C11        -3.7940    0.9830    2.8080 c3        1 E94      0.176800
     16 N2         -4.2610    0.5950    4.1160 n3        1 E94     -0.759600
     17 C16        -5.0100   -0.6570    4.1170 c3        1 E94      0.178300
     18 C15        -5.4270   -1.1030    5.5170 c3        1 E94     -0.077900
     19 C14        -6.1540    0.0040    6.2480 c3        1 E94     -0.085400
     20 C13        -5.3160    1.2630    6.2690 c3        1 E94     -0.077900
     21 C12        -4.8990    1.6760    4.8590 c3        1 E94      0.178300
     22 S           0.8680    1.1170    2.3880 ss        1 E94      0.257200
     23 C8          2.1060    0.5130    1.4570 cd        1 E94     -0.199600
     24 C19         3.4940    0.4940    1.9180 ca        1 E94      0.529800
     25 C22         3.8770   -0.3830    2.9550 ca        1 E94     -0.294600
     26 C21         5.2290   -0.3600    3.3630 ca        1 E94      0.473200
     27 N5          6.1430    0.4480    2.7980 nb        1 E94     -0.634000
     28 C20         5.6730    1.2520    1.7860 ca        1 E94      0.721900
     29 N4          4.3910    1.3250    1.3130 nb        1 E94     -0.653000
     30 N6          6.6790    2.1520    1.1320 n4        1 E94     -0.607100
     31 C23         7.7550    1.3990    0.4700 ca        1 E94     -0.022400
     32 C28         7.6800    1.1640   -0.9130 ca        1 E94     -0.144000
     33 C27         8.7360    0.4990   -1.5390 ca        1 E94     -0.062000
     34 C26         9.8410    0.0660   -0.8140 ca        1 E94     -0.155000
     35 C25         9.8940    0.2980    0.5720 ca        1 E94      0.164100
     36 O          10.9320   -0.0980    1.3670 oh        1 E94     -0.467100
     37 C24         8.8480    0.9670    1.2340 ca        1 E94     -0.131000
     38 H2          3.2640    1.3810   -1.4660 ha        1 E94      0.151000
     39 H3          1.8940   -2.5980   -0.4140 ha        1 E94      0.147000
     40 H4          3.2810   -3.5590   -2.2420 ha        1 E94      0.167000
     41 H5          4.6640   -2.0720   -3.6920 ha        1 E94      0.174000
     42 H6         -1.8620    2.0740    1.2580 hn        1 E94      0.465800
     43 H7         -1.7020    1.1480    3.5150 hx        1 E94      0.112700
     44 H8         -2.1390   -0.4840    2.7950 hx        1 E94      0.112700
     45 H9         -4.3420    0.4470    1.9790 h1        1 E94      0.056200
     46 H10        -3.9170    2.0920    2.6440 h1        1 E94      0.056200
     47 H20        -4.3480   -1.4470    3.6630 h1        1 E94      0.035950
     48 H19        -5.9370   -0.5720    3.4750 h1        1 E94      0.035950
     49 H18        -6.0910   -1.9990    5.4120 hc        1 E94      0.060950
     50 H17        -4.5230   -1.4130    6.1020 hc        1 E94      0.060950
     51 H15        -7.1360    0.2100    5.7450 hc        1 E94      0.060700
     52 H16        -6.3770   -0.3190    7.2980 hc        1 E94      0.060700
     53 H14        -4.4050    1.1010    6.9020 hc        1 E94      0.060950
     54 H13        -5.8990    2.1090    6.7190 hc        1 E94      0.060950
     55 H12        -4.1610    2.5230    4.9320 h1        1 E94      0.035950
     56 H11        -5.8110    2.0560    4.3110 h1        1 E94      0.035950
     57 H22         3.1600   -1.0700    3.4280 ha        1 E94      0.193000
     58 H21         5.6060   -1.0170    4.1760 h4        1 E94      0.086100
     59 H23         7.0930    2.7500    1.8640 hn        1 E94      0.481800
     60 H28         6.8160    1.4920   -1.5150 ha        1 E94      0.161000
     61 H27         8.6900    0.3200   -2.6270 ha        1 E94      0.176000
     62 H26        10.6710   -0.4540   -1.3210 ha        1 E94      0.176000
     63 H25        11.6130   -0.5160    0.8120 ho        1 E94      0.453000
     64 H24         8.9210    1.1230    2.3220 ha        1 E94      0.185000
     65 H121       -2.2260    0.5770    0.6240 hn        1 E94      0.465800
     66 H62         6.2050    2.7450    0.4330 hn        1 E94      0.481800
@<TRIPOS>BOND
     1    1    2 3   
     2    2    3 1   
     3    3    4 1   
     4    3   12 2   
     5    4    5 1   
     6    4   23 2   
     7    5    6 ar  
     8    5    7 ar  
     9    6   10 ar  
    10    6   38 1   
    11    7    8 ar  
    12    7   39 1   
    13    8    9 ar  
    14    8   40 1   
    15    9   10 ar  
    16    9   41 1   
    17   10   11 1   
    18   12   13 1   
    19   12   22 1   
    20   13   14 1   
    21   13   42 1   
    22   13   65 1   
    23   14   15 1   
    24   14   43 1   
    25   14   44 1   
    26   15   16 1   
    27   15   45 1   
    28   15   46 1   
    29   16   17 1   
    30   16   21 1   
    31   17   18 1   
    32   17   47 1   
    33   17   48 1   
    34   18   19 1   
    35   18   49 1   
    36   18   50 1   
    37   19   20 1   
    38   19   51 1   
    39   19   52 1   
    40   20   21 1   
    41   20   53 1   
    42   20   54 1   
    43   21   55 1   
    44   21   56 1   
    45   22   23 1   
    46   23   24 1   
    47   24   25 ar  
    48   24   29 ar  
    49   25   26 ar  
    50   25   57 1   
    51   26   27 ar  
    52   26   58 1   
    53   27   28 ar  
    54   28   29 ar  
    55   28   30 1   
    56   30   31 1   
    57   30   59 1   
    58   30   66 1   
    59   31   32 ar  
    60   31   37 ar  
    61   32   33 ar  
    62   32   60 1   
    63   33   34 ar  
    64   33   61 1   
    65   34   35 ar  
    66   34   62 1   
    67   35   36 1   
    68   35   37 ar  
    69   36   63 1   
    70   37   64 1   
@<TRIPOS>SUBSTRUCTURE
     1 E94         1 TEMP              0 ****  ****    0 ROOT
