@<TRIPOS>MOLECULE
E96
   50    55     1     0     0
SMALL
bcc


@<TRIPOS>ATOM
      1 OA         -0.4370   -1.0610   10.6760 oh        1 E96     -0.493100
      2 C1A        -0.2150   -0.7510    9.3550 ca        1 E96      0.140100
      3 C2A         1.0690   -0.5740    8.8230 ca        1 E96     -0.191000
      4 C3A         1.2140   -0.2670    7.4730 ca        1 E96     -0.063250
      5 C4A        -1.3560   -0.6170    8.5450 ca        1 E96     -0.191000
      6 C5A        -1.1970   -0.3090    7.1990 ca        1 E96     -0.063250
      7 C6A         0.0840   -0.1390    6.6530 ca        1 E96     -0.153900
      8 C1B         0.2580    0.1860    5.2360 cc        1 E96      0.476400
      9 N2B        -0.6430   -0.2830    4.2470 na        1 E96     -0.281300
     10 N3B         1.2550    0.9380    4.7130 nd        1 E96     -0.563100
     11 C4B         1.0180    0.9670    3.3280 ca        1 E96      0.070400
     12 C5B        -0.1740    0.1950    3.0220 ca        1 E96     -0.072200
     13 C6B        -0.6420    0.0540    1.7120 ca        1 E96     -0.124000
     14 C7B         1.7140    1.5890    2.2810 ca        1 E96     -0.072000
     15 C8B         1.2390    1.4360    0.9890 ca        1 E96     -0.143000
     16 C9B         0.0790    0.6820    0.6960 cp        1 E96     -0.021000
     17 C9C        -0.3680    0.5590   -0.6930 cp        1 E96     -0.021000
     18 C8C        -1.7450    0.6800   -0.9940 ca        1 E96     -0.143000
     19 C7C        -2.2310    0.5740   -2.2850 ca        1 E96     -0.072000
     20 C6C         0.5670    0.3230   -1.7000 ca        1 E96     -0.124000
     21 C5C         0.0930    0.2100   -3.0110 ca        1 E96     -0.072200
     22 C4C        -1.3210    0.3350   -3.3250 ca        1 E96      0.070400
     23 N3C        -1.5110    0.1780   -4.7090 nc        1 E96     -0.563100
     24 N2C         0.7330   -0.0310   -4.2280 na        1 E96     -0.281300
     25 C1C        -0.2760   -0.0340   -5.2240 cd        1 E96      0.476400
     26 C6D         0.0370   -0.2450   -6.6380 ca        1 E96     -0.153900
     27 C5D        -0.7480    0.3800   -7.6170 ca        1 E96     -0.063250
     28 C4D        -0.4660    0.1910   -8.9670 ca        1 E96     -0.191000
     29 C3D         1.1020   -1.0740   -7.0220 ca        1 E96     -0.063250
     30 C2D         1.3950   -1.2710   -8.3660 ca        1 E96     -0.191000
     31 C1D         0.6060   -0.6320   -9.3390 ca        1 E96      0.140100
     32 OD          0.9480   -0.8620  -10.6490 oh        1 E96     -0.493100
     33 HOA         0.4220   -1.1060   11.1220 ho        1 E96      0.423000
     34 H2A         1.9560   -0.6740    9.4650 ha        1 E96      0.147500
     35 H3A         2.2210   -0.1210    7.0510 ha        1 E96      0.147000
     36 H4A        -2.3540   -0.7510    8.9850 ha        1 E96      0.147500
     37 H5A        -2.0930   -0.1830    6.5730 ha        1 E96      0.147000
     38 H2B        -1.4060   -0.8870    4.3910 hn        1 E96      0.306700
     39 H6B        -1.5410   -0.5350    1.4860 ha        1 E96      0.141000
     40 H7B         2.6140    2.1850    2.4900 ha        1 E96      0.148000
     41 H8B         1.7710    1.9250    0.1580 ha        1 E96      0.136000
     42 H8C        -2.4470    0.8760   -0.1680 ha        1 E96      0.136000
     43 H7C        -3.3050    0.6740   -2.5010 ha        1 E96      0.148000
     44 H6C         1.6350    0.2220   -1.4690 ha        1 E96      0.141000
     45 H2C         1.7010   -0.1210   -4.3770 hn        1 E96      0.306700
     46 H5D        -1.5930    1.0210   -7.3190 ha        1 E96      0.147000
     47 H4D        -1.0820    0.6820   -9.7340 ha        1 E96      0.147500
     48 H3D         1.7080   -1.5930   -6.2640 ha        1 E96      0.147000
     49 H2D         2.2250   -1.9190   -8.6800 ha        1 E96      0.147500
     50 HOD         0.3220   -0.3810  -11.2120 ho        1 E96      0.423000
@<TRIPOS>BOND
     1    1    2 1   
     2    1   33 1   
     3    2    3 ar  
     4    2    5 ar  
     5    3    4 ar  
     6    3   34 1   
     7    4    7 ar  
     8    4   35 1   
     9    5    6 ar  
    10    5   36 1   
    11    6    7 ar  
    12    6   37 1   
    13    7    8 1   
    14    8    9 1   
    15    8   10 2   
    16    9   12 1   
    17    9   38 1   
    18   10   11 1   
    19   11   12 ar  
    20   11   14 ar  
    21   12   13 ar  
    22   13   16 ar  
    23   13   39 1   
    24   14   15 ar  
    25   14   40 1   
    26   15   16 ar  
    27   15   41 1   
    28   16   17 1   
    29   17   18 ar  
    30   17   20 ar  
    31   18   19 ar  
    32   18   42 1   
    33   19   22 ar  
    34   19   43 1   
    35   20   21 ar  
    36   20   44 1   
    37   21   22 ar  
    38   21   24 1   
    39   22   23 1   
    40   23   25 2   
    41   24   25 1   
    42   24   45 1   
    43   25   26 1   
    44   26   27 ar  
    45   26   29 ar  
    46   27   28 ar  
    47   27   46 1   
    48   28   31 ar  
    49   28   47 1   
    50   29   30 ar  
    51   29   48 1   
    52   30   31 ar  
    53   30   49 1   
    54   31   32 1   
    55   32   50 1   
@<TRIPOS>SUBSTRUCTURE
     1 E96         1 TEMP              0 ****  ****    0 ROOT
