@<TRIPOS>MOLECULE
E96
   50    55     1     0     0
SMALL
bcc


@<TRIPOS>ATOM
      1 OA         -0.0160   -0.1250   -0.2240 oh        1 E96     -0.493100
      2 C1A         1.3520   -0.0650   -0.1100 ca        1 E96      0.140100
      3 C2A         2.0050    0.0980    1.1200 ca        1 E96     -0.191000
      4 C3A         3.3950    0.1450    1.1560 ca        1 E96     -0.063250
      5 C4A         2.0850   -0.1740   -1.3050 ca        1 E96     -0.191000
      6 C5A         3.4720   -0.1250   -1.2550 ca        1 E96     -0.063250
      7 C6A         4.1360    0.0280   -0.0280 ca        1 E96     -0.153900
      8 C1B         5.5980    0.0810    0.0310 cc        1 E96      0.476400
      9 N2B         6.4090   -0.6370   -0.8840 na        1 E96     -0.281300
     10 N3B         6.3290    0.7870    0.9260 nd        1 E96     -0.563100
     11 C4B         7.6730    0.5270    0.6050 ca        1 E96      0.070400
     12 C5B         7.7340   -0.3750   -0.5330 ca        1 E96     -0.072200
     13 C6B         8.9550   -0.8020   -1.0660 ca        1 E96     -0.124000
     14 C7B         8.8680    0.9820    1.1800 ca        1 E96     -0.072000
     15 C8B        10.0670    0.5460    0.6420 ca        1 E96     -0.143000
     16 C9B        10.1230   -0.3340   -0.4640 cp        1 E96     -0.021000
     17 C9C        11.4250   -0.7580   -0.9820 cp        1 E96     -0.021000
     18 C8C        11.6380   -0.7990   -2.3800 ca        1 E96     -0.143000
     19 C7C        12.8450   -1.1910   -2.9330 ca        1 E96     -0.072000
     20 C6C        12.4380   -1.1170   -0.0930 ca        1 E96     -0.124000
     21 C5C        13.6630   -1.5180   -0.6340 ca        1 E96     -0.072200
     22 C4C        13.8870   -1.5600   -2.0700 ca        1 E96      0.070400
     23 N3C        15.1980   -1.9970   -2.3290 nc        1 E96     -0.563100
     24 N2C        14.8580   -1.9440   -0.0500 na        1 E96     -0.281300
     25 C1C        15.7550   -2.2150   -1.1130 cd        1 E96      0.476400
     26 C6D        17.1230   -2.6740   -0.8700 ca        1 E96     -0.153900
     27 C5D        18.1400   -2.3110   -1.7630 ca        1 E96     -0.063250
     28 C4D        19.4480   -2.7370   -1.5490 ca        1 E96     -0.191000
     29 C3D        17.4240   -3.4820    0.2380 ca        1 E96     -0.063250
     30 C2D        18.7240   -3.9140    0.4640 ca        1 E96     -0.191000
     31 C1D        19.7380   -3.5360   -0.4330 ca        1 E96      0.140100
     32 OD         21.0030   -3.9910   -0.1540 oh        1 E96     -0.493100
     33 HOA        -0.3960   -0.0200    0.6610 ho        1 E96      0.423000
     34 H2A         1.4240    0.1900    2.0490 ha        1 E96      0.147500
     35 H3A         3.9130    0.2790    2.1190 ha        1 E96      0.147000
     36 H4A         1.5520   -0.2920   -2.2590 ha        1 E96      0.147500
     37 H5A         4.0410   -0.1900   -2.1950 ha        1 E96      0.147000
     38 H2B         6.0950   -1.2550   -1.5820 hn        1 E96      0.306700
     39 H6B         8.9950   -1.4890   -1.9220 ha        1 E96      0.141000
     40 H7B         8.8450    1.6710    2.0360 ha        1 E96      0.148000
     41 H8B        11.0140    0.9000    1.0780 ha        1 E96      0.136000
     42 H8C        10.8130   -0.4980   -3.0450 ha        1 E96      0.136000
     43 H7C        12.9930   -1.2130   -4.0220 ha        1 E96      0.148000
     44 H6C        12.2730   -1.0920    0.9930 ha        1 E96      0.141000
     45 H2C        15.0600   -1.9900    0.9110 hn        1 E96      0.306700
     46 H5D        17.9060   -1.6870   -2.6410 ha        1 E96      0.147000
     47 H4D        20.2450   -2.4520   -2.2500 ha        1 E96      0.147500
     48 H3D        16.6300   -3.7970    0.9320 ha        1 E96      0.147000
     49 H2D        18.9720   -4.5480    1.3270 ha        1 E96      0.147500
     50 HOD        21.5970   -3.6770   -0.8520 ho        1 E96      0.423000
@<TRIPOS>BOND
     1    1    2 1   
     2    1   33 1   
     3    2    3 ar  
     4    2    5 ar  
     5    3    4 ar  
     6    3   34 1   
     7    4    7 ar  
     8    4   35 1   
     9    5    6 ar  
    10    5   36 1   
    11    6    7 ar  
    12    6   37 1   
    13    7    8 1   
    14    8    9 1   
    15    8   10 2   
    16    9   12 1   
    17    9   38 1   
    18   10   11 1   
    19   11   12 ar  
    20   11   14 ar  
    21   12   13 ar  
    22   13   16 ar  
    23   13   39 1   
    24   14   15 ar  
    25   14   40 1   
    26   15   16 ar  
    27   15   41 1   
    28   16   17 1   
    29   17   18 ar  
    30   17   20 ar  
    31   18   19 ar  
    32   18   42 1   
    33   19   22 ar  
    34   19   43 1   
    35   20   21 ar  
    36   20   44 1   
    37   21   22 ar  
    38   21   24 1   
    39   22   23 1   
    40   23   25 2   
    41   24   25 1   
    42   24   45 1   
    43   25   26 1   
    44   26   27 ar  
    45   26   29 ar  
    46   27   28 ar  
    47   27   46 1   
    48   28   31 ar  
    49   28   47 1   
    50   29   30 ar  
    51   29   48 1   
    52   30   31 ar  
    53   30   49 1   
    54   31   32 1   
    55   32   50 1   
@<TRIPOS>SUBSTRUCTURE
     1 E96         1 TEMP              0 ****  ****    0 ROOT
