@<TRIPOS>MOLECULE
E96
   50    55     1     0     0
SMALL
bcc


@<TRIPOS>ATOM
      1 OA         -0.0160   -0.1240   -0.2310 oh        1 E96     -0.493100
      2 C1A         1.3520   -0.0640   -0.1160 ca        1 E96      0.140100
      3 C2A         2.0040    0.0970    1.1150 ca        1 E96     -0.191000
      4 C3A         3.3940    0.1440    1.1520 ca        1 E96     -0.063250
      5 C4A         2.0860   -0.1720   -1.3100 ca        1 E96     -0.191000
      6 C5A         3.4730   -0.1220   -1.2590 ca        1 E96     -0.063250
      7 C6A         4.1360    0.0290   -0.0320 ca        1 E96     -0.153900
      8 C1B         5.5980    0.0810    0.0280 cc        1 E96      0.476400
      9 N2B         6.4090   -0.6350   -0.8870 na        1 E96     -0.281300
     10 N3B         6.3280    0.7870    0.9250 nd        1 E96     -0.563100
     11 C4B         7.6720    0.5270    0.6040 ca        1 E96      0.070400
     12 C5B         7.7350   -0.3730   -0.5350 ca        1 E96     -0.072200
     13 C6B         8.9550   -0.8000   -1.0670 ca        1 E96     -0.124000
     14 C7B         8.8670    0.9810    1.1810 ca        1 E96     -0.072000
     15 C8B        10.0670    0.5450    0.6440 ca        1 E96     -0.143000
     16 C9B        10.1230   -0.3330   -0.4640 cp        1 E96     -0.021000
     17 C9C        11.4260   -0.7570   -0.9810 cp        1 E96     -0.021000
     18 C8C        11.6400   -0.7950   -2.3790 ca        1 E96     -0.143000
     19 C7C        12.8470   -1.1870   -2.9310 ca        1 E96     -0.072000
     20 C6C        12.4380   -1.1170   -0.0920 ca        1 E96     -0.124000
     21 C5C        13.6630   -1.5180   -0.6320 ca        1 E96     -0.072200
     22 C4C        13.8880   -1.5580   -2.0680 ca        1 E96      0.070400
     23 N3C        15.1990   -1.9950   -2.3260 nc        1 E96     -0.563100
     24 N2C        14.8570   -1.9450   -0.0480 na        1 E96     -0.281300
     25 C1C        15.7550   -2.2150   -1.1110 cd        1 E96      0.476400
     26 C6D        17.1230   -2.6750   -0.8660 ca        1 E96     -0.153900
     27 C5D        18.1410   -2.3110   -1.7580 ca        1 E96     -0.063250
     28 C4D        19.4480   -2.7390   -1.5440 ca        1 E96     -0.191000
     29 C3D        17.4220   -3.4850    0.2400 ca        1 E96     -0.063250
     30 C2D        18.7220   -3.9180    0.4670 ca        1 E96     -0.191000
     31 C1D        19.7360   -3.5400   -0.4290 ca        1 E96      0.140100
     32 OD         21.0020   -3.9960   -0.1490 oh        1 E96     -0.493100
     33 HOA        -0.3970   -0.0210    0.6540 ho        1 E96      0.423000
     34 H2A         1.4230    0.1870    2.0430 ha        1 E96      0.147500
     35 H3A         3.9110    0.2760    2.1160 ha        1 E96      0.147000
     36 H4A         1.5540   -0.2880   -2.2650 ha        1 E96      0.147500
     37 H5A         4.0420   -0.1860   -2.1990 ha        1 E96      0.147000
     38 H2B         6.0960   -1.2520   -1.5860 hn        1 E96      0.306700
     39 H6B         8.9960   -1.4850   -1.9250 ha        1 E96      0.141000
     40 H7B         8.8430    1.6690    2.0380 ha        1 E96      0.148000
     41 H8B        11.0140    0.8980    1.0810 ha        1 E96      0.136000
     42 H8C        10.8160   -0.4930   -3.0440 ha        1 E96      0.136000
     43 H7C        12.9960   -1.2080   -4.0200 ha        1 E96      0.148000
     44 H6C        12.2720   -1.0940    0.9940 ha        1 E96      0.141000
     45 H2C        15.0590   -1.9940    0.9140 hn        1 E96      0.306700
     46 H5D        17.9080   -1.6860   -2.6360 ha        1 E96      0.147000
     47 H4D        20.2460   -2.4530   -2.2430 ha        1 E96      0.147500
     48 H3D        16.6270   -3.8010    0.9320 ha        1 E96      0.147000
     49 H2D        18.9690   -4.5540    1.3290 ha        1 E96      0.147500
     50 HOD        21.5960   -3.6800   -0.8460 ho        1 E96      0.423000
@<TRIPOS>BOND
     1    1    2 1   
     2    1   33 1   
     3    2    3 ar  
     4    2    5 ar  
     5    3    4 ar  
     6    3   34 1   
     7    4    7 ar  
     8    4   35 1   
     9    5    6 ar  
    10    5   36 1   
    11    6    7 ar  
    12    6   37 1   
    13    7    8 1   
    14    8    9 1   
    15    8   10 2   
    16    9   12 1   
    17    9   38 1   
    18   10   11 1   
    19   11   12 ar  
    20   11   14 ar  
    21   12   13 ar  
    22   13   16 ar  
    23   13   39 1   
    24   14   15 ar  
    25   14   40 1   
    26   15   16 ar  
    27   15   41 1   
    28   16   17 1   
    29   17   18 ar  
    30   17   20 ar  
    31   18   19 ar  
    32   18   42 1   
    33   19   22 ar  
    34   19   43 1   
    35   20   21 ar  
    36   20   44 1   
    37   21   22 ar  
    38   21   24 1   
    39   22   23 1   
    40   23   25 2   
    41   24   25 1   
    42   24   45 1   
    43   25   26 1   
    44   26   27 ar  
    45   26   29 ar  
    46   27   28 ar  
    47   27   46 1   
    48   28   31 ar  
    49   28   47 1   
    50   29   30 ar  
    51   29   48 1   
    52   30   31 ar  
    53   30   49 1   
    54   31   32 1   
    55   32   50 1   
@<TRIPOS>SUBSTRUCTURE
     1 E96         1 TEMP              0 ****  ****    0 ROOT
