@<TRIPOS>MOLECULE
E96
   50    38     1     0     0
SMALL
bcc


@<TRIPOS>ATOM
      1 OA        -10.5200    1.3190    0.4030 oh        1 E96     -0.247000
      2 C1A        -9.1130    1.3250    0.3940 c2        1 E96      0.095000
      3 C2A        -8.4110    0.3850    1.1330 c2        1 E96     -0.220000
      4 C3A        -7.0260    0.3550    1.0800 c1        1 E96     -0.044000
      5 C4A        -8.4300    2.2350   -0.3980 c1        1 E96     -0.162000
      6 C5A        -7.0450    2.2050   -0.4500 c1        1 E96     -0.116667
      7 C6A        -6.3430    1.2660    0.2890 c1        1 E96     -0.037333
      8 C1B        -4.9590    1.2180    0.2140 c1        1 E96      0.066000
      9 N2B        -4.0330    0.5400   -0.5160 n2        1 E96     -0.187000
     10 N3B        -4.2980    2.0520    1.0600 n2        1 E96     -0.187000
     11 C4B        -2.9680    1.8910    0.8550 c1        1 E96     -0.048000
     12 C5B        -2.8030    0.9530   -0.1220 c1        1 E96     -0.048000
     13 C6B        -1.5070    0.5730   -0.5230 c1        1 E96     -0.098000
     14 C7B        -1.8410    2.4790    1.4630 c1        1 E96     -0.098000
     15 C8B        -0.5660    2.1040    1.0680 c1        1 E96     -0.116667
     16 C9B        -0.3990    1.1520    0.0760 c1        1 E96     -0.037333
     17 C9C         0.9020    0.7480   -0.1890 c1        1 E96     -0.037333
     18 C8C         1.3850    1.3530   -1.3380 c1        1 E96     -0.107000
     19 C7C         2.6460    1.0290   -1.8150 c1        1 E96     -0.107000
     20 C6C         1.6790   -0.1830    0.4830 c1        1 E96     -0.116667
     21 C5C         2.9600   -0.5130   -0.0010 c1        1 E96     -0.048000
     22 C4C         3.4350    0.0840   -1.1330 c1        1 E96     -0.048000
     23 N3C         4.6810   -0.3990   -1.3680 n1        1 E96     -0.186000
     24 N2C         3.9140   -1.3610    0.4560 n1        1 E96     -0.186000
     25 C1C         4.9780   -1.2920   -0.3870 c2        1 E96      0.065000
     26 C6D         6.1790   -1.9840   -0.3270 c1        1 E96     -0.070000
     27 C5D         6.3090   -3.2040   -0.9730 c1        1 E96     -0.107000
     28 C4D         7.4900   -3.9220   -0.8670 c1        1 E96     -0.107000
     29 C3D         7.2310   -1.4820    0.4240 c1        1 E96     -0.077000
     30 C2D         8.4120   -2.2000    0.5290 c1        1 E96     -0.219000
     31 C1D         8.5420   -3.4200   -0.1160 c1        1 E96      0.095000
     32 OD          9.7260   -4.1670    0.0220 oh        1 E96     -0.246000
     33 HOA       -10.8140    1.7620    1.1160 ho        1 E96      0.222000
     34 H2A        -8.8920   -0.2560    1.6900 ha        1 E96      0.140000
     35 H3A        -6.5320   -0.3060    1.6000 ha        1 E96      0.159000
     36 H4A        -8.9240    2.8970   -0.9180 ha        1 E96      0.155000
     37 H5A        -6.5640    2.8460   -1.0080 ha        1 E96      0.137000
     38 H2B        -4.2090   -0.0860   -1.1560 DU        1 E96      0.256500
     39 H6B        -1.3900   -0.0980   -1.2220 ha        1 E96      0.144500
     40 H7B        -1.9580    3.1490    2.1620 ha        1 E96      0.144500
     41 H8B         0.2150    2.5120    1.4900 ha        1 E96      0.137000
     42 H8C         0.8430    2.0180   -1.8040 ha        1 E96      0.150750
     43 H7C         2.9860    1.4550   -2.6250 ha        1 E96      0.150750
     44 H6C         1.3370   -0.6130    1.2900 ha        1 E96      0.137000
     45 H2C         3.8520   -1.8860    1.2000 DU        1 E96      0.256500
     46 H5D         5.5690   -3.5570   -1.5020 ha        1 E96      0.150750
     47 H4D         7.5820   -4.7810   -1.3220 ha        1 E96      0.150750
     48 H3D         7.1400   -0.6230    0.8780 ha        1 E96      0.133000
     49 H2D         9.1520   -1.8470    1.0580 ha        1 E96      0.138000
     50 HOD        10.4010   -3.7240   -0.3510 ho        1 E96      0.221000
@<TRIPOS>BOND
     1    1    2 1   
     2    1   33 1   
     3    2    3 1   
     4    2    5 1   
     5    3    4 1   
     6    3   34 1   
     7    4   35 1   
     8    5   36 1   
     9    6    7 1   
    10    6   37 1   
    11    8    9 1   
    12    8   10 1   
    13    9   12 1   
    14   10   11 1   
    15   11   14 1   
    16   12   13 1   
    17   13   39 1   
    18   14   40 1   
    19   15   16 1   
    20   15   41 1   
    21   17   20 1   
    22   18   19 1   
    23   18   42 1   
    24   19   43 1   
    25   20   44 1   
    26   21   22 1   
    27   23   25 1   
    28   24   25 1   
    29   25   26 1   
    30   26   29 1   
    31   27   28 1   
    32   27   46 1   
    33   28   47 1   
    34   29   48 1   
    35   30   31 1   
    36   30   49 1   
    37   31   32 1   
    38   32   50 1   
@<TRIPOS>SUBSTRUCTURE
     1 E96         1 TEMP              0 ****  ****    0 ROOT
