@<TRIPOS>MOLECULE
E97
   86    91     1     0     0
SMALL
bcc


@<TRIPOS>ATOM
      1 C1          0.2870   -0.2030    0.4990 ca        1 E97     -0.064000
      2 C2          1.6900   -0.1890    0.5170 ca        1 E97      0.066400
      3 C3         -0.3860   -0.2520    1.7070 ca        1 E97     -0.141000
      4 C4          0.2920   -0.2930    2.9490 cp        1 E97     -0.010000
      5 C5          1.6850   -0.2880    3.0050 ca        1 E97     -0.128000
      6 C6          2.3830   -0.2360    1.7940 ca        1 E97     -0.067200
      7 C7         -0.4890   -0.3380    4.1870 cp        1 E97     -0.063000
      8 C8         -0.0970   -1.2190    5.2220 ca        1 E97     -0.095000
      9 C9         -0.7960   -1.3160    6.4130 ca        1 E97     -0.136000
     10 C10        -1.9230   -0.4990    6.5700 ca        1 E97     -0.063200
     11 C11        -1.6080    0.4810    4.3270 ca        1 E97     -0.051000
     12 C12        -2.3400    0.4160    5.5210 ca        1 E97      0.062400
     13 N13        -2.8500   -0.3480    7.6010 na        1 E97     -0.276300
     14 C14        -3.7680    0.6450    7.1760 cc        1 E97      0.453400
     15 N15        -3.4910    1.1110    5.9360 nd        1 E97     -0.547100
     16 N16         2.6310   -0.1340   -0.5260 nc        1 E97     -0.548100
     17 C17         3.8420   -0.1450    0.0780 cd        1 E97      0.451400
     18 N18         3.7470   -0.2300    1.4900 na        1 E97     -0.277300
     19 C19        -4.8860    1.0830    8.0150 ca        1 E97     -0.120900
     20 C20        -5.3010    2.4230    7.9580 ca        1 E97     -0.069500
     21 C21        -6.3740    2.8580    8.7280 ca        1 E97     -0.169000
     22 C22        -7.0320    1.9410    9.5630 ca        1 E97      0.110100
     23 C23        -5.5540    0.1800    8.8490 ca        1 E97     -0.069500
     24 C24        -6.6290    0.6040    9.6300 ca        1 E97     -0.169000
     25 C25         5.1320   -0.0920   -0.6140 ca        1 E97     -0.118900
     26 C26         5.2470    0.6740   -1.7850 ca        1 E97     -0.071000
     27 C27         6.4530    0.7230   -2.4760 ca        1 E97     -0.168000
     28 C28         7.5520    0.0000   -1.9830 ca        1 E97      0.107100
     29 C29         7.4520   -0.7640   -0.8170 ca        1 E97     -0.168000
     30 C30         6.2350   -0.8080   -0.1370 ca        1 E97     -0.071000
     31 O31         8.7280    0.1550   -2.7060 os        1 E97     -0.331900
     32 C32         9.6600   -0.9210   -2.5910 c3        1 E97      0.137400
     33 C33        10.5750   -0.7710   -3.8030 c3        1 E97     -0.123400
     34 C34        11.6700   -1.8230   -3.7350 c3        1 E97      0.107800
     35 N35        12.6770   -1.6940   -4.8430 n4        1 E97     -0.679400
     36 O36        -8.0570    2.4800   10.3300 os        1 E97     -0.331900
     37 C37        -9.0250    1.5440   10.8040 c3        1 E97      0.137400
     38 C38       -10.2210    2.4000   11.2120 c3        1 E97     -0.122400
     39 C39       -11.2690    1.5110   11.8640 c3        1 E97      0.107800
     40 N40       -12.5220    2.2560   12.2330 n4        1 E97     -0.679400
     41 C41       -13.6520    1.3110   12.4370 c3        1 E97      0.081100
     42 C42       -12.3180    3.0950   13.4440 c3        1 E97      0.081100
     43 C43        13.9290   -2.4190   -4.5000 c3        1 E97      0.081100
     44 C44        12.1290   -2.1820   -6.1360 c3        1 E97      0.081100
     45 H1         -0.2560   -0.1770   -0.4570 ha        1 E97      0.154000
     46 H3         -1.4880   -0.2670    1.7100 ha        1 E97      0.143000
     47 H5          2.2130   -0.3150    3.9670 ha        1 E97      0.141000
     48 H8          0.7900   -1.8530    5.0660 ha        1 E97      0.139000
     49 H9         -0.4810   -2.0100    7.2030 ha        1 E97      0.140000
     50 H11        -1.9130    1.1710    3.5260 ha        1 E97      0.157000
     51 H13        -2.8120   -0.7640    8.4920 hn        1 E97      0.306700
     52 H18         4.4890   -0.1370    2.1300 hn        1 E97      0.305700
     53 H20        -4.7800    3.1340    7.2950 ha        1 E97      0.156500
     54 H21        -6.7060    3.9060    8.6950 ha        1 E97      0.146000
     55 H23        -5.2490   -0.8770    8.8890 ha        1 E97      0.156500
     56 H24        -7.1400   -0.1130   10.2870 ha        1 E97      0.146000
     57 H26         4.3760    1.2330   -2.1660 ha        1 E97      0.157000
     58 H27         6.5580    1.3230   -3.3920 ha        1 E97      0.145500
     59 H29         8.3140   -1.3250   -0.4300 ha        1 E97      0.145500
     60 H30         6.1510   -1.4250    0.7710 ha        1 E97      0.157000
     61 H321       10.2350   -0.8040   -1.6340 h1        1 E97      0.053700
     62 H322        9.1340   -1.9110   -2.6000 h1        1 E97      0.053700
     63 H331       11.0050    0.2660   -3.8010 hc        1 E97      0.083200
     64 H332        9.9590   -0.8820   -4.7340 hc        1 E97      0.083200
     65 H341       12.2260   -1.7250   -2.7570 hx        1 E97      0.105700
     66 H342       11.2260   -2.8580   -3.7920 hx        1 E97      0.105700
     67 H371       -8.6040    0.9940   11.6860 h1        1 E97      0.053200
     68 H372       -9.3040    0.8150    9.9980 h1        1 E97      0.053200
     69 H381      -10.6300    2.9090   10.2980 hc        1 E97      0.083700
     70 H382       -9.8660    3.1980   11.9160 hc        1 E97      0.083700
     71 H391      -11.5610    0.6870   11.1490 hx        1 E97      0.105200
     72 H392      -10.8570    1.0420   12.8030 hx        1 E97      0.105200
     73 H411      -13.3890    0.5810   13.2480 hx        1 E97      0.108033
     74 H412      -14.5690    1.8880   12.7340 hx        1 E97      0.108033
     75 H413      -13.8520    0.7550   11.4810 hx        1 E97      0.108033
     76 H421      -13.2540    3.6830   13.6490 hx        1 E97      0.108033
     77 H422      -11.4620    3.8010   13.2680 hx        1 E97      0.108033
     78 H423      -12.0890    2.4380   14.3240 hx        1 E97      0.108033
     79 H431       14.6560   -2.3270   -5.3510 hx        1 E97      0.107867
     80 H432       14.3790   -1.9710   -3.5730 hx        1 E97      0.107867
     81 H433       13.6980   -3.5020   -4.3200 hx        1 E97      0.107867
     82 H441       11.9020   -3.2790   -6.0600 hx        1 E97      0.107867
     83 H442       12.8860   -2.0120   -6.9480 hx        1 E97      0.107867
     84 H443       11.1860   -1.6200   -6.3770 hx        1 E97      0.107867
     85 H351       12.9000   -0.6930   -4.9490 hn        1 E97      0.453800
     86 H401      -12.7590    2.8810   11.4480 hn        1 E97      0.453800
@<TRIPOS>BOND
     1    1    2 ar  
     2    1    3 ar  
     3    1   45 1   
     4    2    6 ar  
     5    2   16 1   
     6    3    4 ar  
     7    3   46 1   
     8    4    5 ar  
     9    4    7 1   
    10    5    6 ar  
    11    5   47 1   
    12    6   18 1   
    13    7    8 ar  
    14    7   11 ar  
    15    8    9 ar  
    16    8   48 1   
    17    9   10 ar  
    18    9   49 1   
    19   10   12 ar  
    20   10   13 1   
    21   11   12 ar  
    22   11   50 1   
    23   12   15 1   
    24   13   14 1   
    25   13   51 1   
    26   14   15 2   
    27   14   19 1   
    28   16   17 2   
    29   17   18 1   
    30   17   25 1   
    31   18   52 1   
    32   19   20 ar  
    33   19   23 ar  
    34   20   21 ar  
    35   20   53 1   
    36   21   22 ar  
    37   21   54 1   
    38   22   24 ar  
    39   22   36 1   
    40   23   24 ar  
    41   23   55 1   
    42   24   56 1   
    43   25   26 ar  
    44   25   30 ar  
    45   26   27 ar  
    46   26   57 1   
    47   27   28 ar  
    48   27   58 1   
    49   28   29 ar  
    50   28   31 1   
    51   29   30 ar  
    52   29   59 1   
    53   30   60 1   
    54   31   32 1   
    55   32   33 1   
    56   32   61 1   
    57   32   62 1   
    58   33   34 1   
    59   33   63 1   
    60   33   64 1   
    61   34   35 1   
    62   34   65 1   
    63   34   66 1   
    64   35   43 1   
    65   35   44 1   
    66   35   85 1   
    67   36   37 1   
    68   37   38 1   
    69   37   67 1   
    70   37   68 1   
    71   38   39 1   
    72   38   69 1   
    73   38   70 1   
    74   39   40 1   
    75   39   71 1   
    76   39   72 1   
    77   40   41 1   
    78   40   42 1   
    79   40   86 1   
    80   41   73 1   
    81   41   74 1   
    82   41   75 1   
    83   42   76 1   
    84   42   77 1   
    85   42   78 1   
    86   43   79 1   
    87   43   80 1   
    88   43   81 1   
    89   44   82 1   
    90   44   83 1   
    91   44   84 1   
@<TRIPOS>SUBSTRUCTURE
     1 E97         1 TEMP              0 ****  ****    0 ROOT
