@<TRIPOS>MOLECULE
E97
   84    70     1     0     0
SMALL
bcc


@<TRIPOS>ATOM
      1 C1         -0.8460   -2.1320   -3.1970 c1        1 E97     -0.125667
      2 C2          0.5600   -2.1360   -3.2140 c1        1 E97     -0.048000
      3 C3         -1.5240   -2.1270   -1.9920 c1        1 E97     -0.125667
      4 C4         -0.8130   -2.1260   -0.7950 c1        1 E97     -0.043250
      5 C5          0.5750   -2.1300   -0.8120 c1        1 E97     -0.106250
      6 C6          1.2600   -2.1360   -2.0330 c1        1 E97     -0.048000
      7 C7         -1.6370   -2.0240    0.3260 c1        1 E97     -0.043250
      8 C8         -1.6470   -3.2260    1.0350 c1        1 E97     -0.106250
      9 C9         -2.2910   -3.3020    2.2700 c1        1 E97     -0.106250
     10 C10        -2.9390   -2.1510    2.8080 c1        1 E97     -0.043250
     11 C11        -2.2670   -0.9030    0.8490 c1        1 E97     -0.106250
     12 C12        -2.9280   -0.9780    2.1160 c1        1 E97     -0.043250
     13 N13        -3.6270   -1.9470    3.9660 n1        1 E97     -0.186750
     14 C14        -4.0420   -0.6420    3.9880 c2        1 E97      0.065500
     15 N15        -3.6120   -0.0470    2.8500 n1        1 E97     -0.186750
     16 N16         1.4630   -2.1390   -4.2390 n1        1 E97     -0.186750
     17 C17         2.7230   -2.1410   -3.6940 c2        1 E97      0.065500
     18 N18         2.5970   -2.1390   -2.3340 n1        1 E97     -0.186750
     19 C19        -4.7600    0.0720    4.9670 c1        1 E97     -0.071000
     20 C20        -4.0800    0.6730    6.0330 c1        1 E97     -0.125667
     21 C21        -4.7940    1.3910    7.0020 c1        1 E97     -0.125667
     22 C22        -6.1870    1.5050    6.9030 c1        1 E97      0.100500
     23 C23        -6.1480    0.1860    4.8680 c1        1 E97     -0.049500
     24 C24        -6.8620    0.9010    5.8330 c1        1 E97     -0.188500
     25 C25         3.9190   -2.1140   -4.4280 c1        1 E97     -0.071000
     26 C26         4.6570   -0.9310   -4.5200 c1        1 E97     -0.125667
     27 C27         5.8740   -0.9220   -5.1850 c1        1 E97     -0.125667
     28 C28         6.3600   -2.0900   -5.7600 c1        1 E97      0.100500
     29 C29         5.6210   -3.2720   -5.6670 c1        1 E97     -0.188500
     30 C30         4.4050   -3.2810   -5.0020 c1        1 E97     -0.049500
     31 O31         7.6490   -2.0980   -6.3930 os        1 E97     -0.209500
     32 C32         7.5990   -1.9100   -7.7560 c3        1 E97     -0.022500
     33 C33         9.0620   -1.9580   -8.3470 c3        1 E97     -0.167000
     34 C34         9.0060   -1.7470   -9.8410 c3        1 E97     -0.063500
     35 N35        10.1820   -2.1890  -10.4180 n3        1 E97     -0.262000
     36 O36        -6.9220    2.1200    7.9420 os        1 E97     -0.209500
     37 C37        -7.1650    3.4750    7.7350 c3        1 E97     -0.022500
     38 C38        -7.9480    4.0620    8.9610 c3        1 E97     -0.167000
     39 C39        -7.7850    5.6050    8.9830 c3        1 E97     -0.063500
     40 N40        -7.8940    6.0800   10.3260 n3        1 E97     -0.262000
     41 C41        -6.6600    6.6460   10.7240 c3        1 E97     -0.121000
     42 C42        -8.9490    7.1020   10.3990 c3        1 E97     -0.121000
     43 C43         9.8900   -3.1550  -11.4030 c3        1 E97     -0.121000
     44 C44        10.8700   -1.0700  -11.0260 c3        1 E97     -0.121000
     45 H1         -1.3460   -2.1310   -4.0420 ha        1 E97      0.140667
     46 H3         -2.5220   -2.1220   -1.9800 ha        1 E97      0.140667
     47 H5          1.0710   -2.1300    0.0230 ha        1 E97      0.140500
     48 H8         -1.2040   -4.0230    0.6590 ha        1 E97      0.140500
     49 H9         -2.2980   -4.1590    2.7740 ha        1 E97      0.140500
     50 H11        -2.1990   -0.0320    0.3760 ha        1 E97      0.140500
     51 H13        -3.7880   -2.5880    4.6320 DU        1 E97      0.255500
     52 H18         3.3000   -2.1400   -1.7170 DU        1 E97      0.255500
     53 H20        -3.1280    0.5940    6.0980 ha        1 E97      0.140667
     54 H21        -4.3130    1.8180    7.7580 ha        1 E97      0.140667
     55 H23        -6.6350   -0.2460    4.1020 ha        1 E97      0.159000
     56 H24        -7.8600    0.9820    5.7590 ha        1 E97      0.149500
     57 H26         4.3080   -0.0910   -4.1060 ha        1 E97      0.140667
     58 H27         6.4000   -0.0770   -5.2500 ha        1 E97      0.140667
     59 H29         5.9530   -4.0710   -6.0600 ha        1 E97      0.149500
     60 H30         3.8810   -4.1240   -4.9360 ha        1 E97      0.159000
     61 H321        7.0470   -2.6320   -8.1730 h1        1 E97      0.080750
     62 H322        7.1850   -1.0150   -7.9570 h1        1 E97      0.080750
     63 H331        9.6130   -1.2390   -7.9300 hc        1 E97      0.105500
     64 H332        9.4680   -2.8390   -8.1530 hc        1 E97      0.105500
     65 H341        8.8910   -0.8060  -10.0280 h1        1 E97      0.069000
     66 H342        8.2580   -2.2460  -10.2100 h1        1 E97      0.069000
     67 H371       -6.3170    3.9460    7.6370 h1        1 E97      0.080750
     68 H372       -7.7040    3.5920    6.9120 h1        1 E97      0.080750
     69 H381       -7.5880    3.6810    9.7910 hc        1 E97      0.105500
     70 H382       -8.9040    3.8340    8.8810 hc        1 E97      0.105500
     71 H391       -8.5000    6.0240    8.4200 h1        1 E97      0.069000
     72 H392       -6.9030    5.8440    8.6230 h1        1 E97      0.069000
     73 H411       -5.9660    5.9220   10.7930 h1        1 E97      0.071583
     74 H412       -6.3700    7.3220   10.0470 h1        1 E97      0.071583
     75 H413       -6.7640    7.0760   11.5850 h1        1 E97      0.071583
     76 H421       -9.8240    6.6650   10.4550 h1        1 E97      0.071583
     77 H422       -8.9160    7.6730    9.5880 h1        1 E97      0.071583
     78 H423       -8.8100    7.6590   11.1970 h1        1 E97      0.071583
     79 H431       10.7450   -3.5210  -11.7740 h1        1 E97      0.071583
     80 H432        9.3590   -2.7310  -12.1420 h1        1 E97      0.071583
     81 H433        9.3590   -3.8970  -10.9960 h1        1 E97      0.071583
     82 H441       10.1970   -0.3680  -11.3000 h1        1 E97      0.071583
     83 H442       11.5170   -0.6750  -10.3640 h1        1 E97      0.071583
     84 H443       11.3640   -1.3800  -11.8230 h1        1 E97      0.071583
@<TRIPOS>BOND
     1    1    3 1   
     2    1   45 1   
     3    2    6 1   
     4    3   46 1   
     5    4    5 1   
     6    5   47 1   
     7    7    8 1   
     8    8   48 1   
     9    9   10 1   
    10    9   49 1   
    11   11   12 1   
    12   11   50 1   
    13   13   14 1   
    14   14   15 1   
    15   14   19 1   
    16   16   17 1   
    17   17   18 1   
    18   17   25 1   
    19   19   23 1   
    20   20   21 1   
    21   20   53 1   
    22   21   54 1   
    23   22   24 1   
    24   22   36 1   
    25   23   55 1   
    26   24   56 1   
    27   25   30 1   
    28   26   27 1   
    29   26   57 1   
    30   27   58 1   
    31   28   29 1   
    32   28   31 1   
    33   29   59 1   
    34   30   60 1   
    35   31   32 1   
    36   32   33 1   
    37   32   61 1   
    38   32   62 1   
    39   33   34 1   
    40   33   63 1   
    41   33   64 1   
    42   34   35 1   
    43   34   65 1   
    44   34   66 1   
    45   35   43 1   
    46   35   44 1   
    47   36   37 1   
    48   37   38 1   
    49   37   67 1   
    50   37   68 1   
    51   38   39 1   
    52   38   69 1   
    53   38   70 1   
    54   39   40 1   
    55   39   71 1   
    56   39   72 1   
    57   40   41 1   
    58   40   42 1   
    59   41   73 1   
    60   41   74 1   
    61   41   75 1   
    62   42   76 1   
    63   42   77 1   
    64   42   78 1   
    65   43   79 1   
    66   43   80 1   
    67   43   81 1   
    68   44   82 1   
    69   44   83 1   
    70   44   84 1   
@<TRIPOS>SUBSTRUCTURE
     1 E97         1 TEMP              0 ****  ****    0 ROOT
