@<TRIPOS>MOLECULE
E97
   84    89     1     0     0
SMALL
bcc


@<TRIPOS>ATOM
      1 C1         -2.4700   -1.4540   -2.1560 ca        1 E97     -0.070000
      2 C2         -1.7150   -1.0370   -3.2620 ca        1 E97      0.069400
      3 C3         -1.8840   -1.4120   -0.9030 ca        1 E97     -0.143000
      4 C4         -0.5550   -0.9690   -0.7050 cp        1 E97     -0.015000
      5 C5          0.2270   -0.5510   -1.7810 ca        1 E97     -0.129000
      6 C6         -0.3500   -0.5830   -3.0540 ca        1 E97     -0.072200
      7 C7          0.0020   -0.9510    0.6490 cp        1 E97     -0.062000
      8 C8          1.3210   -1.4140    0.8600 ca        1 E97     -0.102000
      9 C9          1.9060   -1.4270    2.1160 ca        1 E97     -0.138000
     10 C10         1.1430   -0.9560    3.1900 ca        1 E97     -0.068200
     11 C11        -0.7720   -0.4810    1.7100 ca        1 E97     -0.056000
     12 C12        -0.2140   -0.4730    2.9940 ca        1 E97      0.066400
     13 N13         1.3990   -0.8320    4.5550 na        1 E97     -0.282300
     14 C14         0.2300   -0.2810    5.1400 cc        1 E97      0.476400
     15 N15        -0.7480   -0.0610    4.2310 nd        1 E97     -0.559100
     16 N16        -2.0320   -0.9630   -4.6300 nc        1 E97     -0.561100
     17 C17        -0.9190   -0.4870   -5.2360 cd        1 E97      0.475400
     18 N18         0.1380   -0.2520   -4.3200 na        1 E97     -0.283300
     19 C19         0.1470    0.0010    6.5740 ca        1 E97     -0.154900
     20 C20        -0.6240    1.0880    7.0190 ca        1 E97     -0.066000
     21 C21        -0.7170    1.3740    8.3730 ca        1 E97     -0.188000
     22 C22        -0.0350    0.5620    9.3020 ca        1 E97      0.146100
     23 C23         0.8120   -0.8040    7.5040 ca        1 E97     -0.066000
     24 C24         0.7280   -0.5290    8.8680 ca        1 E97     -0.188000
     25 C25        -0.7670   -0.2270   -6.6680 ca        1 E97     -0.153900
     26 C26        -1.8810    0.1910   -7.4150 ca        1 E97     -0.066500
     27 C27        -1.7610    0.4420   -8.7740 ca        1 E97     -0.188000
     28 C28        -0.5110    0.2710   -9.4030 ca        1 E97      0.145100
     29 C29         0.6020   -0.1540   -8.6680 ca        1 E97     -0.188000
     30 C30         0.4660   -0.4030   -7.3040 ca        1 E97     -0.066500
     31 O31        -0.5030    0.5520  -10.7520 os        1 E97     -0.325900
     32 C32         0.7480    0.3620  -11.4270 c3        1 E97      0.128400
     33 C33         0.4870    0.7260  -12.8790 c3        1 E97     -0.088400
     34 C34         1.7370    0.4170  -13.7000 c3        1 E97      0.173800
     35 N35         1.7020    0.9580  -15.0510 n3        1 E97     -0.736600
     36 O36        -0.1880    0.9410   10.6180 os        1 E97     -0.325900
     37 C37         0.4520    0.1040   11.5920 c3        1 E97      0.128400
     38 C38         0.0980    0.7070   12.9410 c3        1 E97     -0.088400
     39 C39         0.8550   -0.0450   14.0340 c3        1 E97      0.173800
     40 N40         0.4090    0.2720   15.3830 n3        1 E97     -0.736600
     41 C41         0.9950   -0.6100   16.3690 c3        1 E97      0.155100
     42 C42         0.5500    1.6690   15.7250 c3        1 E97      0.155100
     43 C43         2.9770    0.8220  -15.7220 c3        1 E97      0.155100
     44 C44         0.5970    0.4660  -15.8420 c3        1 E97      0.155100
     45 H1         -3.5030   -1.8060   -2.2910 ha        1 E97      0.149000
     46 H3         -2.4630   -1.7410   -0.0250 ha        1 E97      0.139000
     47 H5          1.2560   -0.1990   -1.6300 ha        1 E97      0.137000
     48 H8          1.8940   -1.7850   -0.0040 ha        1 E97      0.135000
     49 H9          2.9300   -1.7960    2.2620 ha        1 E97      0.135000
     50 H11        -1.7970   -0.1160    1.5470 ha        1 E97      0.154000
     51 H13         2.2450   -1.0280    5.0170 hn        1 E97      0.304700
     52 H18         1.0040    0.1660   -4.5250 hn        1 E97      0.304700
     53 H20        -1.1610    1.7160    6.2890 ha        1 E97      0.145500
     54 H21        -1.3170    2.2220    8.7360 ha        1 E97      0.148000
     55 H23         1.3970   -1.6760    7.1750 ha        1 E97      0.145500
     56 H24         1.2560   -1.1740    9.5830 ha        1 E97      0.148000
     57 H26        -2.8580    0.3170   -6.9200 ha        1 E97      0.146000
     58 H27        -2.6240    0.7710   -9.3700 ha        1 E97      0.147500
     59 H29         1.5790   -0.2990   -9.1490 ha        1 E97      0.147500
     60 H30         1.3430   -0.7550   -6.7390 ha        1 E97      0.146000
     61 H321        1.5240    1.0320  -10.9730 h1        1 E97      0.040200
     62 H322        1.0670   -0.7090  -11.3260 h1        1 E97      0.040200
     63 H331       -0.3890    0.1370  -13.2550 hc        1 E97      0.066200
     64 H332        0.2200    1.8120  -12.9500 hc        1 E97      0.066200
     65 H341        2.6270    0.8770  -13.1810 h1        1 E97      0.029200
     66 H342        1.8910   -0.7030  -13.7040 h1        1 E97      0.029200
     67 H371        1.5600    0.1140   11.4200 h1        1 E97      0.040700
     68 H372        0.0640   -0.9440   11.5000 h1        1 E97      0.040700
     69 H381       -1.0090    0.6390   13.1020 hc        1 E97      0.066700
     70 H382        0.3740    1.7930   12.9450 hc        1 E97      0.066700
     71 H391        1.9600    0.1560   13.9040 h1        1 E97      0.029200
     72 H392        0.6940   -1.1520   13.8820 h1        1 E97      0.029200
     73 H411        0.5520   -0.3750   17.3720 h1        1 E97      0.032367
     74 H412        0.7430   -1.6710   16.1060 h1        1 E97      0.032367
     75 H413        2.1130   -0.5160   16.4410 h1        1 E97      0.032367
     76 H421       -0.0900    2.2770   15.0340 h1        1 E97      0.032367
     77 H422        0.1880    1.8270   16.7750 h1        1 E97      0.032367
     78 H423        1.6090    2.0400   15.6530 h1        1 E97      0.032367
     79 H431        2.9150    1.3290  -16.7200 h1        1 E97      0.032367
     80 H432        3.7680    1.3300  -15.1100 h1        1 E97      0.032367
     81 H433        3.2830   -0.2480  -15.8830 h1        1 E97      0.032367
     82 H441        0.6450    0.9250  -16.8640 h1        1 E97      0.032367
     83 H442        0.5930   -0.6530  -15.9530 h1        1 E97      0.032367
     84 H443       -0.3640    0.7810  -15.3560 h1        1 E97      0.032367
@<TRIPOS>BOND
     1    1    2 ar  
     2    1    3 ar  
     3    1   45 1   
     4    2    6 ar  
     5    2   16 1   
     6    3    4 ar  
     7    3   46 1   
     8    4    5 ar  
     9    4    7 1   
    10    5    6 ar  
    11    5   47 1   
    12    6   18 1   
    13    7    8 ar  
    14    7   11 ar  
    15    8    9 ar  
    16    8   48 1   
    17    9   10 ar  
    18    9   49 1   
    19   10   12 ar  
    20   10   13 1   
    21   11   12 ar  
    22   11   50 1   
    23   12   15 1   
    24   13   14 1   
    25   13   51 1   
    26   14   15 2   
    27   14   19 1   
    28   16   17 2   
    29   17   18 1   
    30   17   25 1   
    31   18   52 1   
    32   19   20 ar  
    33   19   23 ar  
    34   20   21 ar  
    35   20   53 1   
    36   21   22 ar  
    37   21   54 1   
    38   22   24 ar  
    39   22   36 1   
    40   23   24 ar  
    41   23   55 1   
    42   24   56 1   
    43   25   26 ar  
    44   25   30 ar  
    45   26   27 ar  
    46   26   57 1   
    47   27   28 ar  
    48   27   58 1   
    49   28   29 ar  
    50   28   31 1   
    51   29   30 ar  
    52   29   59 1   
    53   30   60 1   
    54   31   32 1   
    55   32   33 1   
    56   32   61 1   
    57   32   62 1   
    58   33   34 1   
    59   33   63 1   
    60   33   64 1   
    61   34   35 1   
    62   34   65 1   
    63   34   66 1   
    64   35   43 1   
    65   35   44 1   
    66   36   37 1   
    67   37   38 1   
    68   37   67 1   
    69   37   68 1   
    70   38   39 1   
    71   38   69 1   
    72   38   70 1   
    73   39   40 1   
    74   39   71 1   
    75   39   72 1   
    76   40   41 1   
    77   40   42 1   
    78   41   73 1   
    79   41   74 1   
    80   41   75 1   
    81   42   76 1   
    82   42   77 1   
    83   42   78 1   
    84   43   79 1   
    85   43   80 1   
    86   43   81 1   
    87   44   82 1   
    88   44   83 1   
    89   44   84 1   
@<TRIPOS>SUBSTRUCTURE
     1 E97         1 TEMP              0 ****  ****    0 ROOT
