@<TRIPOS>MOLECULE
E97
   86    91     1     0     0
SMALL
bcc


@<TRIPOS>ATOM
      1 C1          0.2840   -0.2570    0.5040 ca        1 E97     -0.064000
      2 C2          1.6870   -0.2250    0.5190 ca        1 E97      0.066400
      3 C3         -0.3860   -0.2930    1.7140 ca        1 E97     -0.141000
      4 C4          0.2950   -0.3040    2.9550 cp        1 E97     -0.010000
      5 C5          1.6880   -0.2810    3.0080 ca        1 E97     -0.128000
      6 C6          2.3830   -0.2410    1.7940 ca        1 E97     -0.067200
      7 C7         -0.4820   -0.3370    4.1960 cp        1 E97     -0.063000
      8 C8         -0.0760   -1.1950    5.2460 ca        1 E97     -0.095000
      9 C9         -0.7720   -1.2810    6.4400 ca        1 E97     -0.136000
     10 C10        -1.9090   -0.4750    6.5850 ca        1 E97     -0.063200
     11 C11        -1.6110    0.4700    4.3250 ca        1 E97     -0.051000
     12 C12        -2.3400    0.4160    5.5210 ca        1 E97      0.062400
     13 N13        -2.8360   -0.3180    7.6160 na        1 E97     -0.276300
     14 C14        -3.7660    0.6570    7.1760 cc        1 E97      0.453400
     15 N15        -3.4980    1.1050    5.9270 nd        1 E97     -0.548100
     16 N16         2.6250   -0.1770   -0.5270 nc        1 E97     -0.548100
     17 C17         3.8370   -0.1630    0.0740 cd        1 E97      0.451400
     18 N18         3.7460   -0.2240    1.4880 na        1 E97     -0.277300
     19 C19        -4.8880    1.0950    8.0100 ca        1 E97     -0.120900
     20 C20        -5.3200    2.4290    7.9310 ca        1 E97     -0.069500
     21 C21        -6.3960    2.8640    8.6950 ca        1 E97     -0.169000
     22 C22        -7.0410    1.9530    9.5490 ca        1 E97      0.110100
     23 C23        -5.5420    0.1990    8.8620 ca        1 E97     -0.069500
     24 C24        -6.6200    0.6230    9.6380 ca        1 E97     -0.169000
     25 C25         5.1250   -0.1060   -0.6220 ca        1 E97     -0.118900
     26 C26         5.2280    0.6410   -1.8070 ca        1 E97     -0.071000
     27 C27         6.4310    0.6930   -2.5010 ca        1 E97     -0.168000
     28 C28         7.5400   -0.0080   -1.9980 ca        1 E97      0.107100
     29 C29         7.4520   -0.7540   -0.8190 ca        1 E97     -0.168000
     30 C30         6.2370   -0.8010   -0.1350 ca        1 E97     -0.071000
     31 O31         8.7130    0.1480   -2.7270 os        1 E97     -0.331900
     32 C32         9.6580   -0.9150   -2.5960 c3        1 E97      0.137400
     33 C33        10.5660   -0.7760   -3.8140 c3        1 E97     -0.123400
     34 C34        11.6750   -1.8130   -3.7300 c3        1 E97      0.107800
     35 N35        12.6760   -1.6920   -4.8450 nx        1 E97     -0.679400
     36 O36        -8.0710    2.4940   10.3090 os        1 E97     -0.331900
     37 C37        -9.0250    1.5540   10.8030 c3        1 E97      0.137400
     38 C38       -10.2300    2.4010   11.2000 c3        1 E97     -0.122400
     39 C39       -11.2630    1.5110   11.8740 c3        1 E97      0.107800
     40 N40       -12.5240    2.2470   12.2350 nx        1 E97     -0.679400
     41 C41       -13.6400    1.2910   12.4620 c3        1 E97      0.081100
     42 C42       -12.3260    3.1110   13.4280 c3        1 E97      0.081100
     43 C43        13.9390   -2.3930   -4.4930 c3        1 E97      0.081100
     44 C44        12.1290   -2.2120   -6.1260 c3        1 E97      0.081100
     45 H1         -0.2610   -0.2540   -0.4510 ha        1 E97      0.154000
     46 H3         -1.4870   -0.3220    1.7210 ha        1 E97      0.143000
     47 H5          2.2190   -0.2850    3.9700 ha        1 E97      0.141000
     48 H8          0.8180   -1.8210    5.0990 ha        1 E97      0.139000
     49 H9         -0.4470   -1.9570    7.2410 ha        1 E97      0.140000
     50 H11        -1.9260    1.1420    3.5130 ha        1 E97      0.157000
     51 H13        -2.7900   -0.7180    8.5140 hn        1 E97      0.306700
     52 H18         4.4880   -0.1110    2.1230 hn        1 E97      0.305700
     53 H20        -4.8100    3.1340    7.2530 ha        1 E97      0.156500
     54 H21        -6.7420    3.9070    8.6450 ha        1 E97      0.146000
     55 H23        -5.2240   -0.8540    8.9190 ha        1 E97      0.156500
     56 H24        -7.1210   -0.0880   10.3090 ha        1 E97      0.146000
     57 H26         4.3490    1.1830   -2.1950 ha        1 E97      0.157000
     58 H27         6.5270    1.2780   -3.4270 ha        1 E97      0.145500
     59 H29         8.3210   -1.2970   -0.4250 ha        1 E97      0.145500
     60 H30         6.1630   -1.4020    0.7840 ha        1 E97      0.157000
     61 H321       10.2350   -0.7750   -1.6440 h1        1 E97      0.053700
     62 H322        9.1430   -1.9110   -2.5860 h1        1 E97      0.053700
     63 H331        9.9490   -0.9120   -4.7410 hc        1 E97      0.083200
     64 H332       10.9830    0.2660   -3.8330 hc        1 E97      0.083200
     65 H341       11.2430   -2.8540   -3.7660 hx        1 E97      0.105700
     66 H342       12.2340   -1.6890   -2.7570 hx        1 E97      0.105700
     67 H371       -9.2960    0.8070   10.0120 h1        1 E97      0.053200
     68 H372       -8.5920    1.0250   11.6940 h1        1 E97      0.053200
     69 H381       -9.8830    3.2170   11.8880 hc        1 E97      0.083700
     70 H382      -10.6490    2.8870   10.2800 hc        1 E97      0.083700
     71 H391      -10.8410    1.0660   12.8200 hx        1 E97      0.105200
     72 H392      -11.5470    0.6700   11.1770 hx        1 E97      0.105200
     73 H411      -13.3640    0.5800   13.2860 hx        1 E97      0.108033
     74 H412      -14.5630    1.8610   12.7530 hx        1 E97      0.108033
     75 H413      -13.8380    0.7150   11.5180 hx        1 E97      0.108033
     76 H421      -13.2680    3.6900   13.6280 hx        1 E97      0.108033
     77 H422      -12.0830    2.4740   14.3200 hx        1 E97      0.108033
     78 H423      -11.4800    3.8250   13.2360 hx        1 E97      0.108033
     79 H431       14.3870   -1.9220   -3.5770 hx        1 E97      0.107867
     80 H432       13.7230   -3.4760   -4.2920 hx        1 E97      0.107867
     81 H433       14.6620   -2.3090   -5.3490 hx        1 E97      0.107867
     82 H441       12.8810   -2.0480   -6.9450 hx        1 E97      0.107867
     83 H442       11.1780   -1.6670   -6.3740 hx        1 E97      0.107867
     84 H443       11.9180   -3.3100   -6.0270 hx        1 E97      0.107867
     85 H351       12.8860   -0.6910   -4.9720 hn        1 E97      0.453800
     86 H401      -12.7730    2.8530   11.4400 hn        1 E97      0.453800
@<TRIPOS>BOND
     1    1    2 ar  
     2    1    3 ar  
     3    1   45 1   
     4    2    6 ar  
     5    2   16 1   
     6    3    4 ar  
     7    3   46 1   
     8    4    5 ar  
     9    4    7 1   
    10    5    6 ar  
    11    5   47 1   
    12    6   18 1   
    13    7    8 ar  
    14    7   11 ar  
    15    8    9 ar  
    16    8   48 1   
    17    9   10 ar  
    18    9   49 1   
    19   10   12 ar  
    20   10   13 1   
    21   11   12 ar  
    22   11   50 1   
    23   12   15 1   
    24   13   14 1   
    25   13   51 1   
    26   14   15 2   
    27   14   19 1   
    28   16   17 2   
    29   17   18 1   
    30   17   25 1   
    31   18   52 1   
    32   19   20 ar  
    33   19   23 ar  
    34   20   21 ar  
    35   20   53 1   
    36   21   22 ar  
    37   21   54 1   
    38   22   24 ar  
    39   22   36 1   
    40   23   24 ar  
    41   23   55 1   
    42   24   56 1   
    43   25   26 ar  
    44   25   30 ar  
    45   26   27 ar  
    46   26   57 1   
    47   27   28 ar  
    48   27   58 1   
    49   28   29 ar  
    50   28   31 1   
    51   29   30 ar  
    52   29   59 1   
    53   30   60 1   
    54   31   32 1   
    55   32   33 1   
    56   32   61 1   
    57   32   62 1   
    58   33   34 1   
    59   33   63 1   
    60   33   64 1   
    61   34   35 1   
    62   34   65 1   
    63   34   66 1   
    64   35   43 1   
    65   35   44 1   
    66   35   85 1   
    67   36   37 1   
    68   37   38 1   
    69   37   67 1   
    70   37   68 1   
    71   38   39 1   
    72   38   69 1   
    73   38   70 1   
    74   39   40 1   
    75   39   71 1   
    76   39   72 1   
    77   40   41 1   
    78   40   42 1   
    79   40   86 1   
    80   41   73 1   
    81   41   74 1   
    82   41   75 1   
    83   42   76 1   
    84   42   77 1   
    85   42   78 1   
    86   43   79 1   
    87   43   80 1   
    88   43   81 1   
    89   44   82 1   
    90   44   83 1   
    91   44   84 1   
@<TRIPOS>SUBSTRUCTURE
     1 E97         1 TEMP              0 ****  ****    0 ROOT
