@<TRIPOS>MOLECULE
E97
   86    91     1     0     0
SMALL
bcc


@<TRIPOS>ATOM
      1 C1          0.3000   -0.1120    0.4940 ca        1 E97     -0.064000
      2 C2          1.7030   -0.1260    0.5190 ca        1 E97      0.066400
      3 C3         -0.3800   -0.1810    1.6970 ca        1 E97     -0.141000
      4 C4          0.2900   -0.2690    2.9400 cp        1 E97     -0.010000
      5 C5          1.6830   -0.2940    3.0030 ca        1 E97     -0.128000
      6 C6          2.3880   -0.2220    1.7970 ca        1 E97     -0.067200
      7 C7         -0.4980   -0.3330    4.1730 cp        1 E97     -0.063000
      8 C8         -0.1280   -1.2500    5.1860 ca        1 E97     -0.095000
      9 C9         -0.8360   -1.3670    6.3700 ca        1 E97     -0.136000
     10 C10        -1.9480   -0.5330    6.5440 ca        1 E97     -0.063200
     11 C11        -1.6020    0.5030    4.3310 ca        1 E97     -0.051000
     12 C12        -2.3410    0.4190    5.5180 ca        1 E97      0.062400
     13 N13        -2.8770   -0.3920    7.5750 na        1 E97     -0.276300
     14 C14        -3.7730    0.6310    7.1720 cc        1 E97      0.453400
     15 N15        -3.4800    1.1250    5.9470 nd        1 E97     -0.548100
     16 N16         2.6500   -0.0610   -0.5180 nc        1 E97     -0.548100
     17 C17         3.8580   -0.1130    0.0910 cd        1 E97      0.451400
     18 N18         3.7530   -0.2340    1.5000 na        1 E97     -0.277300
     19 C19        -4.8870    1.0660    8.0180 ca        1 E97     -0.120900
     20 C20        -5.2760    2.4150    7.9970 ca        1 E97     -0.069500
     21 C21        -6.3450    2.8500    8.7720 ca        1 E97     -0.169000
     22 C22        -7.0250    1.9220    9.5790 ca        1 E97      0.110100
     23 C23        -5.5770    0.1540    8.8230 ca        1 E97     -0.069500
     24 C24        -6.6470    0.5760    9.6110 ca        1 E97     -0.169000
     25 C25         5.1520   -0.0660   -0.5930 ca        1 E97     -0.118900
     26 C26         5.2890    0.7300   -1.7420 ca        1 E97     -0.071000
     27 C27         6.4980    0.7740   -2.4250 ca        1 E97     -0.168000
     28 C28         7.5800    0.0150   -1.9480 ca        1 E97      0.106100
     29 C29         7.4580   -0.7800   -0.8040 ca        1 E97     -0.168000
     30 C30         6.2370   -0.8180   -0.1310 ca        1 E97     -0.071000
     31 O31         8.7630    0.1650   -2.6610 os        1 E97     -0.331900
     32 C32         9.6700   -0.9340   -2.5750 c3        1 E97      0.137400
     33 C33        10.5900   -0.7710   -3.7810 c3        1 E97     -0.123400
     34 C34        11.6620   -1.8490   -3.7400 c3        1 E97      0.107800
     35 N35        12.6730   -1.7120   -4.8450 n4        1 E97     -0.679400
     36 O36        -8.0430    2.4600   10.3550 os        1 E97     -0.331900
     37 C37        -9.0320    1.5300   10.7990 c3        1 E97      0.137400
     38 C38       -10.2130    2.3970   11.2240 c3        1 E97     -0.122400
     39 C39       -11.2810    1.5110   11.8470 c3        1 E97      0.107800
     40 N40       -12.5210    2.2690   12.2310 n4        1 E97     -0.679400
     41 C41       -13.6700    1.3410   12.4030 c3        1 E97      0.081100
     42 C42       -12.3070    3.0710   13.4650 c3        1 E97      0.081100
     43 C43        13.9090   -2.4720   -4.5190 c3        1 E97      0.081100
     44 C44        12.1160   -2.1540   -6.1500 c3        1 E97      0.081100
     45 H1         -0.2370   -0.0480   -0.4640 ha        1 E97      0.154000
     46 H3         -1.4820   -0.1740    1.6940 ha        1 E97      0.143000
     47 H5          2.2060   -0.3570    3.9670 ha        1 E97      0.141000
     48 H8          0.7470   -1.8970    5.0160 ha        1 E97      0.139000
     49 H9         -0.5380   -2.0880    7.1420 ha        1 E97      0.140000
     50 H11        -1.8890    1.2210    3.5480 ha        1 E97      0.157000
     51 H13        -2.8520   -0.8330    8.4540 hn        1 E97      0.306700
     52 H18         4.4930   -0.1730    2.1450 hn        1 E97      0.305700
     53 H20        -4.7380    3.1340    7.3550 ha        1 E97      0.156500
     54 H21        -6.6570    3.9040    8.7670 ha        1 E97      0.146000
     55 H23        -5.2930   -0.9100    8.8350 ha        1 E97      0.156500
     56 H24        -7.1760   -0.1480   10.2450 ha        1 E97      0.146000
     57 H26         4.4310    1.3170   -2.1100 ha        1 E97      0.157000
     58 H27         6.6200    1.3970   -3.3230 ha        1 E97      0.145500
     59 H29         8.3070   -1.3680   -0.4300 ha        1 E97      0.145500
     60 H30         6.1370   -1.4580    0.7590 ha        1 E97      0.157000
     61 H321       10.2460   -0.8570   -1.6140 h1        1 E97      0.053700
     62 H322        9.1220   -1.9110   -2.6120 h1        1 E97      0.053700
     63 H331        9.9740   -0.8430   -4.7160 hc        1 E97      0.083200
     64 H332       11.0430    0.2560   -3.7500 hc        1 E97      0.083200
     65 H341       11.1950   -2.8710   -3.8250 hx        1 E97      0.105700
     66 H342       12.2200   -1.7880   -2.7600 hx        1 E97      0.105700
     67 H371       -9.3190    0.8290    9.9720 h1        1 E97      0.053200
     68 H372       -8.6250    0.9480   11.6680 h1        1 E97      0.053200
     69 H381       -9.8470    3.1690   11.9520 hc        1 E97      0.083700
     70 H382      -10.6070    2.9380   10.3240 hc        1 E97      0.083700
     71 H391      -10.8830    1.0090   12.7740 hx        1 E97      0.105200
     72 H392      -11.5850    0.7130   11.1090 hx        1 E97      0.105200
     73 H411      -13.4250    0.5840   13.1960 hx        1 E97      0.108033
     74 H412      -14.5770    1.9270   12.7130 hx        1 E97      0.108033
     75 H413      -13.8760    0.8160   11.4320 hx        1 E97      0.108033
     76 H421      -13.2330    3.6700   13.6830 hx        1 E97      0.108033
     77 H422      -12.0950    2.3850   14.3280 hx        1 E97      0.108033
     78 H423      -11.4370    3.7650   13.3130 hx        1 E97      0.108033
     79 H431       14.3680   -2.0580   -3.5810 hx        1 E97      0.107867
     80 H432       13.6550   -3.5540   -4.3680 hx        1 E97      0.107867
     81 H433       14.6390   -2.3730   -5.3680 hx        1 E97      0.107867
     82 H441       12.8770   -1.9790   -6.9570 hx        1 E97      0.107867
     83 H442       11.1860   -1.5660   -6.3770 hx        1 E97      0.107867
     84 H443       11.8660   -3.2480   -6.1020 hx        1 E97      0.107867
     85 H351       12.9180   -0.7140   -4.9240 hn        1 E97      0.453800
     86 H401      -12.7420    2.9200   11.4630 hn        1 E97      0.453800
@<TRIPOS>BOND
     1    1    2 ar  
     2    1    3 ar  
     3    1   45 1   
     4    2    6 ar  
     5    2   16 1   
     6    3    4 ar  
     7    3   46 1   
     8    4    5 ar  
     9    4    7 1   
    10    5    6 ar  
    11    5   47 1   
    12    6   18 1   
    13    7    8 ar  
    14    7   11 ar  
    15    8    9 ar  
    16    8   48 1   
    17    9   10 ar  
    18    9   49 1   
    19   10   12 ar  
    20   10   13 1   
    21   11   12 ar  
    22   11   50 1   
    23   12   15 1   
    24   13   14 1   
    25   13   51 1   
    26   14   15 2   
    27   14   19 1   
    28   16   17 2   
    29   17   18 1   
    30   17   25 1   
    31   18   52 1   
    32   19   20 ar  
    33   19   23 ar  
    34   20   21 ar  
    35   20   53 1   
    36   21   22 ar  
    37   21   54 1   
    38   22   24 ar  
    39   22   36 1   
    40   23   24 ar  
    41   23   55 1   
    42   24   56 1   
    43   25   26 ar  
    44   25   30 ar  
    45   26   27 ar  
    46   26   57 1   
    47   27   28 ar  
    48   27   58 1   
    49   28   29 ar  
    50   28   31 1   
    51   29   30 ar  
    52   29   59 1   
    53   30   60 1   
    54   31   32 1   
    55   32   33 1   
    56   32   61 1   
    57   32   62 1   
    58   33   34 1   
    59   33   63 1   
    60   33   64 1   
    61   34   35 1   
    62   34   65 1   
    63   34   66 1   
    64   35   43 1   
    65   35   44 1   
    66   35   85 1   
    67   36   37 1   
    68   37   38 1   
    69   37   67 1   
    70   37   68 1   
    71   38   39 1   
    72   38   69 1   
    73   38   70 1   
    74   39   40 1   
    75   39   71 1   
    76   39   72 1   
    77   40   41 1   
    78   40   42 1   
    79   40   86 1   
    80   41   73 1   
    81   41   74 1   
    82   41   75 1   
    83   42   76 1   
    84   42   77 1   
    85   42   78 1   
    86   43   79 1   
    87   43   80 1   
    88   43   81 1   
    89   44   82 1   
    90   44   83 1   
    91   44   84 1   
@<TRIPOS>SUBSTRUCTURE
     1 E97         1 TEMP              0 ****  ****    0 ROOT
