@<TRIPOS>MOLECULE
E9L
   34    36     1     0     0
SMALL
bcc


@<TRIPOS>ATOM
      1 C01        -0.0250   -0.1660   -0.0620 c3        1 E9L     -0.072800
      2 C02         1.4520   -0.0800   -0.0220 ca        1 E9L     -0.019300
      3 C03         2.1680   -0.6440    1.0400 ca        1 E9L     -0.134500
      4 C04         3.5570   -0.5460    1.0910 ca        1 E9L     -0.079500
      5 C05         4.2510    0.1070    0.0630 ca        1 E9L     -0.197900
      6 C06         3.5370    0.6810   -1.0000 ca        1 E9L     -0.079500
      7 C07         2.1510    0.5870   -1.0400 ca        1 E9L     -0.134500
      8 C08         5.7180    0.2120    0.1140 cc        1 E9L      0.590200
      9 C09         6.4090    0.0290   -1.1860 cc        1 E9L     -0.185600
     10 C10         7.7660    0.0550   -1.2200 cd        1 E9L     -0.084000
     11 C11         8.5380    0.2340    0.0050 cd        1 E9L     -0.157600
     12 C12         9.8870    0.1200    0.0320 cc        1 E9L     -0.045000
     13 C13        10.5940   -0.1910   -1.1900 cc        1 E9L     -0.038000
     14 C14         9.9380   -0.3070   -2.3620 cd        1 E9L     -0.193000
     15 N15         8.4910   -0.1160   -2.5000 nx        1 E9L     -0.285000
     16 C16         8.2260    1.0450   -3.4080 c3        1 E9L      0.094100
     17 C17         7.7610    0.5140    1.2620 c         1 E9L      0.690100
     18 O18         8.3610    0.7900    2.3050 o         1 E9L     -0.436100
     19 N19         6.3420    0.4400    1.2330 nd        1 E9L     -0.576100
     20 H01        -0.4010   -0.1560   -1.1150 hc        1 E9L      0.062033
     21 H01A       -0.3860   -1.1000    0.4360 hc        1 E9L      0.062033
     22 H01B       -0.4680    0.7110    0.4760 hc        1 E9L      0.062033
     23 H03         1.6290   -1.1630    1.8480 ha        1 E9L      0.152500
     24 H04         4.1030   -0.9800    1.9440 ha        1 E9L      0.139500
     25 H06         4.0630    1.2330   -1.7930 ha        1 E9L      0.139500
     26 H07         1.5940    1.0450   -1.8720 ha        1 E9L      0.152500
     27 H09         5.7700   -0.1360   -2.0700 ha        1 E9L      0.176000
     28 H12        10.4580    0.2510    0.9710 ha        1 E9L      0.209000
     29 H13        11.6890   -0.3430   -1.1480 ha        1 E9L      0.202000
     30 H14        10.4290   -0.5430   -3.3260 hx        1 E9L      0.203000
     31 H15         8.1180   -0.9710   -2.9480 hn        1 E9L      0.461800
     32 H16         8.6380    1.9810   -2.9440 hx        1 E9L      0.108033
     33 H16A        7.1180    1.1500   -3.5510 hx        1 E9L      0.108033
     34 H16B        8.7280    0.8590   -4.3950 hx        1 E9L      0.108033
@<TRIPOS>BOND
     1    1    2 1   
     2    1   20 1   
     3    1   21 1   
     4    1   22 1   
     5    2    3 ar  
     6    2    7 ar  
     7    3    4 ar  
     8    3   23 1   
     9    4    5 ar  
    10    4   24 1   
    11    5    6 ar  
    12    5    8 1   
    13    6    7 ar  
    14    6   25 1   
    15    7   26 1   
    16    8    9 1   
    17    8   19 2   
    18    9   10 2   
    19    9   27 1   
    20   10   11 1   
    21   10   15 1   
    22   11   12 2   
    23   11   17 1   
    24   12   13 1   
    25   12   28 1   
    26   13   14 2   
    27   13   29 1   
    28   14   15 1   
    29   14   30 1   
    30   15   16 1   
    31   15   31 1   
    32   16   32 1   
    33   16   33 1   
    34   16   34 1   
    35   17   18 2   
    36   17   19 1   
@<TRIPOS>SUBSTRUCTURE
     1 E9L         1 TEMP              0 ****  ****    0 ROOT
