@<TRIPOS>MOLECULE
E9L
   34    36     1     0     0
SMALL
bcc


@<TRIPOS>ATOM
      1 C01        -0.0230   -0.1960   -0.0620 c3        1 E9L     -0.072800
      2 C02         1.4530   -0.0980   -0.0220 ca        1 E9L     -0.019300
      3 C03         2.1720   -0.6330    1.0530 ca        1 E9L     -0.134500
      4 C04         3.5600   -0.5230    1.1030 ca        1 E9L     -0.079500
      5 C05         4.2500    0.1130    0.0620 ca        1 E9L     -0.197900
      6 C06         3.5330    0.6580   -1.0140 ca        1 E9L     -0.079500
      7 C07         2.1480    0.5520   -1.0540 ca        1 E9L     -0.134500
      8 C08         5.7160    0.2310    0.1120 cc        1 E9L      0.590200
      9 C09         6.4100    0.0250   -1.1830 cc        1 E9L     -0.185600
     10 C10         7.7680    0.0600   -1.2170 cd        1 E9L     -0.084000
     11 C11         8.5370    0.2720    0.0060 cd        1 E9L     -0.157600
     12 C12         9.8860    0.1690    0.0360 cc        1 E9L     -0.045000
     13 C13        10.5970   -0.1630   -1.1780 cc        1 E9L     -0.038000
     14 C14         9.9440   -0.3090   -2.3480 cd        1 E9L     -0.193000
     15 N15         8.4950   -0.1320   -2.4920 n4        1 E9L     -0.285000
     16 C16         8.2220    1.0070   -3.4240 c3        1 E9L      0.094100
     17 C17         7.7560    0.5720    1.2550 c         1 E9L      0.690100
     18 O18         8.3520    0.8750    2.2920 o         1 E9L     -0.436100
     19 N19         6.3370    0.4880    1.2260 nd        1 E9L     -0.576100
     20 H01        -0.3780   -1.1220    0.4550 hc        1 E9L      0.062033
     21 H01A       -0.3990   -0.2110   -1.1150 hc        1 E9L      0.062033
     22 H01B       -0.4740    0.6880    0.4580 hc        1 E9L      0.062033
     23 H03         1.6360   -1.1390    1.8720 ha        1 E9L      0.152500
     24 H04         4.1090   -0.9350    1.9660 ha        1 E9L      0.139500
     25 H06         4.0550    1.1970   -1.8180 ha        1 E9L      0.139500
     26 H07         1.5880    0.9880   -1.8960 ha        1 E9L      0.152500
     27 H09         5.7740   -0.1640   -2.0640 ha        1 E9L      0.176000
     28 H12        10.4550    0.3240    0.9730 ha        1 E9L      0.209000
     29 H13        11.6930   -0.3050   -1.1320 ha        1 E9L      0.202000
     30 H14        10.4370   -0.5620   -3.3070 hx        1 E9L      0.203000
     31 H15         8.1290   -0.9990   -2.9220 hn        1 E9L      0.461800
     32 H16         7.1140    1.1010   -3.5710 hx        1 E9L      0.108033
     33 H16A        8.7260    0.8040   -4.4070 hx        1 E9L      0.108033
     34 H16B        8.6270    1.9560   -2.9800 hx        1 E9L      0.108033
@<TRIPOS>BOND
     1    1    2 1   
     2    1   20 1   
     3    1   21 1   
     4    1   22 1   
     5    2    3 ar  
     6    2    7 ar  
     7    3    4 ar  
     8    3   23 1   
     9    4    5 ar  
    10    4   24 1   
    11    5    6 ar  
    12    5    8 1   
    13    6    7 ar  
    14    6   25 1   
    15    7   26 1   
    16    8    9 1   
    17    8   19 2   
    18    9   10 2   
    19    9   27 1   
    20   10   11 1   
    21   10   15 1   
    22   11   12 2   
    23   11   17 1   
    24   12   13 1   
    25   12   28 1   
    26   13   14 2   
    27   13   29 1   
    28   14   15 1   
    29   14   30 1   
    30   15   16 1   
    31   15   31 1   
    32   16   32 1   
    33   16   33 1   
    34   16   34 1   
    35   17   18 2   
    36   17   19 1   
@<TRIPOS>SUBSTRUCTURE
     1 E9L         1 TEMP              0 ****  ****    0 ROOT
