@<TRIPOS>MOLECULE
E9P
   30    31     1     0     0
SMALL
bcc


@<TRIPOS>ATOM
      1 C1         -0.3070   -0.1170    0.6610 ca        1 E9P     -0.002900
      2 C2         -1.2080   -1.1310    0.2810 ca        1 E9P      0.133100
      3 C3         -2.4700   -0.7860   -0.2280 ca        1 E9P     -0.151000
      4 C4         -2.8180    0.5600   -0.3570 ca        1 E9P     -0.046300
      5 C5         -1.9110    1.5600    0.0230 ca        1 E9P     -0.155000
      6 C6         -0.6600    1.2290    0.5330 ca        1 E9P     -0.105000
      7 O7          0.8750   -0.5240    1.2780 os        1 E9P     -0.260200
      8 C8          2.0610   -0.1300    0.6630 ca        1 E9P      0.107100
      9 C9          3.2090   -0.2600    1.4620 ca        1 E9P     -0.165500
     10 C10         4.4470    0.0620    0.9130 ca        1 E9P     -0.103000
     11 C11         4.5430    0.5100   -0.4060 ca        1 E9P     -0.155000
     12 C12         3.3950    0.6390   -1.1860 ca        1 E9P     -0.103000
     13 C13         2.1440    0.3190   -0.6590 ca        1 E9P     -0.165500
     14 C14        -4.1510    0.9380   -0.9060 c3        1 E9P     -0.040100
     15 CAA        -5.0640    1.4950    0.1600 c3        1 E9P     -0.090100
     16 O16        -0.9200   -2.4670    0.3990 oh        1 E9P     -0.492100
     17 H6          0.0550    2.0090    0.8330 ha        1 E9P      0.149000
     18 H3         -3.1660   -1.5860   -0.5180 ha        1 E9P      0.154000
     19 H16        -0.0230   -2.5460    0.7640 ho        1 E9P      0.437000
     20 H5         -2.1970    2.6180   -0.0800 ha        1 E9P      0.138000
     21 H141       -4.0070    1.7070   -1.7130 hc        1 E9P      0.049700
     22 H142       -4.6360    0.0440   -1.3820 hc        1 E9P      0.049700
     23 H9          3.1170   -0.6130    2.4980 ha        1 E9P      0.149500
     24 H13         1.2340    0.4210   -1.2690 ha        1 E9P      0.149500
     25 H10         5.3550   -0.0380    1.5270 ha        1 E9P      0.135000
     26 H11         5.5260    0.7630   -0.8290 ha        1 E9P      0.134000
     27 H12         3.4710    0.9920   -2.2250 ha        1 E9P      0.135000
     28 HAA1       -6.0400    1.7940   -0.2920 hc        1 E9P      0.038033
     29 HAA2       -5.2580    0.7320    0.9520 hc        1 E9P      0.038033
     30 HAA3       -4.6040    2.3920    0.6420 hc        1 E9P      0.038033
@<TRIPOS>BOND
     1    1    2 ar  
     2    1    6 ar  
     3    1    7 1   
     4    2    3 ar  
     5    2   16 1   
     6    3    4 ar  
     7    3   18 1   
     8    4    5 ar  
     9    4   14 1   
    10    5    6 ar  
    11    5   20 1   
    12    6   17 1   
    13    7    8 1   
    14    8    9 ar  
    15    8   13 ar  
    16    9   10 ar  
    17    9   23 1   
    18   10   11 ar  
    19   10   25 1   
    20   11   12 ar  
    21   11   26 1   
    22   12   13 ar  
    23   12   27 1   
    24   13   24 1   
    25   14   15 1   
    26   14   21 1   
    27   14   22 1   
    28   15   28 1   
    29   15   29 1   
    30   15   30 1   
    31   16   19 1   
@<TRIPOS>SUBSTRUCTURE
     1 E9P         1 TEMP              0 ****  ****    0 ROOT
