@<TRIPOS>MOLECULE
E9P
   30    26     1     0     0
SMALL
bcc


@<TRIPOS>ATOM
      1 C1         -0.1340    0.6970   -0.5660 c1        1 E9P      0.005000
      2 C2          1.2500    0.7760   -0.5620 c1        1 E9P      0.084000
      3 C3          1.9390    0.8010    0.6400 c1        1 E9P     -0.211000
      4 C4          1.2450    0.7470    1.8390 c1        1 E9P     -0.028000
      5 C5         -0.1390    0.6680    1.8350 c1        1 E9P     -0.158000
      6 C6         -0.8280    0.6430    0.6320 c1        1 E9P     -0.099000
      7 O7         -0.8370    0.7590   -1.7830 os        1 E9P     -0.146000
      8 C8         -1.4110   -0.4950   -2.0570 c2        1 E9P      0.080000
      9 C9         -2.7600   -0.7070   -1.8140 c2        1 E9P     -0.151000
     10 C10        -3.3430   -1.9180   -2.1540 c1        1 E9P     -0.103000
     11 C11        -2.5790   -2.9160   -2.7370 c1        1 E9P     -0.131500
     12 C12        -1.2310   -2.7040   -2.9810 c1        1 E9P     -0.131500
     13 C13        -0.6470   -1.4930   -2.6410 c1        1 E9P     -0.189000
     14 C14         1.9960    0.7810    3.1500 c3        1 E9P     -0.128000
     15 CAA         2.2540    2.2190    3.5460 c3        1 E9P     -0.208000
     16 O16         1.9530    0.8640   -1.7780 oh        1 E9P     -0.230000
     17 H6         -1.8030    0.5880    0.6300 ha        1 E9P      0.151000
     18 H3          2.9150    0.8570    0.6430 ha        1 E9P      0.138000
     19 H16         2.5190    1.5500   -1.7440 ho        1 E9P      0.218000
     20 H5         -0.6280    0.6300    2.6790 ha        1 E9P      0.139000
     21 H141        1.4630    0.3430    3.8430 hc        1 E9P      0.089000
     22 H142        2.8490    0.3130    3.0490 hc        1 E9P      0.089000
     23 H9         -3.2980   -0.0040   -1.4030 ha        1 E9P      0.149000
     24 H13         0.3020   -1.3440   -2.8130 ha        1 E9P      0.143000
     25 H10        -4.2920   -2.0670   -1.9820 ha        1 E9P      0.132000
     26 H11        -2.9900   -3.7690   -2.9760 ha        1 E9P      0.131000
     27 H12        -0.6930   -3.4060   -3.3920 ha        1 E9P      0.131000
     28 HAA1        2.9390    2.6020    2.9590 hc        1 E9P      0.077333
     29 HAA2        2.5650    2.2510    4.4750 hc        1 E9P      0.077333
     30 HAA3        1.4250    2.7350    3.4610 hc        1 E9P      0.077333
@<TRIPOS>BOND
     1    1    6 1   
     2    1    7 1   
     3    2    3 1   
     4    2   16 1   
     5    3   18 1   
     6    4    5 1   
     7    4   14 1   
     8    5   20 1   
     9    6   17 1   
    10    7    8 1   
    11    8    9 1   
    12    8   13 1   
    13    9   10 1   
    14    9   23 1   
    15   10   25 1   
    16   11   12 1   
    17   11   26 1   
    18   12   27 1   
    19   13   24 1   
    20   14   15 1   
    21   14   21 1   
    22   14   22 1   
    23   15   28 1   
    24   15   29 1   
    25   15   30 1   
    26   16   19 1   
@<TRIPOS>SUBSTRUCTURE
     1 E9P         1 TEMP              0 ****  ****    0 ROOT
