@<TRIPOS>MOLECULE
E9P
   30    31     1     0     0
SMALL
bcc


@<TRIPOS>ATOM
      1 C1         -0.1670   -0.7320    0.4620 ca        1 E9P     -0.003900
      2 C2          1.1490   -0.3550    0.1290 ca        1 E9P      0.133100
      3 C3          2.0300    0.0640    1.1380 ca        1 E9P     -0.151000
      4 C4          1.5920    0.1090    2.4620 ca        1 E9P     -0.046300
      5 C5          0.2790   -0.2690    2.7820 ca        1 E9P     -0.155000
      6 C6         -0.6010   -0.6900    1.7900 ca        1 E9P     -0.105000
      7 O7         -0.9500   -1.2610   -0.5630 os        1 E9P     -0.260200
      8 C8         -2.1460   -0.5990   -0.8330 ca        1 E9P      0.107100
      9 C9         -2.4320    0.7020   -0.4070 ca        1 E9P     -0.165500
     10 C10        -3.6430    1.2830   -0.7810 ca        1 E9P     -0.103000
     11 C11        -4.5530    0.5770   -1.5660 ca        1 E9P     -0.155000
     12 C12        -4.2550   -0.7220   -1.9840 ca        1 E9P     -0.103000
     13 C13        -3.0540   -1.3250   -1.6210 ca        1 E9P     -0.165500
     14 C14         2.5200    0.5460    3.5430 c3        1 E9P     -0.041100
     15 CAA         2.1520    1.9050    4.0900 c3        1 E9P     -0.090100
     16 O16         1.6320   -0.3920   -1.1550 oh        1 E9P     -0.492100
     17 H6         -1.6310   -0.9880    2.0340 ha        1 E9P      0.149000
     18 H3          3.0560    0.3510    0.8660 ha        1 E9P      0.154000
     19 H16         0.9150   -0.7010   -1.7330 ho        1 E9P      0.437000
     20 H5         -0.0550   -0.2340    3.8290 ha        1 E9P      0.138000
     21 H141        3.5730    0.5740    3.1540 hc        1 E9P      0.050700
     22 H142        2.4930   -0.2110    4.3730 hc        1 E9P      0.050700
     23 H9         -1.7120    1.2540    0.2150 ha        1 E9P      0.149500
     24 H13        -2.8060   -2.3460   -1.9410 ha        1 E9P      0.149500
     25 H10        -3.8770    2.3070   -0.4520 ha        1 E9P      0.135000
     26 H11        -5.5050    1.0420   -1.8580 ha        1 E9P      0.134000
     27 H12        -4.9750   -1.2780   -2.6030 ha        1 E9P      0.135000
     28 HAA1        2.8490    2.1850    4.9160 hc        1 E9P      0.037033
     29 HAA2        1.1090    1.8980    4.4910 hc        1 E9P      0.037033
     30 HAA3        2.2160    2.6830    3.2920 hc        1 E9P      0.037033
@<TRIPOS>BOND
     1    1    2 ar  
     2    1    6 ar  
     3    1    7 1   
     4    2    3 ar  
     5    2   16 1   
     6    3    4 ar  
     7    3   18 1   
     8    4    5 ar  
     9    4   14 1   
    10    5    6 ar  
    11    5   20 1   
    12    6   17 1   
    13    7    8 1   
    14    8    9 ar  
    15    8   13 ar  
    16    9   10 ar  
    17    9   23 1   
    18   10   11 ar  
    19   10   25 1   
    20   11   12 ar  
    21   11   26 1   
    22   12   13 ar  
    23   12   27 1   
    24   13   24 1   
    25   14   15 1   
    26   14   21 1   
    27   14   22 1   
    28   15   28 1   
    29   15   29 1   
    30   15   30 1   
    31   16   19 1   
@<TRIPOS>SUBSTRUCTURE
     1 E9P         1 TEMP              0 ****  ****    0 ROOT
