@<TRIPOS>MOLECULE
E9P
   30    31     1     0     0
SMALL
bcc


@<TRIPOS>ATOM
      1 C1         -0.1780   -0.7410    0.4750 ca        1 E9P     -0.002900
      2 C2          1.1410   -0.3840    0.1320 ca        1 E9P      0.133100
      3 C3          2.0300    0.0410    1.1320 ca        1 E9P     -0.151000
      4 C4          1.5960    0.1120    2.4560 ca        1 E9P     -0.046300
      5 C5          0.2800   -0.2460    2.7860 ca        1 E9P     -0.155000
      6 C6         -0.6070   -0.6730    1.8040 ca        1 E9P     -0.105000
      7 O7         -0.9700   -1.2780   -0.5390 os        1 E9P     -0.260200
      8 C8         -2.1600   -0.6080   -0.8150 ca        1 E9P      0.107100
      9 C9         -2.4310    0.7030   -0.4080 ca        1 E9P     -0.165500
     10 C10        -3.6380    1.2900   -0.7870 ca        1 E9P     -0.103000
     11 C11        -4.5570    0.5810   -1.5580 ca        1 E9P     -0.155000
     12 C12        -4.2750   -0.7280   -1.9570 ca        1 E9P     -0.103000
     13 C13        -3.0790   -1.3360   -1.5890 ca        1 E9P     -0.165500
     14 C14         2.5330    0.5560    3.5270 c3        1 E9P     -0.041100
     15 CAA         2.1820    1.9270    4.0530 c3        1 E9P     -0.090100
     16 O16         1.6190   -0.4470   -1.1520 oh        1 E9P     -0.492100
     17 H6         -1.6400   -0.9560    2.0560 ha        1 E9P      0.149000
     18 H3          3.0580    0.3120    0.8520 ha        1 E9P      0.154000
     19 H16         0.8980   -0.7580   -1.7230 ho        1 E9P      0.437000
     20 H5         -0.0500   -0.1910    3.8330 ha        1 E9P      0.138000
     21 H141        3.5850    0.5650    3.1350 hc        1 E9P      0.050700
     22 H142        2.5000   -0.1870    4.3700 hc        1 E9P      0.050700
     23 H9         -1.7030    1.2570    0.2020 ha        1 E9P      0.149500
     24 H13        -2.8420   -2.3650   -1.8930 ha        1 E9P      0.149500
     25 H10        -3.8600    2.3210   -0.4730 ha        1 E9P      0.135000
     26 H11        -5.5060    1.0510   -1.8530 ha        1 E9P      0.134000
     27 H12        -5.0030   -1.2860   -2.5640 ha        1 E9P      0.135000
     28 HAA1        2.8850    2.2130    4.8720 hc        1 E9P      0.037033
     29 HAA2        1.1410    1.9390    4.4560 hc        1 E9P      0.037033
     30 HAA3        2.2530    2.6920    3.2410 hc        1 E9P      0.037033
@<TRIPOS>BOND
     1    1    2 ar  
     2    1    6 ar  
     3    1    7 1   
     4    2    3 ar  
     5    2   16 1   
     6    3    4 ar  
     7    3   18 1   
     8    4    5 ar  
     9    4   14 1   
    10    5    6 ar  
    11    5   20 1   
    12    6   17 1   
    13    7    8 1   
    14    8    9 ar  
    15    8   13 ar  
    16    9   10 ar  
    17    9   23 1   
    18   10   11 ar  
    19   10   25 1   
    20   11   12 ar  
    21   11   26 1   
    22   12   13 ar  
    23   12   27 1   
    24   13   24 1   
    25   14   15 1   
    26   14   21 1   
    27   14   22 1   
    28   15   28 1   
    29   15   29 1   
    30   15   30 1   
    31   16   19 1   
@<TRIPOS>SUBSTRUCTURE
     1 E9P         1 TEMP              0 ****  ****    0 ROOT
