@<TRIPOS>MOLECULE
E9Z
   42    44     1     0     0
SMALL
bcc


@<TRIPOS>ATOM
      1 N1         -0.2570    0.1190    0.2570 nb        1 E9Z     -0.753000
      2 C2          1.1230    0.2650    0.1610 ca        1 E9Z      0.898900
      3 N3          2.0220    0.0250    1.1860 nb        1 E9Z     -0.802000
      4 C4          1.5100   -0.3650    2.3930 ca        1 E9Z      0.726200
      5 C5          0.0900   -0.5060    2.5680 ca        1 E9Z     -0.341200
      6 C6         -0.7250   -0.2570    1.4530 ca        1 E9Z      0.495200
      7 CAA        -1.4210    1.2820  -10.2480 c3        1 E9Z      0.116700
      8 CAC        -0.2220    1.3360   -2.4880 ca        1 E9Z     -0.097000
      9 CAD         1.5600   -0.0870   -3.3280 ca        1 E9Z     -0.097000
     10 CAE        -0.8480    1.2790   -3.7250 ca        1 E9Z     -0.172000
     11 CAF         0.9410   -0.1380   -4.5740 ca        1 E9Z     -0.172000
     12 CAH        -1.3290    0.0500   -8.2300 c3        1 E9Z      0.122400
     13 CAI        -0.3920   -0.1690   -7.0450 c3        1 E9Z      0.124400
     14 CAJ         4.5790   -0.4590    4.6800 cx        1 E9Z     -0.148900
     15 CAK         4.3000    0.8880    4.0820 cx        1 E9Z     -0.148900
     16 NAN         1.6820    0.7640   -1.0350 nu        1 E9Z     -0.698300
     17 NAO         2.3660   -0.7080    3.4400 nu        1 E9Z     -0.809900
     18 OAP        -0.6120    0.8530   -9.1660 os        1 E9Z     -0.423600
     19 OAQ        -0.9770    0.5540   -5.9550 os        1 E9Z     -0.330900
     20 CAS         0.9930    0.6500   -2.2690 ca        1 E9Z      0.086600
     21 CAT        -0.2650    0.5410   -4.7720 ca        1 E9Z      0.125100
     22 CAW         3.7470   -0.3610    3.4170 cx        1 E9Z      0.162500
     23 Cl5        -0.5980   -0.9660    4.0420 cl        1 E9Z     -0.077400
     24 H6         -1.8250   -0.3650    1.5210 h4        1 E9Z      0.038100
     25 HAA        -0.7300    1.8820  -10.8910 h1        1 E9Z      0.034367
     26 HAAA       -2.2670    1.9150   -9.8820 h1        1 E9Z      0.034367
     27 HAAB       -1.8200    0.4030  -10.8140 h1        1 E9Z      0.034367
     28 HAC        -0.6860    1.9200   -1.6780 ha        1 E9Z      0.145000
     29 HAD         2.5080   -0.6300   -3.1860 ha        1 E9Z      0.145000
     30 HAE        -1.7960    1.8080   -3.9000 ha        1 E9Z      0.145500
     31 HAF         1.4090   -0.7160   -5.3820 ha        1 E9Z      0.145500
     32 HAH        -1.5890   -0.9300   -8.7090 h1        1 E9Z      0.046200
     33 HAHA       -2.2680    0.5720   -7.9070 h1        1 E9Z      0.046200
     34 HAI         0.6320    0.2320   -7.2660 h1        1 E9Z      0.055700
     35 HAIA       -0.3360   -1.2560   -6.7800 h1        1 E9Z      0.055700
     36 HAJ         4.0990   -0.7270    5.6380 hc        1 E9Z      0.076950
     37 HAJA        5.5910   -0.8930    4.5950 hc        1 E9Z      0.076950
     38 HAK         5.1100    1.4330    3.5680 hc        1 E9Z      0.076950
     39 HAKA        3.6190    1.5750    4.6150 hc        1 E9Z      0.076950
     40 HNAN        2.6720    0.6400   -1.1120 hn        1 E9Z      0.434800
     41 HNAO        1.9380   -0.7080    4.3430 hn        1 E9Z      0.428800
     42 HAW         4.2220   -0.6790    2.4610 h1        1 E9Z      0.114700
@<TRIPOS>BOND
     1    1    2 ar  
     2    1    6 ar  
     3    2    3 ar  
     4    2   16 1   
     5    3    4 ar  
     6    4    5 ar  
     7    4   17 1   
     8    5    6 ar  
     9    5   23 1   
    10    6   24 1   
    11    7   18 1   
    12    7   25 1   
    13    7   26 1   
    14    7   27 1   
    15    8   10 ar  
    16    8   20 ar  
    17    8   28 1   
    18    9   11 ar  
    19    9   20 ar  
    20    9   29 1   
    21   10   21 ar  
    22   10   30 1   
    23   11   21 ar  
    24   11   31 1   
    25   12   13 1   
    26   12   18 1   
    27   12   32 1   
    28   12   33 1   
    29   13   19 1   
    30   13   34 1   
    31   13   35 1   
    32   14   15 1   
    33   14   22 1   
    34   14   36 1   
    35   14   37 1   
    36   15   22 1   
    37   15   38 1   
    38   15   39 1   
    39   16   20 1   
    40   16   40 1   
    41   17   22 1   
    42   17   41 1   
    43   19   21 1   
    44   22   42 1   
@<TRIPOS>SUBSTRUCTURE
     1 E9Z         1 TEMP              0 ****  ****    0 ROOT
