@<TRIPOS>MOLECULE
E9Z
   44    46     1     0     0
SMALL
bcc


@<TRIPOS>ATOM
      1 N1         -1.0520    1.0000    1.0260 nb        1 E9Z     -0.609000
      2 C2          0.2090    1.4530    0.6790 ca        1 E9Z      0.757900
      3 N3          1.3820    1.1110    1.2830 nb        1 E9Z     -0.658000
      4 C4          1.2810    0.2400    2.3340 ca        1 E9Z      0.520200
      5 C5          0.0430   -0.2910    2.7680 ca        1 E9Z     -0.171200
      6 C6         -1.1150    0.1490    2.0490 ca        1 E9Z      0.503200
      7 CAA        -0.7380    0.8030   -9.6200 c3        1 E9Z      0.113700
      8 CAC        -1.1370    1.3560   -2.2400 ca        1 E9Z     -0.044000
      9 CAD         1.2990    1.4240   -2.5300 ca        1 E9Z     -0.044000
     10 CAE        -1.2680    0.7730   -3.4830 ca        1 E9Z     -0.178000
     11 CAF         1.1650    0.8410   -3.7790 ca        1 E9Z     -0.178000
     12 CAH         0.0850   -0.4180   -7.7660 c3        1 E9Z      0.122400
     13 CAI         0.7350   -0.1730   -6.4080 c3        1 E9Z      0.117400
     14 CAJ         4.5280   -1.7860    2.8510 cx        1 E9Z     -0.086400
     15 CAK         4.1970   -1.3900    1.4470 cx        1 E9Z     -0.086400
     16 NAN         0.2810    2.3980   -0.4850 n4        1 E9Z     -0.583100
     17 NAO         2.5370   -0.1360    3.0220 n4        1 E9Z     -0.714700
     18 OAP        -0.1320    0.8670   -8.3360 os        1 E9Z     -0.431600
     19 OAQ        -0.3660   -0.0470   -5.4780 os        1 E9Z     -0.285900
     20 CAS         0.1500    1.6990   -1.7630 ca        1 E9Z     -0.167400
     21 CAT        -0.1170    0.5190   -4.2750 ca        1 E9Z      0.238100
     22 CAW         3.1030   -1.3990    2.4950 cx        1 E9Z     -0.021500
     23 CL5        -0.1080   -1.3510    4.0450 cl        1 E9Z      0.082600
     24 H6         -2.1340   -0.2140    2.3290 h4        1 E9Z      0.116100
     25 HAA        -1.7450    0.3210   -9.5540 h1        1 E9Z      0.048700
     26 HAAA       -0.8320    1.8740   -9.9300 h1        1 E9Z      0.048700
     27 HAAB       -0.0860    0.2410  -10.3330 h1        1 E9Z      0.048700
     28 HAC        -2.0420    1.5590   -1.6410 ha        1 E9Z      0.158500
     29 HAD         2.3070    1.6790   -2.1640 ha        1 E9Z      0.158500
     30 HAE        -2.2620    0.5100   -3.8870 ha        1 E9Z      0.188000
     31 HAF         2.0640    0.6380   -4.3830 ha        1 E9Z      0.188000
     32 HAH         0.7880   -1.0130   -8.4100 h1        1 E9Z      0.063200
     33 HAHA       -0.8890   -0.9650   -7.6560 h1        1 E9Z      0.063200
     34 HAI         1.3350    0.7730   -6.4260 h1        1 E9Z      0.070700
     35 HAIA        1.3550   -1.0490   -6.0900 h1        1 E9Z      0.070700
     36 HAJ         4.7120   -2.8520    3.1000 hc        1 E9Z      0.121950
     37 HAJA        5.1550   -1.1140    3.4680 hc        1 E9Z      0.121950
     38 HAK         4.1430   -2.1620    0.6520 hc        1 E9Z      0.121950
     39 HAKA        4.5850   -0.4300    1.0550 hc        1 E9Z      0.121950
     40 HNAN       -0.4970    3.0740   -0.3950 hn        1 E9Z      0.488800
     41 HNAO        3.2360    0.6200    2.9250 hn        1 E9Z      0.481800
     42 HAW         2.3150   -2.1870    2.4600 hx        1 E9Z      0.151700
     43 HAN2        1.1790    2.9050   -0.4620 hn        1 E9Z      0.488800
     44 HAO2        2.3270   -0.2620    4.0270 hn        1 E9Z      0.481800
@<TRIPOS>BOND
     1    1    2 ar  
     2    1    6 ar  
     3    2    3 ar  
     4    2   16 1   
     5    3    4 ar  
     6    4    5 ar  
     7    4   17 1   
     8    5    6 ar  
     9    5   23 1   
    10    6   24 1   
    11    7   18 1   
    12    7   25 1   
    13    7   26 1   
    14    7   27 1   
    15    8   10 ar  
    16    8   20 ar  
    17    8   28 1   
    18    9   11 ar  
    19    9   20 ar  
    20    9   29 1   
    21   10   21 ar  
    22   10   30 1   
    23   11   21 ar  
    24   11   31 1   
    25   12   13 1   
    26   12   18 1   
    27   12   32 1   
    28   12   33 1   
    29   13   19 1   
    30   13   34 1   
    31   13   35 1   
    32   14   15 1   
    33   14   22 1   
    34   14   36 1   
    35   14   37 1   
    36   15   22 1   
    37   15   38 1   
    38   15   39 1   
    39   16   20 1   
    40   16   40 1   
    41   16   43 1   
    42   17   22 1   
    43   17   41 1   
    44   17   44 1   
    45   19   21 1   
    46   22   42 1   
@<TRIPOS>SUBSTRUCTURE
     1 E9Z         1 TEMP              0 ****  ****    0 ROOT
