@<TRIPOS>MOLECULE
E9Z
   42    44     1     0     0
SMALL
bcc


@<TRIPOS>ATOM
      1 N1         -0.2560    0.1290    0.2580 nb        1 E9Z     -0.753000
      2 C2          1.1240    0.2670    0.1610 ca        1 E9Z      0.898900
      3 N3          2.0230    0.0250    1.1850 nb        1 E9Z     -0.802000
      4 C4          1.5100   -0.3600    2.3940 ca        1 E9Z      0.726200
      5 C5          0.0890   -0.4940    2.5700 ca        1 E9Z     -0.341200
      6 C6         -0.7250   -0.2420    1.4550 ca        1 E9Z      0.495200
      7 CAA        -1.4210    1.2810  -10.2470 c3        1 E9Z      0.116700
      8 CAC        -0.2170    1.3390   -2.4900 ca        1 E9Z     -0.097000
      9 CAD         1.5580   -0.0940   -3.3280 ca        1 E9Z     -0.097000
     10 CAE        -0.8440    1.2820   -3.7260 ca        1 E9Z     -0.172000
     11 CAF         0.9370   -0.1450   -4.5730 ca        1 E9Z     -0.172000
     12 CAH        -1.3320    0.0490   -8.2290 c3        1 E9Z      0.122400
     13 CAI        -0.3970   -0.1730   -7.0440 c3        1 E9Z      0.124400
     14 CAJ         4.5800   -0.4640    4.6790 cx        1 E9Z     -0.148900
     15 CAK         4.3060    0.8830    4.0790 cx        1 E9Z     -0.148900
     16 NAN         1.6850    0.7610   -1.0370 nh        1 E9Z     -0.698300
     17 NAO         2.3640   -0.7040    3.4410 nh        1 E9Z     -0.809900
     18 OAP        -0.6130    0.8490   -9.1650 os        1 E9Z     -0.423600
     19 OAQ        -0.9780    0.5540   -5.9550 os        1 E9Z     -0.330900
     20 CAS         0.9950    0.6480   -2.2700 ca        1 E9Z      0.086600
     21 CAT        -0.2660    0.5400   -4.7720 ca        1 E9Z      0.125100
     22 CAW         3.7470   -0.3640    3.4170 cx        1 E9Z      0.162500
     23 CL5        -0.6000   -0.9460    4.0460 cl        1 E9Z     -0.077400
     24 H6         -1.8260   -0.3450    1.5240 h4        1 E9Z      0.038100
     25 HAA        -1.8240    0.4050  -10.8120 h1        1 E9Z      0.034367
     26 HAAA       -0.7280    1.8790  -10.8900 h1        1 E9Z      0.034367
     27 HAAB       -2.2640    1.9180   -9.8800 h1        1 E9Z      0.034367
     28 HAC        -0.6780    1.9270   -1.6810 ha        1 E9Z      0.145000
     29 HAD         2.5030   -0.6420   -3.1860 ha        1 E9Z      0.145000
     30 HAE        -1.7890    1.8160   -3.9020 ha        1 E9Z      0.145500
     31 HAF         1.4020   -0.7270   -5.3810 ha        1 E9Z      0.145500
     32 HAH        -1.5960   -0.9310   -8.7080 h1        1 E9Z      0.046200
     33 HAHA       -2.2700    0.5740   -7.9060 h1        1 E9Z      0.046200
     34 HAI         0.6290    0.2230   -7.2660 h1        1 E9Z      0.055700
     35 HAIA       -0.3460   -1.2600   -6.7780 h1        1 E9Z      0.055700
     36 HAJ         5.5890   -0.9030    4.5940 hc        1 E9Z      0.076950
     37 HAJA        4.0990   -0.7280    5.6380 hc        1 E9Z      0.076950
     38 HAK         3.6290    1.5740    4.6110 hc        1 E9Z      0.076950
     39 HAKA        5.1190    1.4240    3.5630 hc        1 E9Z      0.076950
     40 HNAN        2.6750    0.6310   -1.1140 hn        1 E9Z      0.434800
     41 HNAO        1.9370   -0.7010    4.3440 hn        1 E9Z      0.428800
     42 HAW         4.2200   -0.6870    2.4610 h1        1 E9Z      0.114700
@<TRIPOS>BOND
     1    1    2 ar  
     2    1    6 ar  
     3    2    3 ar  
     4    2   16 1   
     5    3    4 ar  
     6    4    5 ar  
     7    4   17 1   
     8    5    6 ar  
     9    5   23 1   
    10    6   24 1   
    11    7   18 1   
    12    7   25 1   
    13    7   26 1   
    14    7   27 1   
    15    8   10 ar  
    16    8   20 ar  
    17    8   28 1   
    18    9   11 ar  
    19    9   20 ar  
    20    9   29 1   
    21   10   21 ar  
    22   10   30 1   
    23   11   21 ar  
    24   11   31 1   
    25   12   13 1   
    26   12   18 1   
    27   12   32 1   
    28   12   33 1   
    29   13   19 1   
    30   13   34 1   
    31   13   35 1   
    32   14   15 1   
    33   14   22 1   
    34   14   36 1   
    35   14   37 1   
    36   15   22 1   
    37   15   38 1   
    38   15   39 1   
    39   16   20 1   
    40   16   40 1   
    41   17   22 1   
    42   17   41 1   
    43   19   21 1   
    44   22   42 1   
@<TRIPOS>SUBSTRUCTURE
     1 E9Z         1 TEMP              0 ****  ****    0 ROOT
