@<TRIPOS>MOLECULE
E9Z
   42    44     1     0     0
SMALL
bcc


@<TRIPOS>ATOM
      1 N1         -1.3190   -1.2440    0.1170 nb        1 E9Z     -0.753000
      2 C2         -1.5470    0.1030   -0.1390 ca        1 E9Z      0.898900
      3 N3         -2.7690    0.7420   -0.0120 nb        1 E9Z     -0.802000
      4 C4         -3.8380   -0.0170    0.3750 ca        1 E9Z      0.726200
      5 C5         -3.6770   -1.4240    0.6260 ca        1 E9Z     -0.341200
      6 C6         -2.3880   -1.9600    0.4860 ca        1 E9Z      0.495200
      7 CAA         9.2090    0.0910   -0.5540 c3        1 E9Z      0.116700
      8 CAC         1.4020   -0.6320   -0.9970 ca        1 E9Z     -0.097000
      9 CAD         1.7110    1.3970    0.3040 ca        1 E9Z     -0.097000
     10 CAE         2.7470   -0.9340   -0.8430 ca        1 E9Z     -0.172000
     11 CAF         3.0640    1.1030    0.4520 ca        1 E9Z     -0.172000
     12 CAH         7.1610   -0.2210    0.5880 c3        1 E9Z      0.122400
     13 CAI         5.7770    0.4140    0.6840 c3        1 E9Z      0.124400
     14 CAJ        -6.7930    2.4050    0.1310 cx        1 E9Z     -0.148900
     15 CAK        -6.0730    2.1830   -1.1650 cx        1 E9Z     -0.148900
     16 NAN        -0.4930    0.8980   -0.6390 nh        1 E9Z     -0.698300
     17 NAO        -5.0770    0.5810    0.6070 nh        1 E9Z     -0.809900
     18 OAP         7.9430    0.6420   -0.2350 os        1 E9Z     -0.423600
     19 OAQ         4.8990   -0.4670   -0.0280 os        1 E9Z     -0.330900
     20 CAS         0.8610    0.5390   -0.4220 ca        1 E9Z      0.086600
     21 CAT         3.5820   -0.0640   -0.1170 ca        1 E9Z      0.125100
     22 CAW        -5.3650    1.8980    0.1490 cx        1 E9Z      0.162500
     23 CL5        -4.9680   -2.4140    1.0870 cl        1 E9Z     -0.077400
     24 H6         -2.1970   -3.0330    0.6820 h4        1 E9Z      0.038100
     25 HAA         9.8030   -0.0950    0.3740 h1        1 E9Z      0.034367
     26 HAAA        9.0920   -0.8600   -1.1290 h1        1 E9Z      0.034367
     27 HAAB        9.7010    0.8730   -1.1850 h1        1 E9Z      0.034367
     28 HAC         0.7590   -1.3190   -1.5700 ha        1 E9Z      0.145000
     29 HAD         1.3170    2.3190    0.7610 ha        1 E9Z      0.145000
     30 HAE         3.1720   -1.8470   -1.2840 ha        1 E9Z      0.145500
     31 HAF         3.7040    1.7930    1.0190 ha        1 E9Z      0.145500
     32 HAH         7.6320   -0.2870    1.6040 h1        1 E9Z      0.046200
     33 HAHA        7.1010   -1.2450    0.1330 h1        1 E9Z      0.046200
     34 HAI         5.4450    0.4820    1.7530 h1        1 E9Z      0.055700
     35 HAIA        5.7690    1.4300    0.2090 h1        1 E9Z      0.055700
     36 HAJ        -6.9760    3.4350    0.4840 hc        1 E9Z      0.076950
     37 HAJA       -7.6230    1.7270    0.4030 hc        1 E9Z      0.076950
     38 HAK        -6.3890    1.3460   -1.8120 hc        1 E9Z      0.076950
     39 HAKA       -5.7370    3.0530   -1.7560 hc        1 E9Z      0.076950
     40 HNAN       -0.6620    1.8850   -0.5930 hn        1 E9Z      0.434800
     41 HNAO       -5.8500   -0.0520    0.6100 hn        1 E9Z      0.428800
     42 HAW        -4.5690    2.6120    0.4620 h1        1 E9Z      0.114700
@<TRIPOS>BOND
     1    1    2 ar  
     2    1    6 ar  
     3    2    3 ar  
     4    2   16 1   
     5    3    4 ar  
     6    4    5 ar  
     7    4   17 1   
     8    5    6 ar  
     9    5   23 1   
    10    6   24 1   
    11    7   18 1   
    12    7   25 1   
    13    7   26 1   
    14    7   27 1   
    15    8   10 ar  
    16    8   20 ar  
    17    8   28 1   
    18    9   11 ar  
    19    9   20 ar  
    20    9   29 1   
    21   10   21 ar  
    22   10   30 1   
    23   11   21 ar  
    24   11   31 1   
    25   12   13 1   
    26   12   18 1   
    27   12   32 1   
    28   12   33 1   
    29   13   19 1   
    30   13   34 1   
    31   13   35 1   
    32   14   15 1   
    33   14   22 1   
    34   14   36 1   
    35   14   37 1   
    36   15   22 1   
    37   15   38 1   
    38   15   39 1   
    39   16   20 1   
    40   16   40 1   
    41   17   22 1   
    42   17   41 1   
    43   19   21 1   
    44   22   42 1   
@<TRIPOS>SUBSTRUCTURE
     1 E9Z         1 TEMP              0 ****  ****    0 ROOT
