@<TRIPOS>MOLECULE
EA1
   17     9     1     0     0
SMALL
bcc


@<TRIPOS>ATOM
      1 N7          0.8800    0.0010   -2.1550 n2        1 EA1     -0.081000
      2 C8          2.2340    0.0010   -2.1550 c1        1 EA1     -0.070000
      3 C5          0.4590    0.0010   -0.8630 c1        1 EA1     -0.071000
      4 C4          1.5540    0.0010   -0.0680 c1        1 EA1     -0.044000
      5 N3          1.4100    0.0010    1.2980 n1        1 EA1     -0.131000
      6 N9          2.6530    0.0010   -0.8680 n1        1 EA1     -0.190000
      7 C6         -0.8210    0.0010   -0.2910 c1        1 EA1      0.060000
      8 N6         -2.0790    0.0010   -0.8480 n1        1 EA1     -0.110000
      9 C11        -2.9720    0.0010    0.1470 c1        1 EA1     -0.131000
     10 N1         -0.9580    0.0010    1.0470 n1        1 EA1     -0.138000
     11 C10        -2.2860    0.0010    1.3320 c1        1 EA1     -0.180000
     12 C2          0.1610    0.0010    1.8560 c1        1 EA1      0.044000
     13 H8          2.8070    0.0010   -2.9450 DU        1 EA1      0.211500
     14 HN9         3.5200    0.0010   -0.5870 DU        1 EA1      0.211500
     15 H11        -3.9430   -0.0140    0.0470 DU        1 EA1      0.211500
     16 H10        -2.6810    0.0010    2.2240 DU        1 EA1      0.211500
     17 H2          0.0610    0.0010    2.8270 ha        1 EA1      0.197000
@<TRIPOS>BOND
     1    1    2 1   
     2    1    3 1   
     3    2    6 1   
     4    3    4 1   
     5    5   12 1   
     6    7   10 1   
     7    8    9 1   
     8    9   11 1   
     9   12   17 1   
@<TRIPOS>SUBSTRUCTURE
     1 EA1         1 TEMP              0 ****  ****    0 ROOT
