@<TRIPOS>MOLECULE
EA1
   17    19     1     0     0
SMALL
bcc


@<TRIPOS>ATOM
      1 N7          1.6040   -0.0010   -1.6430 nc        1 EA1     -0.508100
      2 C8          0.9580   -0.0010   -2.8300 cd        1 EA1      0.385700
      3 C5          0.5930   -0.0010   -0.6870 cc        1 EA1      0.003100
      4 C4         -0.7070   -0.0010   -1.3310 cd        1 EA1      0.347800
      5 N3         -1.9290   -0.0010   -0.6720 nd        1 EA1     -0.657000
      6 N9         -0.4410   -0.0020   -2.7050 na        1 EA1     -0.342000
      7 C6          0.6170   -0.0010    0.7450 cc        1 EA1      0.035700
      8 N6          1.6090   -0.0000    1.6670 nd        1 EA1     -0.250600
      9 C11         0.9670   -0.0000    2.9050 cd        1 EA1      0.009600
     10 N1         -0.6810   -0.0010    1.3870 na        1 EA1     -0.175100
     11 C10        -0.4330   -0.0000    2.7620 cc        1 EA1     -0.207100
     12 C2         -1.8580   -0.0010    0.6470 cc        1 EA1      0.532400
     13 H8          1.4480   -0.0010   -3.8110 h5        1 EA1      0.077800
     14 HN9        -1.1120   -0.0020   -3.4270 hn        1 EA1      0.319700
     15 H11         1.5420    0.0000    3.8320 h4        1 EA1      0.185000
     16 H10        -1.2330   -0.0000    3.4990 h4        1 EA1      0.184000
     17 H2         -2.8080   -0.0010    1.2220 h5        1 EA1      0.060100
@<TRIPOS>BOND
     1    1    2 2   
     2    1    3 1   
     3    2    6 1   
     4    2   13 1   
     5    3    4 2   
     6    3    7 1   
     7    4    5 1   
     8    4    6 1   
     9    5   12 2   
    10    6   14 1   
    11    7    8 2   
    12    7   10 1   
    13    8    9 1   
    14    9   11 2   
    15    9   15 1   
    16   10   11 1   
    17   10   12 1   
    18   11   16 1   
    19   12   17 1   
@<TRIPOS>SUBSTRUCTURE
     1 EA1         1 TEMP              0 ****  ****    0 ROOT
