@<TRIPOS>MOLECULE
EA2
   18    17     1     0     0
SMALL
bcc


@<TRIPOS>ATOM
      1 O1P        -2.5250   -1.2790   -3.6210 o         1 EA2     -0.927500
      2 O2P        -0.5110   -2.5120   -4.3330 o         1 EA2     -0.927500
      3 P1         -1.0150   -1.2790   -3.6210 p5        1 EA2      1.378900
      4 O4P        -0.4880   -1.2790   -2.1310 os        1 EA2     -0.728800
      5 O5P        -1.6000    0.8380   -1.3240 o         1 EA2     -0.942000
      6 O6P         0.8200    0.8530   -1.7960 o         1 EA2     -0.942000
      7 P2         -0.3260    0.0300   -1.2600 p5        1 EA2      1.597800
      8 O7P        -0.0310   -0.3700    0.2410 os        1 EA2     -0.549200
      9 C1          0.4040    0.6330    1.1290 c3        1 EA2      0.276400
     10 C2          0.5330    0.0530    2.5210 c3        1 EA2      0.048800
     11 N3          1.0900    1.0330    3.3940 n3        1 EA2     -0.920800
     12 O3P        -0.5110   -0.0460   -4.3330 o         1 EA2     -0.927500
     13 H11         1.2710    0.9740    0.8370 h1        1 EA2     -0.062800
     14 H12        -0.2450    1.3620    1.1400 h1        1 EA2     -0.062800
     15 H21        -0.3480   -0.2110    2.8470 h1        1 EA2      0.043700
     16 H22         1.1180   -0.7290    2.4940 h1        1 EA2      0.043700
     17 HN31        0.4980    1.2130    4.0650 hn        1 EA2      0.300300
     18 HN32        1.8660    0.7150    3.7520 hn        1 EA2      0.300300
@<TRIPOS>BOND
     1    1    3 1   
     2    2    3 1   
     3    3    4 1   
     4    3   12 1   
     5    4    7 1   
     6    5    7 1   
     7    6    7 1   
     8    7    8 1   
     9    8    9 1   
    10    9   10 1   
    11    9   13 1   
    12    9   14 1   
    13   10   11 1   
    14   10   15 1   
    15   10   16 1   
    16   11   17 1   
    17   11   18 1   
@<TRIPOS>SUBSTRUCTURE
     1 EA2         1 TEMP              0 ****  ****    0 ROOT
