@<TRIPOS>MOLECULE
EA4
   35    31     1     0     0
SMALL
bcc


@<TRIPOS>ATOM
      1 C           1.3700    2.4840   -2.9340 c1        1 EA4      0.271000
      2 N           0.2790    1.0310   -1.3120 n         1 EA4     -0.334000
      3 O           2.5380    2.3180   -2.6970 o         1 EA4     -0.362000
      4 CA          0.3330    2.3840   -1.8030 c2        1 EA4     -0.041000
      5 CAA         1.1800    4.1260   -6.3640 c3        1 EA4     -0.245000
      6 NAB        -2.1600   -4.7410    5.2390 n3        1 EA4     -0.332000
      7 OAC         1.0000    1.5610    0.8440 o         1 EA4     -0.394000
      8 CAE        -1.6240   -2.4610    4.6620 c1        1 EA4     -0.196000
      9 CAF        -1.1920   -4.2700    3.1120 c1        1 EA4     -0.139500
     10 CAG        -1.1340   -1.5570    3.7580 c1        1 EA4     -0.071000
     11 CAH        -0.6930   -3.3520    2.1900 c1        1 EA4     -0.139500
     12 CAI         1.7980    3.7730   -4.9520 c3        1 EA4     -0.012000
     13 CAK         0.3360   -0.9860    1.9400 c3        1 EA4      0.003000
     14 NAM        -0.2260   -0.3810    0.7370 n         1 EA4     -0.331000
     15 OAN         0.9410    2.8310   -4.2860 os        1 EA4     -0.271000
     16 CAO         0.4100    0.7720    0.1460 c2        1 EA4      0.355000
     17 CAQ        -1.6560   -3.8360    4.3390 c1        1 EA4      0.070000
     18 CAR        -0.6630   -1.9970    2.5100 c1        1 EA4     -0.176000
     19 HN          0.1780    0.3290   -1.9000 hn        1 EA4      0.218000
     20 HA         -0.5950    2.6560   -2.1610 h4        1 EA4      0.146000
     21 HAA         0.5920    2.9900   -1.0610 h4        1 EA4      0.146000
     22 HAAA        1.7920    4.7480   -6.8510 hc        1 EA4      0.089000
     23 HAAB        0.2820    4.5700   -6.2320 hc        1 EA4      0.089000
     24 HAAC        1.0640    3.3090   -6.8850 hc        1 EA4      0.089000
     25 HNAB       -2.8900   -4.5370    5.7190 hn        1 EA4      0.187500
     26 HNAA       -1.7840   -5.5940    5.3020 hn        1 EA4      0.187500
     27 HAE        -1.9510   -2.1540    5.5360 ha        1 EA4      0.134000
     28 HAF        -1.2160   -5.2590    2.8840 ha        1 EA4      0.130000
     29 HAG        -1.1130   -0.6070    3.9790 ha        1 EA4      0.154000
     30 HAH        -0.3740   -3.6480    1.3440 ha        1 EA4      0.130000
     31 HAI         1.8650    4.5400   -4.4470 h1        1 EA4      0.105000
     32 HAIA        2.6860    3.3830   -5.0670 h1        1 EA4      0.105000
     33 HAK         1.1680   -1.4380    1.7200 h1        1 EA4      0.114000
     34 HAKA        0.5020   -0.3140    2.5800 h1        1 EA4      0.114000
     35 HNAM       -1.0430   -0.6740    0.4120 hn        1 EA4      0.206000
@<TRIPOS>BOND
     1    1    3 1   
     2    1   15 1   
     3    2    4 1   
     4    2   16 1   
     5    2   19 1   
     6    4   20 1   
     7    4   21 1   
     8    5   12 1   
     9    5   22 1   
    10    5   23 1   
    11    5   24 1   
    12    6   17 1   
    13    6   25 1   
    14    6   26 1   
    15    7   16 1   
    16    8   17 1   
    17    8   27 1   
    18    9   11 1   
    19    9   28 1   
    20   10   18 1   
    21   10   29 1   
    22   11   30 1   
    23   12   15 1   
    24   12   31 1   
    25   12   32 1   
    26   13   14 1   
    27   13   18 1   
    28   13   33 1   
    29   13   34 1   
    30   14   16 1   
    31   14   35 1   
@<TRIPOS>SUBSTRUCTURE
     1 EA4         1 TEMP              0 ****  ****    0 ROOT
