@<TRIPOS>MOLECULE
EA4
   35    35     1     0     0
SMALL
bcc


@<TRIPOS>ATOM
      1 C          -3.7260   -0.7720    0.0190 c         1 EA4      0.599100
      2 N          -1.2710   -1.0990    0.0720 n         1 EA4     -0.524900
      3 O          -3.9360   -1.3550   -1.0470 o         1 EA4     -0.551000
      4 CA         -2.4340   -0.6910    0.8090 c3        1 EA4      0.027000
      5 CAA        -6.9770    0.6390    0.8280 c3        1 EA4     -0.101100
      6 OAC        -0.4580    1.0730    0.0550 o         1 EA4     -0.635100
      7 CAE         5.1080   -0.5540   -0.6600 ca        1 EA4     -0.197000
      8 CAF         3.9940    0.4810    1.2380 ca        1 EA4     -0.197000
      9 CAG         3.9620   -0.3630   -1.4230 ca        1 EA4     -0.075500
     10 CAH         2.8600    0.6660    0.4590 ca        1 EA4     -0.075500
     11 CAI        -6.0280   -0.1560   -0.0350 c3        1 EA4      0.138400
     12 CAK         1.6050    0.4800   -1.7060 c3        1 EA4      0.126300
     13 NAM         0.5030   -0.4170   -1.4480 n         1 EA4     -0.521900
     14 OAN        -4.7530   -0.1220    0.6350 os        1 EA4     -0.433900
     15 CAO        -0.4060   -0.0870   -0.4210 c         1 EA4      0.729100
     16 CAQ         5.1430   -0.1420    0.6930 ca        1 EA4      0.150600
     17 CAR         2.8320    0.2470   -0.8760 ca        1 EA4     -0.182300
     18 HN         -1.4280   -1.8830   -0.5280 hn        1 EA4      0.305500
     19 HA         -2.3100    0.3620    1.1980 h1        1 EA4      0.106200
     20 HAA        -2.5470   -1.3890    1.6900 h1        1 EA4      0.106200
     21 HAAA       -7.9840    0.6470    0.3470 hc        1 EA4      0.049367
     22 HAAB       -7.0590    0.1850    1.8440 hc        1 EA4      0.049367
     23 HAAC       -6.6170    1.6900    0.9410 hc        1 EA4      0.049367
     24 HNAB        7.1070   -0.5330    0.9950 hn        1 EA4      0.392300
     25 HNAA        6.3410    0.1690    2.2960 hn        1 EA4      0.392300
     26 HAE         5.9860   -1.0370   -1.1140 ha        1 EA4      0.133000
     27 HAF         3.9910    0.8160    2.2850 ha        1 EA4      0.133000
     28 HAG         3.9540   -0.6930   -2.4740 ha        1 EA4      0.141000
     29 HAH         1.9660    1.1490    0.8890 ha        1 EA4      0.141000
     30 HAI        -6.3490   -1.2250   -0.1400 h1        1 EA4      0.052700
     31 HAIA       -5.9090    0.2930   -1.0550 h1        1 EA4      0.052700
     32 HAK         1.8600    0.3560   -2.7990 h1        1 EA4      0.073700
     33 HAKA        1.2480    1.5390   -1.5430 h1        1 EA4      0.073700
     34 HNAM        0.7300   -1.3840   -1.5450 hn        1 EA4      0.294500
     35 NAB         6.2550   -0.4140    1.4940 nh        1 EA4     -0.822200
@<TRIPOS>BOND
     1    1    3 2   
     2    1    4 1   
     3    1   14 1   
     4    2    4 1   
     5    2   15 1   
     6    2   18 1   
     7    4   19 1   
     8    4   20 1   
     9    5   11 1   
    10    5   21 1   
    11    5   22 1   
    12    5   23 1   
    13    6   15 2   
    14    7    9 ar  
    15    7   16 ar  
    16    7   26 1   
    17    8   10 ar  
    18    8   16 ar  
    19    8   27 1   
    20    9   17 ar  
    21    9   28 1   
    22   10   17 ar  
    23   10   29 1   
    24   11   14 1   
    25   11   30 1   
    26   11   31 1   
    27   12   13 1   
    28   12   17 1   
    29   12   32 1   
    30   12   33 1   
    31   13   15 1   
    32   13   34 1   
    33   16   35 1   
    34   24   35 1   
    35   25   35 1   
@<TRIPOS>SUBSTRUCTURE
     1 EA4         1 TEMP              0 ****  ****    0 ROOT
