@<TRIPOS>MOLECULE
EA4
   37    37     1     0     0
SMALL
bcc


@<TRIPOS>ATOM
      1 C          -0.2470   -0.2950    0.9460 c         1 EA4      0.641100
      2 N          -1.7230   -0.9900    2.8460 n4        1 EA4     -0.649800
      3 O           0.7470   -0.3190    1.6890 o         1 EA4     -0.608000
      4 CA         -1.6730   -0.4770    1.4400 c3        1 EA4      0.024800
      5 CAA         0.9090    0.2610   -2.4270 c3        1 EA4     -0.119100
      6 OAC        -2.2470    0.8140    4.2350 o         1 EA4     -0.337100
      7 CAE         2.5580    1.3150    7.9310 ca        1 EA4     -0.222000
      8 CAF         3.7830   -0.4960    6.7950 ca        1 EA4     -0.222000
      9 CAG         1.4150    0.9300    7.2850 ca        1 EA4     -0.007500
     10 CAH         2.6270   -0.8620    6.1610 ca        1 EA4     -0.007500
     11 CAI         1.1590    0.0930   -0.9530 c3        1 EA4      0.154400
     12 CAK         0.1750   -0.6260    5.7960 c3        1 EA4      0.244100
     13 NAM         0.0160    0.1210    4.3940 n4        1 EA4     -0.692800
     14 OAN        -0.1750   -0.1060   -0.3670 os        1 EA4     -0.372900
     15 CAO        -1.3480    0.0770    3.8580 c         1 EA4      0.488100
     16 CAQ         3.7960    0.6090    7.7200 ca        1 EA4      0.304600
     17 CAR         1.4060   -0.1740    6.3910 ca        1 EA4     -0.311300
     18 HN         -2.6990   -1.2770    3.0460 hn        1 EA4      0.492800
     19 HA         -2.2250    0.5100    1.3770 hx        1 EA4      0.170700
     20 HAA        -2.2060   -1.2230    0.7710 hx        1 EA4      0.170700
     21 HAAA        0.2540    1.1430   -2.6270 hc        1 EA4      0.080033
     22 HAAB        1.8950    0.4200   -2.9330 hc        1 EA4      0.080033
     23 HAAC        0.4230   -0.6480   -2.8590 hc        1 EA4      0.080033
     24 HNAB        4.9210    1.7220    9.0120 hn        1 EA4      0.469300
     25 HNAA        5.7710    0.4660    8.2240 hn        1 EA4      0.469300
     26 HAE         2.5340    2.1650    8.6350 ha        1 EA4      0.174000
     27 HAF         4.7150   -1.0580    6.6120 ha        1 EA4      0.174000
     28 HAG         0.4730    1.4720    7.4820 ha        1 EA4      0.145000
     29 HAH         2.6380   -1.7250    5.4730 ha        1 EA4      0.145000
     30 HAI         1.6020    1.0040   -0.4760 h1        1 EA4      0.076200
     31 HAIA        1.7710   -0.8130   -0.7120 h1        1 EA4      0.076200
     32 HAK         0.1670   -1.7170    5.5300 hx        1 EA4      0.100200
     33 HAKA       -0.7430   -0.3340    6.3760 hx        1 EA4      0.100200
     34 HNAM        0.2560    1.1160    4.5580 hn        1 EA4      0.488800
     35 H2         -1.1070   -1.8110    2.9280 hn        1 EA4      0.492800
     36 HAM2        0.7160   -0.2550    3.7300 hn        1 EA4      0.488800
     37 NAB         4.9220    0.9690    8.3610 nh        1 EA4     -0.782200
@<TRIPOS>BOND
     1    1    3 2   
     2    1    4 1   
     3    1   14 1   
     4    2    4 1   
     5    2   15 1   
     6    2   18 1   
     7    2   35 1   
     8    4   19 1   
     9    4   20 1   
    10    5   11 1   
    11    5   21 1   
    12    5   22 1   
    13    5   23 1   
    14    6   15 2   
    15    7    9 ar  
    16    7   16 ar  
    17    7   26 1   
    18    8   10 ar  
    19    8   16 ar  
    20    8   27 1   
    21    9   17 ar  
    22    9   28 1   
    23   10   17 ar  
    24   10   29 1   
    25   11   14 1   
    26   11   30 1   
    27   11   31 1   
    28   12   13 1   
    29   12   17 1   
    30   12   32 1   
    31   12   33 1   
    32   13   15 1   
    33   13   34 1   
    34   13   36 1   
    35   16   37 1   
    36   24   37 1   
    37   25   37 1   
@<TRIPOS>SUBSTRUCTURE
     1 EA4         1 TEMP              0 ****  ****    0 ROOT
