@<TRIPOS>MOLECULE
EA5
   43    40     1     0     0
SMALL
bcc


@<TRIPOS>ATOM
      1 P          -3.8180    0.3470    4.4440 p3        1 EA5      2.508000
      2 OP1        -4.1700    0.3210    5.9590 os        1 EA5     -1.234000
      3 OP2        -4.7450    1.3860    3.7100 o         1 EA5     -1.244000
      4 OP3        -4.0300   -1.0490    3.8480 o         1 EA5     -1.244000
      5 OP4        -2.3100    0.7710    4.2600 os        1 EA5     -0.723000
      6 C5A        -1.5920    0.2660    3.1150 c3        1 EA5      0.088000
      7 C5         -0.4690    1.2900    2.7080 c2        1 EA5     -0.067000
      8 C6         -0.4100    2.5700    3.3390 c1        1 EA5     -0.097000
      9 N1          0.4930    3.4610    2.9510 n1        1 EA5     -0.149000
     10 C2          1.3750    3.1500    1.9360 c1        1 EA5     -0.118000
     11 C2A         2.3930    4.1730    1.4710 c2        1 EA5     -0.130000
     12 C3          1.3140    1.8730    1.3080 c2        1 EA5      0.020000
     13 O3          2.2910    1.5050    0.3880 oh        1 EA5     -0.297000
     14 C4          0.4110    0.9820    1.6980 c2        1 EA5     -0.159000
     15 C4A         0.3590   -0.3990    1.0200 c3        1 EA5     -0.029000
     16 N4A         0.2600   -0.2210   -0.4200 n3        1 EA5     -0.345000
     17 N4          1.7030   -0.6100   -3.0440 n3        1 EA5     -0.344000
     18 CA          0.4990   -1.2770   -2.5790 c3        1 EA5     -0.032000
     19 C           0.5850   -1.4770   -1.1000 c3        1 EA5     -0.066000
     20 CB          0.3730   -2.6060   -3.2610 c3        1 EA5     -0.142000
     21 CG         -0.1370   -2.3920   -4.7530 c3        1 EA5     -0.219000
     22 CD         -0.7030   -3.7530   -5.3250 c2        1 EA5      0.326000
     23 OE1        -1.5570   -4.4030   -4.6740 o         1 EA5     -0.597500
     24 OE2        -0.2230   -4.2360   -6.4060 o         1 EA5     -0.597500
     25 H5A1       -2.2160    0.1450    2.3610 h1        1 EA5      0.058000
     26 H5A2       -1.1660   -0.6260    3.3490 h1        1 EA5      0.058000
     27 H6         -1.0500    2.7930    4.0740 ha        1 EA5      0.294000
     28 H2A1        2.3820    4.2200    0.4770 ha        1 EA5      0.060000
     29 H2A2        2.1770    5.0290    1.8320 ha        1 EA5      0.060000
     30 H2A3        3.3400    3.8900    1.7920 ha        1 EA5      0.060000
     31 HO3         3.1300    1.6340    0.7590 ho        1 EA5      0.232000
     32 H4A1       -0.4060   -0.8830    1.3370 h1        1 EA5      0.079000
     33 H4A2        1.1660   -0.8920    1.2310 h1        1 EA5      0.079000
     34 HN4A       -0.5250    0.0150   -0.6210 hn        1 EA5      0.163000
     35 HN41        1.7840    0.1670   -2.6350 hn        1 EA5      0.137500
     36 HN42        1.6500   -0.4760   -3.9560 hn        1 EA5      0.137500
     37 HA         -0.2770   -0.7290   -2.7870 h1        1 EA5      0.037000
     38 H1         -0.0890   -2.2150   -0.8100 h1        1 EA5      0.071500
     39 H2          1.4550   -1.7380   -0.8720 h1        1 EA5      0.071500
     40 HB1         1.2750   -3.0600   -3.2750 hc        1 EA5      0.090000
     41 HB2        -0.2640   -3.1590   -2.7740 hc        1 EA5      0.090000
     42 HG1         0.6090   -2.0940   -5.3140 hc        1 EA5      0.058000
     43 HG2        -0.8650   -1.6920   -4.7600 hc        1 EA5      0.058000
@<TRIPOS>BOND
     1    1    3 1   
     2    1    4 1   
     3    1    5 1   
     4    5    6 1   
     5    6    7 1   
     6    6   25 1   
     7    6   26 1   
     8    7    8 1   
     9    7   14 1   
    10    8   27 1   
    11    9   10 1   
    12   10   12 1   
    13   11   28 1   
    14   11   29 1   
    15   11   30 1   
    16   12   13 1   
    17   12   14 1   
    18   13   31 1   
    19   14   15 1   
    20   15   16 1   
    21   15   32 1   
    22   15   33 1   
    23   16   19 1   
    24   16   34 1   
    25   17   18 1   
    26   17   35 1   
    27   17   36 1   
    28   18   19 1   
    29   18   20 1   
    30   18   37 1   
    31   19   38 1   
    32   19   39 1   
    33   20   21 1   
    34   20   40 1   
    35   20   41 1   
    36   21   22 1   
    37   21   42 1   
    38   21   43 1   
    39   22   23 1   
    40   22   24 1   
@<TRIPOS>SUBSTRUCTURE
     1 EA5         1 TEMP              0 ****  ****    0 ROOT
