@<TRIPOS>MOLECULE
EA5
   43    43     1     0     0
SMALL
bcc


@<TRIPOS>ATOM
      1 P           5.7050   15.0240  -29.6440 p5        1 EA5      1.315900
      2 OP1         4.4640   14.4880  -30.3190 o         1 EA5     -0.921167
      3 OP2         6.8000   14.0350  -29.3750 o         1 EA5     -0.921167
      4 OP3         5.4570   16.0640  -28.5850 o         1 EA5     -0.921167
      5 OP4         6.3530   15.9800  -30.9470 os        1 EA5     -0.560200
      6 C5A         5.9170   17.2750  -31.0260 c3        1 EA5      0.243700
      7 C5          4.9700   17.5080  -32.1810 ca        1 EA5     -0.139600
      8 C6          4.1110   16.4260  -32.5540 ca        1 EA5      0.376200
      9 N1          3.2390   16.4770  -33.5590 nb        1 EA5     -0.679000
     10 C2          3.1500   17.6340  -34.2780 ca        1 EA5      0.311600
     11 C2A         2.1830   17.7250  -35.4100 c3        1 EA5     -0.109400
     12 C3          3.9360   18.7590  -33.9590 ca        1 EA5     -0.011200
     13 O3          3.7250   19.8970  -34.7180 oh        1 EA5     -0.541100
     14 C4          4.8570   18.7070  -32.8830 ca        1 EA5     -0.160300
     15 C4A         5.6230   19.9450  -32.5100 c3        1 EA5      0.211100
     16 N4A         6.6660   20.2790  -33.4680 n3        1 EA5     -0.853200
     17 N4          8.1960   21.6820  -35.5780 n3        1 EA5     -0.903800
     18 CA          8.5000   21.8460  -34.1690 c3        1 EA5      0.160500
     19 C           7.3240   21.5410  -33.1960 c3        1 EA5      0.121800
     20 CB          9.0760   23.2330  -33.8340 c3        1 EA5     -0.057400
     21 CG          8.2230   24.4140  -34.2220 c3        1 EA5     -0.190400
     22 CD          8.9180   25.7580  -33.9520 c         1 EA5      0.906600
     23 OE1        10.1720   25.7970  -33.7840 o         1 EA5     -0.865300
     24 OE2         8.1910   26.7970  -33.9350 o         1 EA5     -0.865300
     25 H5A1        6.8130   17.9520  -31.1790 h1        1 EA5      0.019200
     26 H5A2        5.3860   17.5790  -30.0720 h1        1 EA5      0.019200
     27 H6          4.1820   15.4800  -31.9140 h4        1 EA5      0.157100
     28 H2A1        1.9270   16.7200  -35.8230 hc        1 EA5      0.021367
     29 H2A2        2.6190   18.3530  -36.2260 hc        1 EA5      0.021367
     30 H2A3        1.2400   18.2150  -35.0590 hc        1 EA5      0.021367
     31 HO3         4.5230   20.4400  -34.6620 ho        1 EA5      0.423000
     32 H4A1        6.0310   19.8270  -31.4630 h1        1 EA5      0.037200
     33 H4A2        4.9000   20.8140  -32.4800 h1        1 EA5      0.037200
     34 HN4A        7.3330   19.5310  -33.5210 hn        1 EA5      0.368800
     35 HA          9.3140   21.0900  -33.9430 h1        1 EA5      0.036700
     36 H1          7.7340   21.5960  -32.1450 h1        1 EA5      0.030700
     37 H2          6.5520   22.3550  -33.2950 h1        1 EA5      0.030700
     38 HB1        10.0730   23.3400  -34.3390 hc        1 EA5      0.048200
     39 HB2         9.2650   23.2680  -32.7290 hc        1 EA5      0.048200
     40 HG1         7.2520   24.3980  -33.6670 hc        1 EA5      0.022700
     41 HG2         7.9870   24.3970  -35.3170 hc        1 EA5      0.022700
     42 HN41        7.5690   22.4040  -35.8790 hn        1 EA5      0.341300
     43 HN42        7.7530   20.7970  -35.7360 hn        1 EA5      0.341300
@<TRIPOS>BOND
     1    1    2 1   
     2    1    3 1   
     3    1    4 1   
     4    1    5 1   
     5    5    6 1   
     6    6    7 1   
     7    6   25 1   
     8    6   26 1   
     9    7    8 ar  
    10    7   14 ar  
    11    8    9 ar  
    12    8   27 1   
    13    9   10 ar  
    14   10   11 1   
    15   10   12 ar  
    16   11   28 1   
    17   11   29 1   
    18   11   30 1   
    19   12   13 1   
    20   12   14 ar  
    21   13   31 1   
    22   14   15 1   
    23   15   16 1   
    24   15   32 1   
    25   15   33 1   
    26   16   19 1   
    27   16   34 1   
    28   17   18 1   
    29   17   42 1   
    30   17   43 1   
    31   18   19 1   
    32   18   20 1   
    33   18   35 1   
    34   19   36 1   
    35   19   37 1   
    36   20   21 1   
    37   20   38 1   
    38   20   39 1   
    39   21   22 1   
    40   21   40 1   
    41   21   41 1   
    42   22   23 1   
    43   22   24 1   
@<TRIPOS>SUBSTRUCTURE
     1 EA5         1 TEMP              0 ****  ****    0 ROOT
