@<TRIPOS>MOLECULE
EA5
   45    45     1     0     0
SMALL
bcc


@<TRIPOS>ATOM
      1 P           0.0000    0.0000    0.0000 p5        1 EA5      0.869900
      2 OP1         1.4840    0.0000    0.0000 o         1 EA5     -0.573833
      3 OP2        -0.5890    0.0000    1.4530 o         1 EA5     -0.573833
      4 OP3        -0.7750   -1.1490   -0.4470 o         1 EA5     -0.573833
      5 OP4        -0.5080    1.2920   -0.7700 os        1 EA5     -0.504200
      6 C5A        -1.9230    1.6170   -0.9270 c3        1 EA5      0.322700
      7 C5         -2.1160    2.3770   -2.2440 ca        1 EA5     -0.149600
      8 C6         -2.2580    3.7350   -2.1870 ca        1 EA5      0.434200
      9 N1         -2.4380    4.4410   -3.3560 nb        1 EA5     -0.601000
     10 C2         -2.4780    3.8130   -4.5990 ca        1 EA5      0.327600
     11 C2A        -2.6830    4.6760   -5.8560 c3        1 EA5     -0.018400
     12 C3         -2.3350    2.4310   -4.6750 ca        1 EA5     -0.038200
     13 O3         -2.3730    1.7750   -5.9180 oh        1 EA5     -0.542100
     14 C4         -2.1520    1.7090   -3.4770 ca        1 EA5     -0.055300
     15 C4A        -1.9950    0.1970   -3.5060 c3        1 EA5     -0.063900
     16 N4A        -2.0230   -0.5350   -4.6520 ny        1 EA5      0.052000
     17 N4         -2.1830   -2.8690   -6.9120 nz        1 EA5     -0.251600
     18 CA         -2.7970   -2.7110   -5.5630 c3        1 EA5     -0.019500
     19 C          -1.8520   -1.9840   -4.5680 c3        1 EA5     -0.091200
     20 CB         -3.2850   -4.1010   -5.0320 c3        1 EA5     -0.015400
     21 CG         -2.4310   -4.8280   -3.9640 c3        1 EA5     -0.159400
     22 CD         -2.9990   -4.7640   -2.5400 c         1 EA5      1.001600
     23 OE1        -2.6650   -5.6540   -1.7430 o         1 EA5     -0.869300
     24 OE2        -3.7650   -3.8260   -2.2060 o         1 EA5     -0.869300
     25 H5A1       -2.2470    2.2360   -0.1000 h1        1 EA5      0.004200
     26 H5A2       -2.5050    0.7040   -0.9470 h1        1 EA5      0.004200
     27 H6         -2.3940    4.2260   -1.2310 h4        1 EA5      0.001100
     28 H2A1       -1.7780    4.6680   -6.4520 hc        1 EA5      0.007700
     29 H2A2       -2.9120    5.6940   -5.5620 hc        1 EA5      0.007700
     30 H2A3       -3.5030    4.2760   -6.4400 hc        1 EA5      0.007700
     31 HO3        -1.6900    2.1140   -6.4730 ho        1 EA5      0.409000
     32 H4A1       -2.7740   -0.2040   -2.8680 hx        1 EA5      0.119700
     33 H4A2       -1.0480   -0.0210   -3.0260 hx        1 EA5      0.119700
     34 HN4A       -1.3020   -0.1820   -5.2510 hn        1 EA5      0.203800
     35 HA         -3.6750   -2.0870   -5.6820 hx        1 EA5      0.032700
     36 H1         -2.0760   -2.3120   -3.5600 hx        1 EA5      0.112700
     37 H2         -0.8250   -2.2360   -4.8040 hx        1 EA5      0.112700
     38 HB1        -3.3730   -4.7630   -5.8850 hc        1 EA5      0.019700
     39 HB2        -4.2760   -3.9620   -4.6180 hc        1 EA5      0.019700
     40 HG1        -2.3400   -5.8700   -4.2490 hc        1 EA5      0.008200
     41 HG2        -1.4420   -4.3870   -3.9580 hc        1 EA5      0.008200
     42 HN42       -2.8400   -3.3040   -7.5290 hn        1 EA5      0.187133
     43 H4A3       -2.9030   -0.3630   -5.0970 hn        1 EA5      0.203800
     44 H42        -1.3650   -3.4410   -6.8420 hn        1 EA5      0.187133
     45 HN41       -1.9330   -1.9690   -7.2730 hn        1 EA5      0.187133
@<TRIPOS>BOND
     1    1    2 1   
     2    1    3 1   
     3    1    4 1   
     4    1    5 1   
     5    5    6 1   
     6    6    7 1   
     7    6   25 1   
     8    6   26 1   
     9    7    8 ar  
    10    7   14 ar  
    11    8    9 ar  
    12    8   27 1   
    13    9   10 ar  
    14   10   11 1   
    15   10   12 ar  
    16   11   28 1   
    17   11   29 1   
    18   11   30 1   
    19   12   13 1   
    20   12   14 ar  
    21   13   31 1   
    22   14   15 1   
    23   15   16 1   
    24   15   32 1   
    25   15   33 1   
    26   16   19 1   
    27   16   34 1   
    28   16   43 1   
    29   17   18 1   
    30   17   42 1   
    31   17   44 1   
    32   17   45 1   
    33   18   19 1   
    34   18   20 1   
    35   18   35 1   
    36   19   36 1   
    37   19   37 1   
    38   20   21 1   
    39   20   38 1   
    40   20   39 1   
    41   21   22 1   
    42   21   40 1   
    43   21   41 1   
    44   22   23 1   
    45   22   24 1   
@<TRIPOS>SUBSTRUCTURE
     1 EA5         1 TEMP              0 ****  ****    0 ROOT
