@<TRIPOS>MOLECULE
EAA
   30    30     1     0     0
SMALL
bcc


@<TRIPOS>ATOM
      1 C1          0.4690   -0.4290    0.0000 ca        1 EAA      0.202100
      2 O2          0.3510   -0.0940   -1.3130 os        1 EAA     -0.260900
      3 C2          1.5730    0.1170    0.7090 ca        1 EAA     -0.044600
      4 CL1         2.7030    1.1060   -0.0820 cl        1 EAA     -0.054400
      5 C3          1.7260   -0.1710    2.0700 ca        1 EAA      0.085400
      6 CL2         3.0700    0.4490    2.9170 cl        1 EAA     -0.094400
      7 C4          0.8030   -0.9840    2.7450 ca        1 EAA     -0.227600
      8 C5         -0.2540   -1.5510    2.0240 ca        1 EAA     -0.048000
      9 C6         -0.4300   -1.2750    0.6770 ca        1 EAA     -0.228000
     10 C7          0.9040   -1.2800    4.1910 c         1 EAA      0.596900
     11 O1          1.0000   -2.4390    4.6150 o         1 EAA     -0.536100
     12 C8          0.8260   -0.1230    5.1260 ce        1 EAA     -0.180400
     13 C9          1.6720   -0.2620    6.3430 c3        1 EAA     -0.043200
     14 C10         1.4360    0.7900    7.3940 c3        1 EAA     -0.090100
     15 C11         0.0260    0.9160    4.8660 c2        1 EAA     -0.170000
     16 C12        -0.7800   -0.6320   -2.0150 c3        1 EAA     -0.019600
     17 C13        -0.7330   -0.0500   -3.4650 c         1 EAA      0.930600
     18 O          -1.3120    1.0500   -3.6520 o         1 EAA     -0.810300
     19 OXT        -0.1800   -0.7650   -4.3390 o         1 EAA     -0.810300
     20 H5         -0.9530   -2.2260    2.5430 ha        1 EAA      0.137000
     21 H6         -1.2740   -1.7260    0.1340 ha        1 EAA      0.156000
     22 H91         2.7500   -0.2340    6.0220 hc        1 EAA      0.059700
     23 H92         1.4890   -1.2820    6.7820 hc        1 EAA      0.059700
     24 H101        1.6950    1.8060    7.0080 hc        1 EAA      0.031367
     25 H102        2.0720    0.5820    8.2880 hc        1 EAA      0.031367
     26 H103        0.3660    0.7980    7.7160 hc        1 EAA      0.031367
     27 H111       -0.5710    0.9770    3.9460 ha        1 EAA      0.122000
     28 H112       -0.0770    1.7680    5.5500 ha        1 EAA      0.122000
     29 H121       -1.7220   -0.3100   -1.5070 h1        1 EAA      0.026700
     30 H122       -0.6990   -1.7470   -2.0420 h1        1 EAA      0.026700
@<TRIPOS>BOND
     1    1    2 1   
     2    1    3 ar  
     3    1    9 ar  
     4    2   16 1   
     5    3    4 1   
     6    3    5 ar  
     7    5    6 1   
     8    5    7 ar  
     9    7    8 ar  
    10    7   10 1   
    11    8    9 ar  
    12    8   20 1   
    13    9   21 1   
    14   10   11 2   
    15   10   12 1   
    16   12   13 1   
    17   12   15 2   
    18   13   14 1   
    19   13   22 1   
    20   13   23 1   
    21   14   24 1   
    22   14   25 1   
    23   14   26 1   
    24   15   27 1   
    25   15   28 1   
    26   16   17 1   
    27   16   29 1   
    28   16   30 1   
    29   17   18 1   
    30   17   19 1   
@<TRIPOS>SUBSTRUCTURE
     1 EAA         1 TEMP              0 ****  ****    0 ROOT
