@<TRIPOS>MOLECULE
EAA
   30    30     1     0     0
SMALL
bcc


@<TRIPOS>ATOM
      1 C1          6.4320   17.3030    4.8460 ca        1 EAA      0.202100
      2 O2          5.6440   16.2120    5.0420 os        1 EAA     -0.260900
      3 C2          7.7750   17.2200    5.3050 ca        1 EAA     -0.044600
      4 CL1         8.3330   15.8260    6.0950 cl        1 EAA     -0.054400
      5 C3          8.6380   18.3020    5.1020 ca        1 EAA      0.085400
      6 CL2        10.2390   18.2260    5.6830 cl        1 EAA     -0.094400
      7 C4          8.2000   19.4640    4.4480 ca        1 EAA     -0.227600
      8 C5          6.8620   19.5490    4.0430 ca        1 EAA     -0.048000
      9 C6          5.9910   18.4880    4.2260 ca        1 EAA     -0.228000
     10 C7          9.0890   20.6150    4.1770 c         1 EAA      0.596900
     11 O1          8.8420   21.7480    4.6110 o         1 EAA     -0.536100
     12 C8         10.2700   20.3660    3.3050 ce        1 EAA     -0.180400
     13 C9         11.4770   21.1590    3.6700 c3        1 EAA     -0.043200
     14 C10        12.6010   21.0840    2.6700 c3        1 EAA     -0.090100
     15 C11        10.1970   19.5170    2.2760 c2        1 EAA     -0.170000
     16 C12         4.2950   16.2960    4.5560 c3        1 EAA     -0.019600
     17 C13         3.6270   14.9100    4.8310 c         1 EAA      0.930600
     18 O           3.7500   14.0360    3.9370 o         1 EAA     -0.810300
     19 OXT         2.9600   14.8090    5.8920 o         1 EAA     -0.810300
     20 H5          6.5060   20.4780    3.5710 ha        1 EAA      0.137000
     21 H6          4.9470   18.5750    3.8910 ha        1 EAA      0.156000
     22 H91        11.1640   22.2320    3.8050 hc        1 EAA      0.059700
     23 H92        11.8420   20.7970    4.6710 hc        1 EAA      0.059700
     24 H101       13.4420   21.7440    2.9960 hc        1 EAA      0.031367
     25 H102       12.9890   20.0400    2.5830 hc        1 EAA      0.031367
     26 H103       12.2600   21.4190    1.6610 hc        1 EAA      0.031367
     27 H111        9.2850   18.9450    2.0550 ha        1 EAA      0.122000
     28 H112       11.0400   19.3360    1.5970 ha        1 EAA      0.122000
     29 H121        3.7560   17.1040    5.1100 h1        1 EAA      0.026700
     30 H122        4.3080   16.5010    3.4570 h1        1 EAA      0.026700
@<TRIPOS>BOND
     1    1    2 1   
     2    1    3 ar  
     3    1    9 ar  
     4    2   16 1   
     5    3    4 1   
     6    3    5 ar  
     7    5    6 1   
     8    5    7 ar  
     9    7    8 ar  
    10    7   10 1   
    11    8    9 ar  
    12    8   20 1   
    13    9   21 1   
    14   10   11 2   
    15   10   12 1   
    16   12   13 1   
    17   12   15 2   
    18   13   14 1   
    19   13   22 1   
    20   13   23 1   
    21   14   24 1   
    22   14   25 1   
    23   14   26 1   
    24   15   27 1   
    25   15   28 1   
    26   16   17 1   
    27   16   29 1   
    28   16   30 1   
    29   17   18 1   
    30   17   19 1   
@<TRIPOS>SUBSTRUCTURE
     1 EAA         1 TEMP              0 ****  ****    0 ROOT
