@<TRIPOS>MOLECULE
EAA
   30    30     1     0     0
SMALL
bcc


@<TRIPOS>ATOM
      1 C1          0.4660   -0.4320    0.0000 ca        1 EAA      0.202100
      2 O2          0.3650   -0.0960   -1.3130 os        1 EAA     -0.260900
      3 C2          1.5920    0.0670    0.7100 ca        1 EAA     -0.044600
      4 Cl1         2.7640    1.0040   -0.0800 cl        1 EAA     -0.054400
      5 C3          1.7290   -0.2240    2.0720 ca        1 EAA      0.085400
      6 Cl2         3.0970    0.3400    2.9210 cl        1 EAA     -0.094400
      7 C4          0.7700   -0.9940    2.7470 ca        1 EAA     -0.227600
      8 C5         -0.3090   -1.5170    2.0250 ca        1 EAA     -0.048000
      9 C6         -0.4700   -1.2370    0.6780 ca        1 EAA     -0.228000
     10 C7          0.8560   -1.2910    4.1940 c         1 EAA      0.596900
     11 O1          0.9010   -2.4510    4.6220 o         1 EAA     -0.536100
     12 C8          0.8250   -0.1300    5.1260 ce        1 EAA     -0.180400
     13 C9          1.6620   -0.3020    6.3450 c3        1 EAA     -0.043200
     14 C10         1.4680    0.7620    7.3940 c3        1 EAA     -0.090100
     15 C11         0.0720    0.9420    4.8620 c2        1 EAA     -0.170000
     16 C12        -0.7860   -0.5860   -2.0170 c3        1 EAA     -0.019600
     17 C13        -0.7110   -0.0100   -3.4680 c         1 EAA      0.930600
     18 O          -1.2380    1.1150   -3.6580 o         1 EAA     -0.810300
     19 OXT        -0.1920   -0.7520   -4.3400 o         1 EAA     -0.810300
     20 H5         -1.0380   -2.1590    2.5450 ha        1 EAA      0.137000
     21 H6         -1.3320   -1.6520    0.1340 ha        1 EAA      0.156000
     22 H91         2.7410   -0.3210    6.0270 hc        1 EAA      0.059700
     23 H92         1.4340   -1.3120    6.7870 hc        1 EAA      0.059700
     24 H101        1.7720    1.7650    7.0060 hc        1 EAA      0.031367
     25 H102        2.0930    0.5290    8.2900 hc        1 EAA      0.031367
     26 H103        0.3990    0.8170    7.7130 hc        1 EAA      0.031367
     27 H111       -0.5200    1.0270    3.9400 ha        1 EAA      0.122000
     28 H112        0.0040    1.8000    5.5430 ha        1 EAA      0.122000
     29 H121       -1.7150   -0.2220   -1.5110 h1        1 EAA      0.026700
     30 H122       -0.7530   -1.7040   -2.0410 h1        1 EAA      0.026700
@<TRIPOS>BOND
     1    1    2 1   
     2    1    3 ar  
     3    1    9 ar  
     4    2   16 1   
     5    3    4 1   
     6    3    5 ar  
     7    5    6 1   
     8    5    7 ar  
     9    7    8 ar  
    10    7   10 1   
    11    8    9 ar  
    12    8   20 1   
    13    9   21 1   
    14   10   11 2   
    15   10   12 1   
    16   12   13 1   
    17   12   15 2   
    18   13   14 1   
    19   13   22 1   
    20   13   23 1   
    21   14   24 1   
    22   14   25 1   
    23   14   26 1   
    24   15   27 1   
    25   15   28 1   
    26   16   17 1   
    27   16   29 1   
    28   16   30 1   
    29   17   18 1   
    30   17   19 1   
@<TRIPOS>SUBSTRUCTURE
     1 EAA         1 TEMP              0 ****  ****    0 ROOT
