@<TRIPOS>MOLECULE
EAA
   30    26     1     0     0
SMALL
bcc


@<TRIPOS>ATOM
      1 C1         -0.3630   -0.0470   -2.1930 c1        1 EAA      0.152000
      2 O2         -1.0780   -0.0070   -3.4590 o         1 EAA     -0.186000
      3 C2          1.0270   -0.0500   -2.1810 c2        1 EAA     -0.129000
      4 CL1         1.9090   -0.0040   -3.6800 cl        1 EAA     -0.002000
      5 C3          1.7150   -0.0450   -0.9700 c1        1 EAA      0.002000
      6 CL2         3.4770   -0.0310   -0.9620 cl        1 EAA     -0.016000
      7 C4          1.0200   -0.0380    0.2180 c2        1 EAA     -0.198000
      8 C5         -0.3820   -0.0360    0.2090 c1        1 EAA     -0.064000
      9 C6         -1.0670   -0.0400   -0.9970 c1        1 EAA     -0.199000
     10 C7          1.7920   -0.0240    1.5750 c2        1 EAA      0.318000
     11 O1          3.0210   -0.0180    1.5840 o         1 EAA     -0.286000
     12 C8          1.0120    0.0560    2.8980 c2        1 EAA     -0.159000
     13 C9          0.9170    1.3870    3.6490 c3        1 EAA     -0.124000
     14 C10        -0.4630    1.8710    3.6160 c3        1 EAA     -0.211000
     15 C11         0.4020   -1.0660    3.4040 c1        1 EAA     -0.175000
     16 C12        -1.3980   -1.3070   -3.9880 c3        1 EAA     -0.104000
     17 C13        -2.1190   -1.1520   -5.3230 c2        1 EAA      0.317000
     18 O          -2.8870   -0.1990   -5.5040 o         1 EAA     -0.555000
     19 OXT        -1.8590   -1.9300   -6.2640 o         1 EAA     -0.555000
     20 H5         -0.8780   -0.0310    1.0550 ha        1 EAA      0.137000
     21 H6         -2.0220   -0.0190   -1.0060 ha        1 EAA      0.228000
     22 H91         1.5120    2.0560    3.2130 hc        1 EAA      0.088500
     23 H92         1.1940    1.2590    4.5770 hc        1 EAA      0.088500
     24 H101       -0.5290    2.7040    4.1300 hc        1 EAA      0.077333
     25 H102       -0.7230    2.0360    2.7050 hc        1 EAA      0.077333
     26 H103       -1.0530    1.2000    4.0070 hc        1 EAA      0.077333
     27 H111        0.4630   -1.9070    2.9260 DU        1 EAA      0.127000
     28 H112       -0.0910   -1.0160    4.2380 ha        1 EAA      0.109000
     29 H121       -0.5690   -1.8200   -4.1220 h1        1 EAA      0.081500
     30 H122       -1.9790   -1.7840   -3.3550 h1        1 EAA      0.081500
@<TRIPOS>BOND
     1    1    3 1   
     2    1    9 1   
     3    2   16 1   
     4    3    4 1   
     5    3    5 1   
     6    5    7 1   
     7    7    8 1   
     8    7   10 1   
     9    8   20 1   
    10    9   21 1   
    11   10   11 1   
    12   10   12 1   
    13   12   13 1   
    14   12   15 1   
    15   13   14 1   
    16   13   22 1   
    17   13   23 1   
    18   14   24 1   
    19   14   25 1   
    20   14   26 1   
    21   15   28 1   
    22   16   17 1   
    23   16   29 1   
    24   16   30 1   
    25   17   18 1   
    26   17   19 1   
@<TRIPOS>SUBSTRUCTURE
     1 EAA         1 TEMP              0 ****  ****    0 ROOT
