@<TRIPOS>MOLECULE
EAC
   19    18     1     0     0
SMALL
bcc


@<TRIPOS>ATOM
      1 C4          0.3960   -0.2600   -0.1510 c3        1 EAC     -0.101100
      2 C9          1.7450    0.3530    0.1340 c3        1 EAC      0.138400
      3 O5          2.1300   -0.1160    1.4410 os        1 EAC     -0.434900
      4 C10         3.3400    0.3060    1.9090 c         1 EAC      0.644100
      5 O6          4.0160    1.0600    1.2050 o         1 EAC     -0.545000
      6 C13         6.1400    0.2430    3.3220 c3        1 EAC     -0.209100
      7 C14         5.0440   -0.7650    3.3850 c         1 EAC      0.578100
      8 O8          5.2420   -1.9720    3.5460 o         1 EAC     -0.514100
      9 C15         3.6380   -0.2230    3.2770 c3        1 EAC     -0.244400
     10 H1         -0.3510    0.0610    0.6140 hc        1 EAC      0.050033
     11 H2          0.4600   -1.3750   -0.1330 hc        1 EAC      0.050033
     12 H3          0.0530    0.0710   -1.1600 hc        1 EAC      0.050033
     13 H4          2.5210    0.0260   -0.6060 h1        1 EAC      0.053200
     14 H5          1.7040    1.4730    0.1540 h1        1 EAC      0.053200
     15 H6          6.0220    0.8710    2.4010 hc        1 EAC      0.076033
     16 H7          6.0870    0.9100    4.2170 hc        1 EAC      0.076033
     17 H8          7.1380   -0.2580    3.3030 hc        1 EAC      0.076033
     18 H9          3.5140    0.6240    4.0050 hc        1 EAC      0.102200
     19 H10         2.8980   -1.0280    3.5390 hc        1 EAC      0.102200
@<TRIPOS>BOND
     1    1    2 1   
     2    1   10 1   
     3    1   11 1   
     4    1   12 1   
     5    2    3 1   
     6    2   13 1   
     7    2   14 1   
     8    3    4 1   
     9    4    5 2   
    10    4    9 1   
    11    6    7 1   
    12    6   15 1   
    13    6   16 1   
    14    6   17 1   
    15    7    8 2   
    16    7    9 1   
    17    9   18 1   
    18    9   19 1   
@<TRIPOS>SUBSTRUCTURE
     1 EAC         1 TEMP              0 ****  ****    0 ROOT
