@<TRIPOS>MOLECULE
EAC
   19    18     1     0     0
SMALL
bcc


@<TRIPOS>ATOM
      1 C4          3.6860    0.0860   -0.2150 c3        1 EAC     -0.101100
      2 C9          2.3620   -0.4480    0.2750 c3        1 EAC      0.138400
      3 O5          1.3820    0.5610   -0.0400 os        1 EAC     -0.434900
      4 C10         0.0910    0.2850    0.3040 c         1 EAC      0.644100
      5 O6         -0.1560   -0.7850    0.8660 o         1 EAC     -0.545000
      6 C13        -3.0370    0.1210    0.1290 c3        1 EAC     -0.209100
      7 C14        -2.0970    0.8980   -0.7280 c         1 EAC      0.578100
      8 O8         -2.3180    1.1590   -1.9130 o         1 EAC     -0.514100
      9 C15        -0.8430    1.4000   -0.0510 c3        1 EAC     -0.244400
     10 H1          3.6500    0.2740   -1.3150 hc        1 EAC      0.050033
     11 H2          3.9360    1.0450    0.2970 hc        1 EAC      0.050033
     12 H3          4.4820   -0.6650    0.0030 hc        1 EAC      0.050033
     13 H4          2.0740   -1.4000   -0.2430 h1        1 EAC      0.053200
     14 H5          2.3590   -0.6160    1.3830 h1        1 EAC      0.053200
     15 H6         -3.4600    0.7870    0.9200 hc        1 EAC      0.076033
     16 H7         -3.8760   -0.2950   -0.4800 hc        1 EAC      0.076033
     17 H8         -2.4870   -0.7190    0.6250 hc        1 EAC      0.076033
     18 H9         -1.1250    1.9250    0.9020 hc        1 EAC      0.102200
     19 H10        -0.3160    2.1350   -0.7190 hc        1 EAC      0.102200
@<TRIPOS>BOND
     1    1    2 1   
     2    1   10 1   
     3    1   11 1   
     4    1   12 1   
     5    2    3 1   
     6    2   13 1   
     7    2   14 1   
     8    3    4 1   
     9    4    5 2   
    10    4    9 1   
    11    6    7 1   
    12    6   15 1   
    13    6   16 1   
    14    6   17 1   
    15    7    8 2   
    16    7    9 1   
    17    9   18 1   
    18    9   19 1   
@<TRIPOS>SUBSTRUCTURE
     1 EAC         1 TEMP              0 ****  ****    0 ROOT
