@<TRIPOS>MOLECULE
EAC
   19    17     1     0     0
SMALL
bcc


@<TRIPOS>ATOM
      1 C4         -3.3130    0.1480   -1.5870 c3        1 EAC     -0.219000
      2 C9         -1.7730    0.2980   -1.6690 c3        1 EAC     -0.012000
      3 O5         -1.1780   -0.2060   -0.4820 os        1 EAC     -0.273000
      4 C10         0.1620    0.1460   -0.3380 c1        1 EAC      0.315000
      5 O6          0.8160    0.4100   -1.3040 o         1 EAC     -0.356000
      6 C13         3.1100   -0.3460    2.0680 c3        1 EAC     -0.277000
      7 C14         1.9980   -0.6540    1.0810 c2        1 EAC      0.239000
      8 O8          2.0610   -1.6550    0.3740 o         1 EAC     -0.275000
      9 C15         0.7810    0.2220    1.0320 c2        1 EAC     -0.223000
     10 H1         -3.7160    0.4570   -2.4280 hc        1 EAC      0.089333
     11 H2         -3.5470   -0.8100   -1.4400 hc        1 EAC      0.089333
     12 H3         -3.6610    0.6940   -0.8330 hc        1 EAC      0.089333
     13 H4         -1.4260   -0.2210   -2.4660 h1        1 EAC      0.092500
     14 H5         -1.5340    1.2840   -1.7740 h1        1 EAC      0.092500
     15 H6          2.7520   -0.3720    2.9790 hc        1 EAC      0.115333
     16 H7          3.8190   -1.0090    1.9790 hc        1 EAC      0.115333
     17 H8          3.4710    0.5420    1.8850 hc        1 EAC      0.115333
     18 H9          0.1390   -0.0780    1.6990 ha        1 EAC      0.141500
     19 H10         1.0400    1.1500    1.2230 ha        1 EAC      0.141500
@<TRIPOS>BOND
     1    1    2 1   
     2    1   10 1   
     3    1   11 1   
     4    1   12 1   
     5    2    3 1   
     6    2   13 1   
     7    2   14 1   
     8    3    4 1   
     9    4    5 1   
    10    6    7 1   
    11    6   15 1   
    12    6   16 1   
    13    6   17 1   
    14    7    8 1   
    15    7    9 1   
    16    9   18 1   
    17    9   19 1   
@<TRIPOS>SUBSTRUCTURE
     1 EAC         1 TEMP              0 ****  ****    0 ROOT
