@<TRIPOS>MOLECULE
EAC
   19    18     1     0     0
SMALL
bcc


@<TRIPOS>ATOM
      1 C4          0.4240    0.1700   -0.2010 c3        1 EAC     -0.101100
      2 C9          1.7460   -0.4620    0.1600 c3        1 EAC      0.138400
      3 O5          2.1390    0.1220    1.4170 os        1 EAC     -0.434900
      4 C10         3.3270   -0.2960    1.9400 c         1 EAC      0.644100
      5 O6          3.9770   -1.1450    1.3250 o         1 EAC     -0.545000
      6 C13         6.1150   -0.2030    3.3750 c3        1 EAC     -0.209100
      7 C14         5.0620    0.8510    3.3200 c         1 EAC      0.578100
      8 O8          5.3080    2.0580    3.3590 o         1 EAC     -0.514100
      9 C15         3.6350    0.3580    3.2500 c3        1 EAC     -0.244400
     10 H1          0.5320    1.2770   -0.2960 hc        1 EAC      0.050033
     11 H2         -0.3410   -0.0430    0.5830 hc        1 EAC      0.050033
     12 H3          0.0770   -0.2490   -1.1760 hc        1 EAC      0.050033
     13 H4          1.6600   -1.5720    0.2940 h1        1 EAC      0.053200
     14 H5          2.5400   -0.2430   -0.6000 h1        1 EAC      0.053200
     15 H6          6.0260   -0.7710    4.3330 hc        1 EAC      0.076033
     16 H7          5.9800   -0.9160    2.5220 hc        1 EAC      0.076033
     17 H8          7.1330    0.2530    3.3180 hc        1 EAC      0.076033
     18 H9          2.9270    1.2150    3.4190 hc        1 EAC      0.102200
     19 H10         3.4700   -0.4040    4.0590 hc        1 EAC      0.102200
@<TRIPOS>BOND
     1    1    2 1   
     2    1   10 1   
     3    1   11 1   
     4    1   12 1   
     5    2    3 1   
     6    2   13 1   
     7    2   14 1   
     8    3    4 1   
     9    4    5 2   
    10    4    9 1   
    11    6    7 1   
    12    6   15 1   
    13    6   16 1   
    14    6   17 1   
    15    7    8 2   
    16    7    9 1   
    17    9   18 1   
    18    9   19 1   
@<TRIPOS>SUBSTRUCTURE
     1 EAC         1 TEMP              0 ****  ****    0 ROOT
