@<TRIPOS>MOLECULE
EAG
   38    38     1     0     0
SMALL
bcc


@<TRIPOS>ATOM
      1 C1         -0.4780   -0.1330   -0.0230 c3        1 EAG      0.328900
      2 O1         -0.9320    0.0730   -1.3360 os        1 EAG     -0.392600
      3 C2          1.0390   -0.1680   -0.0270 c3        1 EAG      0.083700
      4 N2          1.4830   -1.3510   -0.7500 n         1 EAG     -0.549900
      5 C7          2.5450   -1.2460   -1.7280 c         1 EAG      0.665100
      6 O7          3.0650   -0.1700   -1.9450 o         1 EAG     -0.588100
      7 C8          3.0410   -2.5070   -2.4690 c3        1 EAG     -0.175100
      8 C3          1.6070   -0.2050    1.3460 c3        1 EAG      0.125100
      9 O3          3.0560   -0.0530    1.2600 oh        1 EAG     -0.592800
     10 C4          1.0610    0.8720    2.2090 c3        1 EAG      0.084100
     11 O4          1.5170    0.6640    3.5630 oh        1 EAG     -0.615800
     12 C5         -0.4610    0.9030    2.2030 c3        1 EAG      0.082100
     13 C6         -0.9160    2.1050    2.9390 c3        1 EAG      0.124400
     14 O6         -1.3230    1.7370    4.2260 oh        1 EAG     -0.603800
     15 O5         -1.0180    0.9360    0.8450 os        1 EAG     -0.434600
     16 C9         -2.3560   -0.1440   -1.5060 c3        1 EAG      0.131400
     17 C10        -2.7380    0.0880   -2.9740 c3        1 EAG      0.151800
     18 N10        -4.1500    0.2450   -3.0770 n3        1 EAG     -0.916800
     19 H1         -0.8110   -0.9920    0.2930 h2        1 EAG      0.036700
     20 H2          1.3740    0.6290   -0.4870 h1        1 EAG      0.127700
     21 HN2         1.1160   -2.1580   -0.5650 hn        1 EAG      0.300500
     22 H8          3.0440   -3.2770   -1.8460 hc        1 EAG      0.065700
     23 H8A         3.9520   -2.3540   -2.8030 hc        1 EAG      0.065700
     24 H8B         2.4430   -2.6990   -3.2240 hc        1 EAG      0.065700
     25 H3          1.4030   -1.0660    1.7490 h1        1 EAG      0.041700
     26 HO3         3.4500   -0.6440    1.7990 ho        1 EAG      0.424000
     27 H4          1.3970    1.7350    1.8890 h1        1 EAG      0.070700
     28 HO4         2.0830    1.3080    3.7880 ho        1 EAG      0.433000
     29 H5         -0.7950    0.1040    2.6620 h1        1 EAG      0.044700
     30 H6         -0.1830    2.7440    3.0010 h1        1 EAG      0.068700
     31 H6A        -1.6670    2.5140    2.4650 h1        1 EAG      0.068700
     32 HO6        -1.8050    2.3860    4.5790 ho        1 EAG      0.407000
     33 H9         -2.5790   -1.0630   -1.2520 h1        1 EAG      0.039700
     34 H9A        -2.8560    0.4880   -0.9320 h1        1 EAG      0.039700
     35 H10        -2.3000    0.8880   -3.2990 h1        1 EAG      0.045200
     36 H10A       -2.4560   -0.6800   -3.5110 h1        1 EAG      0.045200
     37 HN10       -4.5130   -0.4990   -3.4880 hn        1 EAG      0.350300
     38 HN1A       -4.3380    0.9890   -3.5720 hn        1 EAG      0.350300
@<TRIPOS>BOND
     1    1    2 1   
     2    1    3 1   
     3    1   15 1   
     4    1   19 1   
     5    2   16 1   
     6    3    4 1   
     7    3    8 1   
     8    3   20 1   
     9    4    5 1   
    10    4   21 1   
    11    5    6 2   
    12    5    7 1   
    13    7   22 1   
    14    7   23 1   
    15    7   24 1   
    16    8    9 1   
    17    8   10 1   
    18    8   25 1   
    19    9   26 1   
    20   10   11 1   
    21   10   12 1   
    22   10   27 1   
    23   11   28 1   
    24   12   13 1   
    25   12   15 1   
    26   12   29 1   
    27   13   14 1   
    28   13   30 1   
    29   13   31 1   
    30   14   32 1   
    31   16   17 1   
    32   16   33 1   
    33   16   34 1   
    34   17   18 1   
    35   17   35 1   
    36   17   36 1   
    37   18   37 1   
    38   18   38 1   
@<TRIPOS>SUBSTRUCTURE
     1 EAG         1 TEMP              0 ****  ****    0 ROOT
