@<TRIPOS>MOLECULE
EAG
   38    38     1     0     0
SMALL
bcc


@<TRIPOS>ATOM
      1 C1         -0.2740   -0.5690   -0.0380 c3        1 EAG      0.318900
      2 O1         -1.1770   -1.1510    0.8710 os        1 EAG     -0.387600
      3 C2         -0.2260    0.9650    0.2500 c3        1 EAG      0.091700
      4 N2         -1.4740    1.6060   -0.0460 n         1 EAG     -0.554900
      5 C7         -2.1800    2.3340    0.9000 c         1 EAG      0.671100
      6 O7         -1.8320    2.3680    2.0950 o         1 EAG     -0.595100
      7 C8         -3.4130    3.0590    0.4140 c3        1 EAG     -0.174100
      8 C3          0.9580    1.5200   -0.5870 c3        1 EAG      0.127100
      9 O3          1.0760    2.9020   -0.3140 oh        1 EAG     -0.587800
     10 C4          2.2510    0.7830   -0.1920 c3        1 EAG      0.076100
     11 O4          3.2580    1.3020   -1.0490 oh        1 EAG     -0.602800
     12 C5          2.0800   -0.7270   -0.3910 c3        1 EAG      0.077100
     13 C6          3.2770   -1.5100    0.1610 c3        1 EAG      0.136400
     14 O6          3.1090   -2.8970   -0.0250 oh        1 EAG     -0.593800
     15 O5          0.9530   -1.1940    0.3450 os        1 EAG     -0.453600
     16 C9         -1.4800   -2.5210    0.6270 c3        1 EAG      0.132400
     17 C10        -2.6210   -2.6720   -0.3870 c3        1 EAG      0.119800
     18 N10        -2.1870   -2.6760   -1.7620 n3        1 EAG     -0.924800
     19 H1         -0.5100   -0.7970   -1.1110 h2        1 EAG      0.068700
     20 H2          0.0010    1.1100    1.3500 h1        1 EAG      0.125700
     21 HN2        -1.7210    1.6930   -1.0010 hn        1 EAG      0.305500
     22 H8         -3.1340    3.8370   -0.3370 hc        1 EAG      0.065033
     23 H8A        -4.1340    2.3450   -0.0490 hc        1 EAG      0.065033
     24 H8B        -3.9010    3.5560    1.2870 hc        1 EAG      0.065033
     25 H3          0.7720    1.3690   -1.6880 h1        1 EAG      0.045700
     26 HO3         1.8860    3.2000   -0.7520 ho        1 EAG      0.420000
     27 H4          2.5000    1.0090    0.8830 h1        1 EAG      0.068700
     28 HO4         4.1010    0.9570   -0.7330 ho        1 EAG      0.411000
     29 H5          1.9390   -0.9570   -1.4840 h1        1 EAG      0.065700
     30 H6          4.2020   -1.2460   -0.4180 h1        1 EAG      0.052200
     31 H6A         3.4180   -1.2760    1.2490 h1        1 EAG      0.052200
     32 HO6         2.2850   -3.1430    0.4170 ho        1 EAG      0.417000
     33 H9         -0.5620   -3.0860    0.3210 h1        1 EAG      0.058700
     34 H9A        -1.8320   -2.8850    1.6310 h1        1 EAG      0.058700
     35 H10        -3.1860   -3.6110   -0.1100 h1        1 EAG      0.039200
     36 H10A       -3.3260   -1.8020   -0.2520 h1        1 EAG      0.039200
     37 HN10       -1.5370   -3.4170   -1.9330 hn        1 EAG      0.350800
     38 HN1A       -2.9710   -2.7780   -2.3750 hn        1 EAG      0.350800
@<TRIPOS>BOND
     1    1    2 1   
     2    1    3 1   
     3    1   15 1   
     4    1   19 1   
     5    2   16 1   
     6    3    4 1   
     7    3    8 1   
     8    3   20 1   
     9    4    5 1   
    10    4   21 1   
    11    5    6 2   
    12    5    7 1   
    13    7   22 1   
    14    7   23 1   
    15    7   24 1   
    16    8    9 1   
    17    8   10 1   
    18    8   25 1   
    19    9   26 1   
    20   10   11 1   
    21   10   12 1   
    22   10   27 1   
    23   11   28 1   
    24   12   13 1   
    25   12   15 1   
    26   12   29 1   
    27   13   14 1   
    28   13   30 1   
    29   13   31 1   
    30   14   32 1   
    31   16   17 1   
    32   16   33 1   
    33   16   34 1   
    34   17   18 1   
    35   17   35 1   
    36   17   36 1   
    37   18   37 1   
    38   18   38 1   
@<TRIPOS>SUBSTRUCTURE
     1 EAG         1 TEMP              0 ****  ****    0 ROOT
