@<TRIPOS>MOLECULE
EAH
   54    48     1     0     0
SMALL
bcc


@<TRIPOS>ATOM
      1 O1         -1.5190  -10.7950    2.8570 o         1 EAH     -0.581000
      2 C1         -0.8790  -10.6490    1.7830 c1        1 EAH      0.328000
      3 O2          0.2370  -11.2120    1.6340 os        1 EAH     -0.587000
      4 C2         -1.4550   -9.8040    0.6680 c3        1 EAH     -0.225000
      5 C3         -0.8240   -8.4290    0.7000 c3        1 EAH     -0.148000
      6 C4         -1.6450   -7.4780   -0.1420 c3        1 EAH     -0.197000
      7 C5         -1.0250   -6.1000   -0.0950 c3        1 EAH      0.032000
      8 O3         -1.0020   -5.6410    1.2360 oh        1 EAH     -0.353000
      9 C6         -1.8430   -5.1500   -0.9400 c3        1 EAH     -0.141000
     10 C7         -1.0630   -3.8720   -1.1610 c2        1 EAH     -0.104000
     11 C8         -1.7000   -2.6850   -1.1550 c1        1 EAH     -0.186000
     12 C9         -0.9200   -1.4070   -1.3750 c2        1 EAH     -0.092000
     13 C10        -1.1770   -0.3220   -0.6180 c1        1 EAH     -0.163000
     14 C11        -0.3970    0.9560   -0.8380 c2        1 EAH     -0.118000
     15 C12        -0.1280    1.7690    0.2020 c1        1 EAH     -0.174000
     16 C13         0.6520    3.0460   -0.0190 c3        1 EAH     -0.104000
     17 C14         1.1950    3.5400    1.3040 c2        1 EAH     -0.158000
     18 C15         1.6090    4.8170    1.4280 c1        1 EAH     -0.179000
     19 C16         1.5320    5.7550    0.2440 c3        1 EAH     -0.131000
     20 C17         1.7750    7.1740    0.7090 c3        1 EAH     -0.155000
     21 C18         1.7800    8.1020   -0.4860 c3        1 EAH     -0.159000
     22 C19         1.6220    9.5320   -0.0150 c3        1 EAH     -0.158000
     23 C20         1.5410   10.4510   -1.2130 c3        1 EAH     -0.210000
     24 H2         -2.4220   -9.7220    0.7880 hc        1 EAH      0.061000
     25 H2A        -1.2680  -10.2280   -0.1930 hc        1 EAH      0.061000
     26 H3         -0.7950   -8.1060    1.6230 hc        1 EAH      0.084000
     27 H3A         0.0850   -8.4790    0.3430 hc        1 EAH      0.084000
     28 H4         -2.5580   -7.4370    0.2080 hc        1 EAH      0.081000
     29 H4A        -1.6640   -7.7950   -1.0670 hc        1 EAH      0.081000
     30 H5         -0.1120   -6.1410   -0.4410 h1        1 EAH      0.081000
     31 HO3        -0.1770   -5.3820    1.4460 ho        1 EAH      0.214000
     32 H6         -2.0370   -5.5670   -1.8040 hc        1 EAH      0.096000
     33 H6A        -2.6820   -4.9450   -0.4820 hc        1 EAH      0.096000
     34 H7         -0.0980   -3.9080   -1.3030 ha        1 EAH      0.139000
     35 H8         -2.6640   -2.6490   -1.0080 DU        1 EAH      0.120250
     36 H9         -0.2350   -1.3670   -2.0690 ha        1 EAH      0.120000
     37 H10        -1.8650   -0.3600    0.0720 DU        1 EAH      0.120250
     38 H11        -0.0940    1.1940   -1.7350 ha        1 EAH      0.118000
     39 H12        -0.4360    1.5330    1.0980 DU        1 EAH      0.120250
     40 H13         0.0630    3.7260   -0.4030 hc        1 EAH      0.092500
     41 H13A        1.3940    2.8740   -0.6320 hc        1 EAH      0.092500
     42 H14         1.2450    2.9350    2.0680 ha        1 EAH      0.125000
     43 H15         1.9590    5.1360    2.2820 DU        1 EAH      0.120250
     44 H16         2.2110    5.5070   -0.4140 hc        1 EAH      0.087000
     45 H16A        0.6450    5.6940   -0.1640 hc        1 EAH      0.087000
     46 H17         2.6400    7.2250    1.1640 hc        1 EAH      0.079000
     47 H17A        1.0650    7.4420    1.3270 hc        1 EAH      0.079000
     48 H18         1.0380    7.8720   -1.0810 hc        1 EAH      0.079500
     49 H18A        2.6260    8.0090   -0.9680 hc        1 EAH      0.079500
     50 H19         2.3920    9.7800    0.5360 hc        1 EAH      0.077000
     51 H19A        0.8040    9.6120    0.5140 hc        1 EAH      0.077000
     52 H20         1.2200   11.3320   -0.9280 hc        1 EAH      0.071000
     53 H20A        2.4300   10.5430   -1.6150 hc        1 EAH      0.071000
     54 H20B        0.9220   10.0750   -1.8720 hc        1 EAH      0.071000
@<TRIPOS>BOND
     1    1    2 1   
     2    2    4 1   
     3    4    5 1   
     4    4   24 1   
     5    4   25 1   
     6    5    6 1   
     7    5   26 1   
     8    5   27 1   
     9    6    7 1   
    10    6   28 1   
    11    6   29 1   
    12    7    8 1   
    13    7    9 1   
    14    7   30 1   
    15    8   31 1   
    16    9   10 1   
    17    9   32 1   
    18    9   33 1   
    19   10   11 1   
    20   10   34 1   
    21   11   12 1   
    22   12   13 1   
    23   12   36 1   
    24   13   14 1   
    25   14   15 1   
    26   14   38 1   
    27   15   16 1   
    28   16   17 1   
    29   16   40 1   
    30   16   41 1   
    31   17   18 1   
    32   17   42 1   
    33   18   19 1   
    34   19   20 1   
    35   19   44 1   
    36   19   45 1   
    37   20   21 1   
    38   20   46 1   
    39   20   47 1   
    40   21   22 1   
    41   21   48 1   
    42   21   49 1   
    43   22   23 1   
    44   22   50 1   
    45   22   51 1   
    46   23   52 1   
    47   23   53 1   
    48   23   54 1   
@<TRIPOS>SUBSTRUCTURE
     1 EAH         1 TEMP              0 ****  ****    0 ROOT
