@<TRIPOS>MOLECULE
EAH
   54    53     1     0     0
SMALL
bcc


@<TRIPOS>ATOM
      1 O1          9.1350    0.3770    0.8230 o         1 EAH     -0.849800
      2 C1          8.6130    1.5150    0.6420 c         1 EAH      0.908600
      3 O2          9.1250    2.5990    1.0410 o         1 EAH     -0.849800
      4 C2          7.2820    1.5950   -0.1290 c3        1 EAH     -0.196400
      5 C3          6.3600    0.4640    0.2540 c3        1 EAH     -0.071400
      6 C4          5.1790    0.3540   -0.6880 c3        1 EAH     -0.117400
      7 C5          4.2570   -0.8000   -0.3110 c3        1 EAH      0.144100
      8 O3          4.8190   -2.0640   -0.6550 oh        1 EAH     -0.626800
      9 C6          2.9260   -0.6950   -1.0590 c3        1 EAH     -0.059200
     10 C7          1.9730   -1.7470   -0.6410 c2        1 EAH     -0.107200
     11 C8          0.6530   -1.5420   -0.5120 ce        1 EAH     -0.188000
     12 C9         -0.2700   -2.5850   -0.1270 ce        1 EAH     -0.089000
     13 C10        -1.5960   -2.3880   -0.0070 cf        1 EAH     -0.165000
     14 C11        -2.5140   -3.4350    0.3780 cf        1 EAH     -0.126000
     15 C12        -3.8410   -3.2850    0.5110 c2        1 EAH     -0.172200
     16 C13        -4.5660   -2.0130    0.2820 c3        1 EAH     -0.020000
     17 C14        -6.0350   -2.1260    0.4570 c2        1 EAH     -0.164200
     18 C15        -6.8670   -1.0810    0.3940 c2        1 EAH     -0.182200
     19 C16        -6.4240    0.3120    0.1520 c3        1 EAH     -0.049200
     20 C17        -7.5870    1.2770    0.0500 c3        1 EAH     -0.076400
     21 C18        -7.1050    2.6900   -0.1990 c3        1 EAH     -0.080400
     22 C19        -8.2640    3.6580   -0.3000 c3        1 EAH     -0.079400
     23 C20        -7.7890    5.0660   -0.5480 c3        1 EAH     -0.093100
     24 H2          6.7960    2.5820    0.0700 hc        1 EAH      0.021700
     25 H2A         7.5210    1.5440   -1.2220 hc        1 EAH      0.021700
     26 H3          6.9560   -0.4890    0.2530 hc        1 EAH      0.045700
     27 H3A         5.9920    0.6200    1.3010 hc        1 EAH      0.045700
     28 H4          4.5960    1.3110   -0.6650 hc        1 EAH      0.041200
     29 H4A         5.5430    0.2030   -1.7380 hc        1 EAH      0.041200
     30 H5          4.0680   -0.7920    0.8010 h1        1 EAH      0.037700
     31 HO3         5.7570   -2.0240   -0.4310 ho        1 EAH      0.421000
     32 H6          2.5010    0.3290   -0.8880 hc        1 EAH      0.056200
     33 H6A         3.1240   -0.8080   -2.1600 hc        1 EAH      0.056200
     34 H7          2.4280   -2.7350   -0.4520 ha        1 EAH      0.140000
     35 H8          0.2160   -0.5450   -0.6980 ha        1 EAH      0.119000
     36 H9          0.1700   -3.5790    0.0700 ha        1 EAH      0.120000
     37 H10        -2.0350   -1.3940   -0.2020 ha        1 EAH      0.120000
     38 H11        -2.0600   -4.4240    0.5730 ha        1 EAH      0.119000
     39 H12        -4.4580   -4.1470    0.8120 ha        1 EAH      0.117000
     40 H13        -4.1690   -1.2260    0.9860 hc        1 EAH      0.059700
     41 H13A       -4.3510   -1.6400   -0.7600 hc        1 EAH      0.059700
     42 H14        -6.4290   -3.1380    0.6420 ha        1 EAH      0.120000
     43 H15        -7.9520   -1.2250    0.5280 ha        1 EAH      0.118000
     44 H16        -5.7400    0.6350    0.9860 hc        1 EAH      0.049200
     45 H16A       -5.8170    0.3530   -0.7940 hc        1 EAH      0.049200
     46 H17        -8.2680    0.9590   -0.7830 hc        1 EAH      0.038700
     47 H17A       -8.1870    1.2450    0.9980 hc        1 EAH      0.038700
     48 H18        -6.4230    3.0070    0.6340 hc        1 EAH      0.041700
     49 H18A       -6.5050    2.7210   -1.1460 hc        1 EAH      0.041700
     50 H19        -8.9460    3.3380   -1.1330 hc        1 EAH      0.036700
     51 H19A       -8.8640    3.6240    0.6480 hc        1 EAH      0.036700
     52 H20        -7.1270    5.4110    0.2830 hc        1 EAH      0.032367
     53 H20A       -7.2100    5.1250   -1.5020 hc        1 EAH      0.032367
     54 H20B       -8.6580    5.7630   -0.6200 hc        1 EAH      0.032367
@<TRIPOS>BOND
     1    1    2 1   
     2    2    3 1   
     3    2    4 1   
     4    4    5 1   
     5    4   24 1   
     6    4   25 1   
     7    5    6 1   
     8    5   26 1   
     9    5   27 1   
    10    6    7 1   
    11    6   28 1   
    12    6   29 1   
    13    7    8 1   
    14    7    9 1   
    15    7   30 1   
    16    8   31 1   
    17    9   10 1   
    18    9   32 1   
    19    9   33 1   
    20   10   11 2   
    21   10   34 1   
    22   11   12 1   
    23   11   35 1   
    24   12   13 2   
    25   12   36 1   
    26   13   14 1   
    27   13   37 1   
    28   14   15 2   
    29   14   38 1   
    30   15   16 1   
    31   15   39 1   
    32   16   17 1   
    33   16   40 1   
    34   16   41 1   
    35   17   18 2   
    36   17   42 1   
    37   18   19 1   
    38   18   43 1   
    39   19   20 1   
    40   19   44 1   
    41   19   45 1   
    42   20   21 1   
    43   20   46 1   
    44   20   47 1   
    45   21   22 1   
    46   21   48 1   
    47   21   49 1   
    48   22   23 1   
    49   22   50 1   
    50   22   51 1   
    51   23   52 1   
    52   23   53 1   
    53   23   54 1   
@<TRIPOS>SUBSTRUCTURE
     1 EAH         1 TEMP              0 ****  ****    0 ROOT
