@<TRIPOS>MOLECULE
EAH
   54    53     1     0     0
SMALL
bcc


@<TRIPOS>ATOM
      1 O1          0.1470   -1.7200    0.0590 o         1 EAH     -0.849800
      2 C1          0.7270   -0.6080    0.2220 c         1 EAH      0.908600
      3 O2          0.7520    0.0220    1.3180 o         1 EAH     -0.849800
      4 C2          1.4690    0.0150   -0.9760 c3        1 EAH     -0.196400
      5 C3          0.6970   -0.1810   -2.2570 c3        1 EAH     -0.071400
      6 C4          1.5280    0.1600   -3.4760 c3        1 EAH     -0.117400
      7 C5          0.7540   -0.0560   -4.7710 c3        1 EAH      0.144100
      8 O3          0.6190   -1.4390   -5.0870 oh        1 EAH     -0.626800
      9 C6          1.4820    0.5930   -5.9500 c3        1 EAH     -0.059200
     10 C7          0.7070    0.4850   -7.2060 c2        1 EAH     -0.107200
     11 C8          0.6530    1.4570   -8.1300 ce        1 EAH     -0.188000
     12 C9         -0.0880    1.3270   -9.3640 ce        1 EAH     -0.089000
     13 C10        -0.1370    2.2950  -10.2980 cf        1 EAH     -0.165000
     14 C11        -0.8800    2.1600  -11.5300 cf        1 EAH     -0.126000
     15 C12        -0.9580    3.0960  -12.4880 c2        1 EAH     -0.172200
     16 C13        -0.2920    4.4180  -12.4230 c3        1 EAH     -0.020000
     17 C14        -0.4990    5.2490  -13.6330 c2        1 EAH     -0.164200
     18 C15        -0.0910    6.5190  -13.7360 c2        1 EAH     -0.182200
     19 C16         0.6070    7.2500  -12.6520 c3        1 EAH     -0.049200
     20 C17         1.0400    8.6370  -13.0800 c3        1 EAH     -0.076400
     21 C18         1.7510    9.3580  -11.9550 c3        1 EAH     -0.080400
     22 C19         2.1840   10.7460  -12.3770 c3        1 EAH     -0.079400
     23 C20         2.8920   11.4680  -11.2600 c3        1 EAH     -0.093100
     24 H2          1.6390    1.1030   -0.7830 hc        1 EAH      0.021700
     25 H2A         2.4690   -0.4830   -1.0490 hc        1 EAH      0.021700
     26 H3         -0.2240    0.4580   -2.2400 hc        1 EAH      0.045700
     27 H3A         0.3540   -1.2510   -2.3000 hc        1 EAH      0.045700
     28 H4          1.8510    1.2320   -3.4170 hc        1 EAH      0.041200
     29 H4A         2.4540   -0.4730   -3.4940 hc        1 EAH      0.041200
     30 H5         -0.2800    0.3840   -4.6770 h1        1 EAH      0.037700
     31 HO3         0.4290   -1.8980   -4.2580 ho        1 EAH      0.421000
     32 H6          2.4680    0.0720   -6.0930 hc        1 EAH      0.056200
     33 H6A         1.6930    1.6650   -5.6940 hc        1 EAH      0.056200
     34 H7          0.1760   -0.4740   -7.3400 ha        1 EAH      0.140000
     35 H8          1.1850    2.4110   -7.9760 ha        1 EAH      0.119000
     36 H9         -0.6290    0.3750   -9.5120 ha        1 EAH      0.120000
     37 H10         0.4010    3.2460  -10.1490 ha        1 EAH      0.120000
     38 H11        -1.4150    1.2020  -11.6660 ha        1 EAH      0.118000
     39 H12        -1.5540    2.8980  -13.3940 ha        1 EAH      0.117000
     40 H13         0.8160    4.2730  -12.2670 hc        1 EAH      0.059700
     41 H13A       -0.6660    4.9800  -11.5190 hc        1 EAH      0.059700
     42 H14        -1.0160    4.7640  -14.4770 ha        1 EAH      0.120000
     43 H15        -0.2690    7.0870  -14.6640 ha        1 EAH      0.118000
     44 H16         1.5070    6.6600  -12.3210 hc        1 EAH      0.049200
     45 H16A       -0.0720    7.3270  -11.7580 hc        1 EAH      0.049200
     46 H17         1.7200    8.5610  -13.9680 hc        1 EAH      0.038700
     47 H17A        0.1420    9.2290  -13.3990 hc        1 EAH      0.038700
     48 H18         2.6480    8.7650  -11.6350 hc        1 EAH      0.041700
     49 H18A        1.0700    9.4320  -11.0660 hc        1 EAH      0.041700
     50 H19         1.2860   11.3360  -12.6980 hc        1 EAH      0.036700
     51 H19A        2.8640   10.6700  -13.2670 hc        1 EAH      0.036700
     52 H20         2.2220   11.5740  -10.3730 hc        1 EAH      0.032367
     53 H20A        3.2030   12.4880  -11.5920 hc        1 EAH      0.032367
     54 H20B        3.8040   10.9060  -10.9440 hc        1 EAH      0.032367
@<TRIPOS>BOND
     1    1    2 1   
     2    2    3 1   
     3    2    4 1   
     4    4    5 1   
     5    4   24 1   
     6    4   25 1   
     7    5    6 1   
     8    5   26 1   
     9    5   27 1   
    10    6    7 1   
    11    6   28 1   
    12    6   29 1   
    13    7    8 1   
    14    7    9 1   
    15    7   30 1   
    16    8   31 1   
    17    9   10 1   
    18    9   32 1   
    19    9   33 1   
    20   10   11 2   
    21   10   34 1   
    22   11   12 1   
    23   11   35 1   
    24   12   13 2   
    25   12   36 1   
    26   13   14 1   
    27   13   37 1   
    28   14   15 2   
    29   14   38 1   
    30   15   16 1   
    31   15   39 1   
    32   16   17 1   
    33   16   40 1   
    34   16   41 1   
    35   17   18 2   
    36   17   42 1   
    37   18   19 1   
    38   18   43 1   
    39   19   20 1   
    40   19   44 1   
    41   19   45 1   
    42   20   21 1   
    43   20   46 1   
    44   20   47 1   
    45   21   22 1   
    46   21   48 1   
    47   21   49 1   
    48   22   23 1   
    49   22   50 1   
    50   22   51 1   
    51   23   52 1   
    52   23   53 1   
    53   23   54 1   
@<TRIPOS>SUBSTRUCTURE
     1 EAH         1 TEMP              0 ****  ****    0 ROOT
