@<TRIPOS>MOLECULE
EAH
   54    53     1     0     0
SMALL
bcc


@<TRIPOS>ATOM
      1 O1          0.1450   -1.7370    0.0550 o         1 EAH     -0.849800
      2 C1          0.6970   -0.6110    0.2270 c         1 EAH      0.908600
      3 O2          0.6950    0.0170    1.3240 o         1 EAH     -0.849800
      4 C2          1.4380    0.0300   -0.9610 c3        1 EAH     -0.196400
      5 C3          0.6860   -0.1820   -2.2520 c3        1 EAH     -0.071400
      6 C4          1.5240    0.1800   -3.4600 c3        1 EAH     -0.117400
      7 C5          0.7690   -0.0510   -4.7650 c3        1 EAH      0.144100
      8 O3          0.6700   -1.4360   -5.0840 oh        1 EAH     -0.626800
      9 C6          1.4960    0.6160   -5.9340 c3        1 EAH     -0.059200
     10 C7          0.7390    0.4920   -7.1990 c2        1 EAH     -0.107200
     11 C8          0.6750    1.4640   -8.1230 ce        1 EAH     -0.188000
     12 C9         -0.0500    1.3190   -9.3660 ce        1 EAH     -0.089000
     13 C10        -0.1080    2.2860  -10.3000 cf        1 EAH     -0.165000
     14 C11        -0.8340    2.1360  -11.5410 cf        1 EAH     -0.126000
     15 C12        -0.9200    3.0710  -12.4990 c2        1 EAH     -0.172200
     16 C13        -0.2800    4.4060  -12.4270 c3        1 EAH     -0.020000
     17 C14        -0.4960    5.2350  -13.6370 c2        1 EAH     -0.164200
     18 C15        -0.0930    6.5070  -13.7420 c2        1 EAH     -0.182200
     19 C16         0.6070    7.2390  -12.6610 c3        1 EAH     -0.049200
     20 C17         1.0190    8.6340  -13.0860 c3        1 EAH     -0.076400
     21 C18         1.7330    9.3580  -11.9640 c3        1 EAH     -0.080400
     22 C19         2.1460   10.7530  -12.3840 c3        1 EAH     -0.079400
     23 C20         2.8580   11.4770  -11.2700 c3        1 EAH     -0.093100
     24 H2          1.5810    1.1210   -0.7650 hc        1 EAH      0.021700
     25 H2A         2.4510   -0.4440   -1.0230 hc        1 EAH      0.021700
     26 H3         -0.2500    0.4360   -2.2450 hc        1 EAH      0.045700
     27 H3A         0.3690   -1.2590   -2.3000 hc        1 EAH      0.045700
     28 H4          2.4630   -0.4310   -3.4680 hc        1 EAH      0.041200
     29 H4A         1.8210    1.2590   -3.3960 hc        1 EAH      0.041200
     30 H5         -0.2750    0.3650   -4.6820 h1        1 EAH      0.037700
     31 HO3         0.4810   -1.9010   -4.2580 ho        1 EAH      0.421000
     32 H6          1.6800    1.6920   -5.6750 hc        1 EAH      0.056200
     33 H6A         2.4960    0.1170   -6.0660 hc        1 EAH      0.056200
     34 H7          0.2290   -0.4780   -7.3400 ha        1 EAH      0.140000
     35 H8          1.1840    2.4290   -7.9620 ha        1 EAH      0.119000
     36 H9         -0.5690    0.3560   -9.5200 ha        1 EAH      0.120000
     37 H10         0.4080    3.2490  -10.1440 ha        1 EAH      0.120000
     38 H11        -1.3480    1.1680  -11.6820 ha        1 EAH      0.119000
     39 H12        -1.5010    2.8610  -13.4130 ha        1 EAH      0.117000
     40 H13        -0.6720    4.9580  -11.5250 hc        1 EAH      0.059700
     41 H13A        0.8290    4.2820  -12.2630 hc        1 EAH      0.059700
     42 H14        -1.0150    4.7480  -14.4790 ha        1 EAH      0.120000
     43 H15        -0.2780    7.0740  -14.6680 ha        1 EAH      0.118000
     44 H16        -0.0630    7.3040  -11.7600 hc        1 EAH      0.049200
     45 H16A        1.5170    6.6590  -12.3440 hc        1 EAH      0.049200
     46 H17         1.6910    8.5720  -13.9820 hc        1 EAH      0.038700
     47 H17A        0.1110    9.2180  -13.3920 hc        1 EAH      0.038700
     48 H18         1.0620    9.4180  -11.0680 hc        1 EAH      0.041700
     49 H18A        2.6410    8.7740  -11.6580 hc        1 EAH      0.041700
     50 H19         2.8160   10.6900  -13.2810 hc        1 EAH      0.036700
     51 H19A        1.2370   11.3340  -12.6910 hc        1 EAH      0.036700
     52 H20         3.7800   10.9240  -10.9670 hc        1 EAH      0.032367
     53 H20A        2.1970   11.5700  -10.3750 hc        1 EAH      0.032367
     54 H20B        3.1530   12.5020  -11.5990 hc        1 EAH      0.032367
@<TRIPOS>BOND
     1    1    2 1   
     2    2    3 1   
     3    2    4 1   
     4    4    5 1   
     5    4   24 1   
     6    4   25 1   
     7    5    6 1   
     8    5   26 1   
     9    5   27 1   
    10    6    7 1   
    11    6   28 1   
    12    6   29 1   
    13    7    8 1   
    14    7    9 1   
    15    7   30 1   
    16    8   31 1   
    17    9   10 1   
    18    9   32 1   
    19    9   33 1   
    20   10   11 2   
    21   10   34 1   
    22   11   12 1   
    23   11   35 1   
    24   12   13 2   
    25   12   36 1   
    26   13   14 1   
    27   13   37 1   
    28   14   15 2   
    29   14   38 1   
    30   15   16 1   
    31   15   39 1   
    32   16   17 1   
    33   16   40 1   
    34   16   41 1   
    35   17   18 2   
    36   17   42 1   
    37   18   19 1   
    38   18   43 1   
    39   19   20 1   
    40   19   44 1   
    41   19   45 1   
    42   20   21 1   
    43   20   46 1   
    44   20   47 1   
    45   21   22 1   
    46   21   48 1   
    47   21   49 1   
    48   22   23 1   
    49   22   50 1   
    50   22   51 1   
    51   23   52 1   
    52   23   53 1   
    53   23   54 1   
@<TRIPOS>SUBSTRUCTURE
     1 EAH         1 TEMP              0 ****  ****    0 ROOT
