@<TRIPOS>MOLECULE
EAL
   47    45     1     0     0
SMALL
bcc


@<TRIPOS>ATOM
      1 O4         -2.4200   -2.9520    4.5670 o         1 EAL     -0.580000
      2 O5         -0.6230   -1.8260    5.1380 o         1 EAL     -0.580000
      3 N2          0.1940   -2.9440    2.4980 n         1 EAL     -0.261000
      4 C5         -0.3350   -3.6270    3.5260 c3        1 EAL     -0.068000
      5 C6          0.9790   -4.3200    4.2250 c3        1 EAL     -0.160000
      6 C7          1.7770   -4.6600    3.2650 c3        1 EAL     -0.169000
      7 C8          1.4870   -3.6800    2.1210 c3        1 EAL     -0.036000
      8 C9         -1.1720   -2.7660    4.4810 c2        1 EAL      0.341000
      9 H5         -0.9880   -4.2900    3.2310 h1        1 EAL      0.115000
     10 H61         1.4150   -3.6850    4.8060 hc        1 EAL      0.071500
     11 H62         0.7020   -5.1340    4.7490 hc        1 EAL      0.071500
     12 H71         2.7290   -4.5750    3.5570 hc        1 EAL      0.064000
     13 H72         1.5930   -5.5650    2.9820 hc        1 EAL      0.064000
     14 H8C1        1.3580   -4.1870    1.2590 h1        1 EAL      0.091500
     15 H8C2        2.2280   -3.0380    2.0280 h1        1 EAL      0.091500
     16 O1         -1.3940   -1.2580    2.2720 o         1 EAL     -0.401000
     17 C1         -0.3520   -1.7390    1.8660 c2        1 EAL      0.295000
     18 C2          0.3640   -1.1060    0.7190 c3        1 EAL     -0.028000
     19 C10         1.6720   -0.5070    1.2050 c3        1 EAL     -0.246000
     20 HA          0.5470   -1.7740    0.0450 h1        1 EAL      0.095000
     21 H101        2.1620   -1.1800    1.7690 hc        1 EAL      0.087333
     22 H102        2.2300   -0.2610    0.4290 hc        1 EAL      0.087333
     23 H103        1.4860    0.2930    1.7380 hc        1 EAL      0.087333
     24 N1         -0.4570   -0.0710    0.1570 n3        1 EAL     -0.291000
     25 C3          1.1060    1.7120   -0.1850 c1        1 EAL      0.305000
     26 C4          0.2940    0.6540   -0.8440 c3        1 EAL     -0.101000
     27 O2          2.3120    1.8330   -0.4650 os        1 EAL     -0.579000
     28 O3          0.5540    2.5420    0.5840 o         1 EAL     -0.584000
     29 C14        -0.6720    1.3000   -1.8390 c3        1 EAL     -0.134000
     30 C15         0.1110    2.0720   -2.8830 c3        1 EAL     -0.139000
     31 C16        -0.8080    3.1620   -3.5180 c2        1 EAL     -0.043000
     32 C17        -1.4850    2.8920   -4.6850 c2        1 EAL     -0.150000
     33 C18        -2.2040    3.9190   -5.3380 c1        1 EAL     -0.154000
     34 C19        -2.2270    5.1930   -4.8030 c1        1 EAL     -0.150500
     35 C20        -1.5430    5.4650   -3.6230 c1        1 EAL     -0.150500
     36 C21        -0.8330    4.4510   -2.9790 c1        1 EAL     -0.111000
     37 H1         -0.7100    0.4870    0.7990 hn        1 EAL      0.172000
     38 HB          0.8880    0.0350   -1.3200 h1        1 EAL      0.081000
     39 H141       -1.1940    0.6130   -2.2720 hc        1 EAL      0.077500
     40 H142       -1.2700    1.9120   -1.3620 hc        1 EAL      0.077500
     41 H151        0.8960    2.5080   -2.4550 hc        1 EAL      0.097000
     42 H152        0.4160    1.4630   -3.5760 hc        1 EAL      0.097000
     43 H17        -1.4680    1.9980   -5.0590 ha        1 EAL      0.114000
     44 H18        -2.6870    3.7270   -6.1710 ha        1 EAL      0.102000
     45 H19        -2.7390    5.8940   -5.2390 ha        1 EAL      0.111000
     46 H20        -1.5600    6.3770   -3.2400 ha        1 EAL      0.111000
     47 H21        -0.3600    4.6400   -2.1630 ha        1 EAL      0.212000
@<TRIPOS>BOND
     1    1    8 1   
     2    2    8 1   
     3    3    4 1   
     4    3    7 1   
     5    3   17 1   
     6    4    5 1   
     7    4    8 1   
     8    4    9 1   
     9    5    6 1   
    10    5   10 1   
    11    5   11 1   
    12    6    7 1   
    13    6   12 1   
    14    6   13 1   
    15    7   14 1   
    16    7   15 1   
    17   16   17 1   
    18   17   18 1   
    19   18   19 1   
    20   18   20 1   
    21   18   24 1   
    22   19   21 1   
    23   19   22 1   
    24   19   23 1   
    25   24   26 1   
    26   24   37 1   
    27   25   26 1   
    28   25   28 1   
    29   26   29 1   
    30   26   38 1   
    31   29   30 1   
    32   29   39 1   
    33   29   40 1   
    34   30   31 1   
    35   30   41 1   
    36   30   42 1   
    37   31   32 1   
    38   31   36 1   
    39   32   33 1   
    40   32   43 1   
    41   33   44 1   
    42   34   35 1   
    43   34   45 1   
    44   35   46 1   
    45   36   47 1   
@<TRIPOS>SUBSTRUCTURE
     1 EAL         1 TEMP              0 ****  ****    0 ROOT
