@<TRIPOS>MOLECULE
EAL
   47    45     1     0     0
SMALL
bcc


@<TRIPOS>ATOM
      1 O4       -349.5060 -156.8170  -86.7590 o         1 EAL     -0.577500
      2 O5       -351.2910 -157.4920  -85.6120 o         1 EAL     -0.577500
      3 N2       -351.9250 -154.9430  -84.7910 n         1 EAL     -0.320000
      4 C5       -350.7510 -155.1140  -85.6090 c3        1 EAL     -0.112000
      5 C6       -349.8890 -160.0140  -87.0280 c1        1 EAL     -0.114000
      6 C7       -349.6930 -161.1490  -87.3610 c1        1 EAL     -0.314000
      7 C8       -349.4580 -162.4980  -87.7570 c3        1 EAL     -0.076000
      8 C9       -350.5020 -156.5880  -86.0190 c2        1 EAL      0.317000
      9 H5       -350.8770 -154.5050  -86.5460 h1        1 EAL      0.086000
     10 H61      -350.0670 -158.9900  -86.7270 ha        1 EAL      0.298000
     11 H62      -349.8390 -154.7320  -85.0710 h1        1 EAL      0.086000
     12 H71      -349.2880 -163.1520  -86.8630 hc        1 EAL      0.065333
     13 H72      -350.3360 -162.9050  -88.3240 hc        1 EAL      0.065333
     14 H8C1     -348.5550 -162.5680  -88.4170 hc        1 EAL      0.065333
     15 H8C2     -352.4850 -155.7710  -84.7180 hn        1 EAL      0.237000
     16 O1       -351.1870 -153.0700  -83.6640 o         1 EAL     -0.411000
     17 C2       -353.1400 -154.1250  -82.8240 c2        1 EAL     -0.185000
     18 C10      -353.6430 -155.2660  -82.3630 c2        1 EAL     -0.200000
     19 HA       -353.5150 -153.1410  -82.4970 ha        1 EAL      0.132000
     20 H101     -354.4670 -155.2840  -81.6370 ha        1 EAL      0.116000
     21 H102      320.4760  139.3140   76.6140 hn        1 EAL      0.128500
     22 H103     -353.2720 -156.2570  -82.6610 ha        1 EAL      0.116000
     23 N1        320.0380  139.9580   75.9750 n3        1 EAL     -0.326000
     24 C3        320.7580  141.6880   77.6970 c2        1 EAL      0.308000
     25 C4        320.6570  141.2600   76.1920 c3        1 EAL     -0.134000
     26 O2        320.4320  140.8390   78.5730 o         1 EAL     -0.573000
     27 O3        321.1770  142.8520   77.9410 o         1 EAL     -0.573000
     28 C14       319.9630  142.3880   75.4290 c3        1 EAL     -0.144000
     29 C15       320.0570  142.2020   73.9290 c3        1 EAL     -0.166000
     30 C16       319.5170  143.3310   73.1350 c2        1 EAL      0.044000
     31 C17       319.9490  143.5870   71.8640 c2        1 EAL     -0.287000
     32 C18       319.4400  144.6250   71.0550 c1        1 EAL     -0.117000
     33 C19       318.3920  145.4890   71.6090 c3        1 EAL     -0.277000
     34 C20       317.8800  145.2440   72.9520 c1        1 EAL     -0.083000
     35 C21       318.4590  144.1790   73.7510 c3        1 EAL     -0.236000
     36 H1        319.0750  140.0160   76.2570 hn        1 EAL      0.128500
     37 HB        320.4650  143.3460   75.7360 hc        1 EAL      0.090500
     38 H141      318.8880  142.4520   75.7420 hc        1 EAL      0.090500
     39 H142      321.7180  141.1790   75.8150 h1        1 EAL      0.082000
     40 H151      321.1300  142.0210   73.6450 hc        1 EAL      0.111500
     41 H152      319.4880  141.2740   73.6320 hc        1 EAL      0.111500
     42 H17       320.7410  142.9570   71.4230 ha        1 EAL      0.137000
     43 H18       318.7720  146.5560   71.5800 hc        1 EAL      0.167000
     44 H19       317.5130  145.4780   70.8950 hc        1 EAL      0.167000
     45 H20       317.6140  143.5230   74.1190 hc        1 EAL      0.175000
     46 H21       318.8750  144.6640   74.6910 hc        1 EAL      0.175000
     47 C1       -351.9920 -154.0250  -83.7760 c2        1 EAL      0.304000
@<TRIPOS>BOND
     1    1    8 1   
     2    2    8 1   
     3    3    4 1   
     4    3   15 1   
     5    3   47 1   
     6    4    8 1   
     7    4    9 1   
     8    4   11 1   
     9    5    6 1   
    10    5   10 1   
    11    6    7 1   
    12    7   12 1   
    13    7   13 1   
    14    7   14 1   
    15   16   47 1   
    16   17   18 1   
    17   17   19 1   
    18   17   47 1   
    19   18   20 1   
    20   18   22 1   
    21   21   23 1   
    22   23   25 1   
    23   23   36 1   
    24   24   25 1   
    25   24   26 1   
    26   24   27 1   
    27   25   28 1   
    28   25   39 1   
    29   28   29 1   
    30   28   37 1   
    31   28   38 1   
    32   29   30 1   
    33   29   40 1   
    34   29   41 1   
    35   30   31 1   
    36   30   35 1   
    37   31   32 1   
    38   31   42 1   
    39   32   33 1   
    40   33   34 1   
    41   33   43 1   
    42   33   44 1   
    43   34   35 1   
    44   35   45 1   
    45   35   46 1   
@<TRIPOS>SUBSTRUCTURE
     1 EAL         1 TEMP              0 ****  ****    0 ROOT
