@<TRIPOS>MOLECULE
EAL
   47    48     1     0     0
SMALL
bcc


@<TRIPOS>ATOM
      1 O4         -2.4540   -0.1610   -5.5420 o         1 EAL     -0.847800
      2 O5         -0.3650   -0.9320   -5.5330 o         1 EAL     -0.847800
      3 N2          0.1170    0.2690   -2.9410 n         1 EAL     -0.412800
      4 C5         -1.1130    0.5300   -3.6880 c3        1 EAL     -0.025300
      5 C6         -1.0970    2.0380   -4.0310 c3        1 EAL     -0.078400
      6 C7          0.3380    2.5070   -3.8250 c3        1 EAL     -0.088400
      7 C8          1.0810    1.3350   -3.1540 c3        1 EAL      0.073000
      8 C9         -1.3030   -0.2680   -5.0200 c         1 EAL      0.917600
      9 H5         -1.9970    0.2790   -3.0370 h1        1 EAL      0.063700
     10 H61        -1.7940    2.5960   -3.3580 hc        1 EAL      0.035200
     11 H62        -1.4390    2.1900   -5.0830 hc        1 EAL      0.035200
     12 H71         0.3810    3.4150   -3.1760 hc        1 EAL      0.025200
     13 H72         0.8210    2.7570   -4.8000 hc        1 EAL      0.025200
     14 H8C1        1.5520    1.6710   -2.1840 h1        1 EAL      0.064700
     15 H8C2        1.8950    0.9580   -3.8320 h1        1 EAL      0.064700
     16 O1         -0.8640   -1.1550   -1.4240 o         1 EAL     -0.679100
     17 C2          1.5160   -0.8040   -1.1270 c3        1 EAL      0.096500
     18 C10         2.0180   -2.1410   -1.6760 c3        1 EAL     -0.080100
     19 HA          2.2730   -0.0030   -1.3920 h1        1 EAL      0.123700
     20 H101        1.3030   -2.9630   -1.4340 hc        1 EAL      0.033367
     21 H102        2.1100   -2.0630   -2.7860 hc        1 EAL      0.033367
     22 H103        3.0150   -2.3870   -1.2410 hc        1 EAL      0.033367
     23 N1          1.4120   -0.8150    0.3230 n3        1 EAL     -0.784200
     24 C3          2.6090    1.3350    0.8460 c         1 EAL      0.926600
     25 C4          1.2740    0.5160    0.9120 c3        1 EAL      0.047500
     26 O2          3.2300    1.5760    1.9180 o         1 EAL     -0.848300
     27 O3          2.9610    1.7700   -0.2870 o         1 EAL     -0.848300
     28 C14         0.7910    0.4520    2.3650 c3        1 EAL     -0.064400
     29 C15        -0.7030    0.2000    2.4520 c3        1 EAL     -0.060100
     30 C16        -1.2000    0.1800    3.8550 ca        1 EAL     -0.037300
     31 C17        -1.0370    1.2980    4.6860 ca        1 EAL     -0.131000
     32 C18        -1.5210    1.2860    5.9920 ca        1 EAL     -0.139000
     33 C19        -2.1780    0.1590    6.4870 ca        1 EAL     -0.161000
     34 C20        -2.3440   -0.9570    5.6690 ca        1 EAL     -0.139000
     35 C21        -1.8590   -0.9480    4.3620 ca        1 EAL     -0.131000
     36 H1          0.6180   -1.3770    0.5860 hn        1 EAL      0.337800
     37 HB          0.5190    1.1280    0.3260 h1        1 EAL      0.012700
     38 H141        1.3520   -0.3370    2.9260 hc        1 EAL      0.054700
     39 H142        1.0420    1.4340    2.8480 hc        1 EAL      0.054700
     40 H151       -1.2460    1.0110    1.8930 hc        1 EAL      0.054700
     41 H152       -0.9560   -0.7690    1.9450 hc        1 EAL      0.054700
     42 H17        -0.5110    2.1840    4.2970 ha        1 EAL      0.139500
     43 H18        -1.3830    2.1670    6.6340 ha        1 EAL      0.112000
     44 H19        -2.5590    0.1510    7.5170 ha        1 EAL      0.107000
     45 H20        -2.8580   -1.8490    6.0550 ha        1 EAL      0.112000
     46 H21        -1.9900   -1.8320    3.7210 ha        1 EAL      0.139500
     47 C1          0.1550   -0.5470   -1.8360 c         1 EAL      0.626100
@<TRIPOS>BOND
     1    1    8 1   
     2    2    8 1   
     3    3    4 1   
     4    3    7 1   
     5    3   47 1   
     6    4    5 1   
     7    4    8 1   
     8    4    9 1   
     9    5    6 1   
    10    5   10 1   
    11    5   11 1   
    12    6    7 1   
    13    6   12 1   
    14    6   13 1   
    15    7   14 1   
    16    7   15 1   
    17   16   47 2   
    18   17   18 1   
    19   17   19 1   
    20   17   23 1   
    21   17   47 1   
    22   18   20 1   
    23   18   21 1   
    24   18   22 1   
    25   23   25 1   
    26   23   36 1   
    27   24   25 1   
    28   24   26 1   
    29   24   27 1   
    30   25   28 1   
    31   25   37 1   
    32   28   29 1   
    33   28   38 1   
    34   28   39 1   
    35   29   30 1   
    36   29   40 1   
    37   29   41 1   
    38   30   31 ar  
    39   30   35 ar  
    40   31   32 ar  
    41   31   42 1   
    42   32   33 ar  
    43   32   43 1   
    44   33   34 ar  
    45   33   44 1   
    46   34   35 ar  
    47   34   45 1   
    48   35   46 1   
@<TRIPOS>SUBSTRUCTURE
     1 EAL         1 TEMP              0 ****  ****    0 ROOT
