@<TRIPOS>MOLECULE
EAL
   48    45     1     0     0
SMALL
bcc


@<TRIPOS>ATOM
      1 O4          1.9300    2.3830    0.0130 o         1 EAL     -0.552000
      2 O5          4.1080    2.7530    0.3650 o         1 EAL     -0.552000
      3 N2          4.0830    0.6310   -1.8550 n         1 EAL     -0.204000
      4 C5          3.4340    1.9350   -1.8120 c3        1 EAL     -0.181000
      5 C6          1.4110   -1.7320   -1.2060 c1        1 EAL      0.203000
      6 C7          2.1310   -0.6350   -1.1680 c2        1 EAL     -0.531000
      7 C8          3.5230   -0.5400   -1.5740 c1        1 EAL     -0.042000
      8 C9          3.1270    2.3940   -0.3590 c2        1 EAL      0.330000
      9 H5          4.0890    2.7040   -2.3030 h1        1 EAL      0.101500
     10 H61         1.6430    0.2830   -0.7330 ha        1 EAL      0.245000
     11 H62         2.4670    1.8700   -2.3820 h1        1 EAL      0.101500
     12 H71         4.1440   -5.5110   -3.4760 ha        1 EAL      0.005250
     13 H72         3.9070   -4.9680   -3.1480 ha        1 EAL      0.005250
     14 H8C1        2.7080   -3.4070   -1.9750 ha        1 EAL      0.005250
     15 H8C2        3.2300   -2.9670   -1.9940 ha        1 EAL      0.005250
     16 O1          5.8950    0.9250   -3.2970 o         1 EAL     -0.259000
     17 C2          6.4740    0.3080   -1.0370 c3        1 EAL     -0.077000
     18 C10         6.0440   -0.9360   -0.2730 c3        1 EAL     -0.234000
     19 HA          7.4830    0.1010   -1.5180 hx        1 EAL      0.173000
     20 H101        6.8960   -1.3040    0.3510 hc        1 EAL      0.113667
     21 H102        5.7480   -1.7260   -1.0080 hc        1 EAL      0.113667
     22 H103        5.1630   -0.7390    0.3870 hc        1 EAL      0.113667
     23 N1          6.6450    1.4920   -0.1410 ny        1 EAL     -0.044000
     24 C3          9.1550    1.8030   -0.2250 c2        1 EAL      0.341000
     25 C4          7.7370    2.4010   -0.6230 c3        1 EAL     -0.190000
     26 O2          9.1480    0.8460    0.5950 o         1 EAL     -0.526500
     27 O3         10.1390    2.3420   -0.7740 o         1 EAL     -0.526500
     28 C14         7.6160    3.8010   -0.0380 c3        1 EAL     -0.156000
     29 C15         6.5340    4.6210   -0.7150 c3        1 EAL     -0.144000
     30 C16         6.1890    5.8390    0.0760 c2        1 EAL     -0.146000
     31 C17         7.1440    6.9800    0.0020 c3        1 EAL     -0.185000
     32 C18         7.7100    7.5330    1.2230 c1        1 EAL     -0.026000
     33 C19         7.5050    6.9130    2.4860 c2        1 EAL     -0.530000
     34 C20         8.0210    7.3720    3.6120 c1        1 EAL      0.311000
     35 C21         5.0590    5.8890    0.7900 c2        1 EAL     -0.218000
     36 H1          5.7440    2.0100   -0.0200 hn        1 EAL      0.274500
     37 HB          7.6790    2.4510   -1.7460 hx        1 EAL      0.126000
     38 H141        8.6170    4.2930   -0.1830 hc        1 EAL      0.109500
     39 H142        7.4240    3.7510    1.0660 hc        1 EAL      0.109500
     40 H151        6.8820    4.9240   -1.7390 hc        1 EAL      0.095000
     41 H152        5.6030    4.0000   -0.8470 hc        1 EAL      0.095000
     42 H17         6.6510    7.8410   -0.5390 hc        1 EAL      0.137500
     43 H18         8.0450    6.6950   -0.6250 hc        1 EAL      0.137500
     44 H19         6.8810    5.9850    2.5430 ha        1 EAL      0.199000
     45 H20         4.7690    6.7780    1.3650 ha        1 EAL      0.132500
     46 H21         4.3600    5.0360    0.8370 ha        1 EAL      0.132500
     47 H12         6.9600    1.1360    0.7770 hn        1 EAL      0.274500
     48 C1          5.4850    0.6390   -2.1720 c2        1 EAL      0.334000
@<TRIPOS>BOND
     1    1    8 1   
     2    2    8 1   
     3    3    4 1   
     4    3    7 1   
     5    3   48 1   
     6    4    8 1   
     7    4    9 1   
     8    4   11 1   
     9    5    6 1   
    10    6    7 1   
    11    6   10 1   
    12   12   13 1   
    13   14   15 1   
    14   16   48 1   
    15   17   18 1   
    16   17   19 1   
    17   17   23 1   
    18   17   48 1   
    19   18   20 1   
    20   18   21 1   
    21   18   22 1   
    22   23   25 1   
    23   23   36 1   
    24   23   47 1   
    25   24   25 1   
    26   24   26 1   
    27   24   27 1   
    28   25   28 1   
    29   25   37 1   
    30   28   29 1   
    31   28   38 1   
    32   28   39 1   
    33   29   30 1   
    34   29   40 1   
    35   29   41 1   
    36   30   31 1   
    37   30   35 1   
    38   31   32 1   
    39   31   42 1   
    40   31   43 1   
    41   32   33 1   
    42   33   34 1   
    43   33   44 1   
    44   35   45 1   
    45   35   46 1   
@<TRIPOS>SUBSTRUCTURE
     1 EAL         1 TEMP              0 ****  ****    0 ROOT
