@<TRIPOS>MOLECULE
EAL
   48    47     1     0     0
SMALL
bcc


@<TRIPOS>ATOM
      1 O4         -0.2450   -1.8650   -0.0050 o         1 EAL     -0.524000
      2 O5          1.8000   -1.7210    0.7130 oh        1 EAL     -0.576100
      3 N2          5.5970    1.8000   -1.3360 n2        1 EAL     -0.670900
      4 C5          1.1050   -0.2030   -1.1530 c3        1 EAL     -0.071300
      5 C6          2.4840    0.0730   -1.3930 c1        1 EAL     -0.243100
      6 C7          3.6290    0.3370   -1.6280 c1        1 EAL     -0.054100
      7 C8          5.0110    0.6350   -1.9380 c3        1 EAL      0.176900
      8 C9          0.8410   -1.2940   -0.1510 c         1 EAL      0.633100
      9 H5          2.6380   -1.2600    0.5430 ho        1 EAL      0.448000
     10 H61         0.5890    0.7280   -0.7740 hc        1 EAL      0.091200
     11 H62         0.5970   -0.4960   -2.1180 hc        1 EAL      0.091200
     12 H71         5.0780    0.8170   -3.0560 h1        1 EAL      0.092700
     13 H72         6.8840   -1.0750   -3.4610 ha        1 EAL     -0.000500
     14 H8C1        5.6390   -0.2890   -1.7170 h1        1 EAL      0.092700
     15 H8C2        6.5130   -1.1650   -4.0220 ha        1 EAL     -0.000500
     16 O1          6.3990    3.0110    0.4810 os        1 EAL     -0.445400
     17 C2          5.3430    0.9380    1.0670 c3        1 EAL      0.109200
     18 C10         4.7940    1.7500    2.2390 c3        1 EAL     -0.080100
     19 HA          4.4950    0.3040    0.6620 h1        1 EAL      0.037700
     20 H101        3.9780    2.4160    1.8710 hc        1 EAL      0.037367
     21 H102        4.3870    1.0700    3.0250 hc        1 EAL      0.037367
     22 H103        5.5950    2.3860    2.6870 hc        1 EAL      0.037367
     23 N1          6.3940    0.0250    1.4610 n3        1 EAL     -0.906800
     24 C3          8.5300   -0.0010   -1.0120 cu        1 EAL      0.343100
     25 C4          9.1730    1.2500   -0.8680 cu        1 EAL     -0.322900
     26 O2          7.7970   -0.9330   -1.3340 o         1 EAL     -0.413000
     27 O3          9.0510    0.2390    0.2490 os        1 EAL     -0.533200
     28 C14         7.5930    3.4700   -0.1750 c3        1 EAL     -0.017600
     29 C15         7.2950    4.4820   -1.2580 c3        1 EAL     -0.083400
     30 C16         7.5200    5.9210   -0.8040 c3        1 EAL     -0.036500
     31 C17         7.4670    6.8260   -2.0500 c2        1 EAL     -0.137300
     32 C18         5.7150    7.5190    0.3200 c2        1 EAL     -0.157300
     33 C19         5.9090    8.1390   -0.8220 c1        1 EAL     -0.084900
     34 C20         6.6580    7.8350   -1.8310 c1        1 EAL     -0.082900
     35 C21         6.5850    6.2630    0.3850 c3        1 EAL     -0.053200
     36 H1          7.1910    0.5310    1.8060 hn        1 EAL      0.376800
     37 HB         10.2020    1.4320   -1.1900 h4        1 EAL      0.073000
     38 H141        8.2370    2.5210   -0.5740 h1        1 EAL      0.130700
     39 H142        8.1560    3.9390    0.6760 h1        1 EAL      0.130700
     40 H151        6.2400    4.3700   -1.6180 hc        1 EAL      0.053700
     41 H152        7.9720    4.2710   -2.1280 hc        1 EAL      0.053700
     42 H17         8.0640    6.5590   -2.9210 ha        1 EAL      0.147000
     43 H18         7.2230    6.3630    1.3030 hc        1 EAL      0.065700
     44 H19         5.0570    7.7550    1.1550 ha        1 EAL      0.139000
     45 H20         8.5790    6.0180   -0.4270 hc        1 EAL      0.050700
     46 H21         5.8870    5.3960    0.5500 hc        1 EAL      0.065700
     47 H12         6.6960   -0.5220    0.6730 hn        1 EAL      0.376800
     48 C1          5.7720    1.9040   -0.0570 c2        1 EAL      0.603600
@<TRIPOS>BOND
     1    1    8 2   
     2    2    8 1   
     3    2    9 1   
     4    3    7 1   
     5    3   48 2   
     6    4    5 1   
     7    4    8 1   
     8    4   10 1   
     9    4   11 1   
    10    5    6 3   
    11    6    7 1   
    12    7   12 1   
    13    7   14 1   
    14   13   15 1   
    15   16   28 1   
    16   16   48 1   
    17   17   18 1   
    18   17   19 1   
    19   17   23 1   
    20   17   48 1   
    21   18   20 1   
    22   18   21 1   
    23   18   22 1   
    24   23   36 1   
    25   23   47 1   
    26   24   25 2   
    27   24   26 1   
    28   24   27 1   
    29   25   27 1   
    30   25   37 1   
    31   28   29 1   
    32   28   38 1   
    33   28   39 1   
    34   29   30 1   
    35   29   40 1   
    36   29   41 1   
    37   30   31 1   
    38   30   35 1   
    39   30   45 1   
    40   31   34 2   
    41   31   42 1   
    42   32   33 2   
    43   32   35 1   
    44   32   44 1   
    45   33   34 2   
    46   35   43 1   
    47   35   46 1   
@<TRIPOS>SUBSTRUCTURE
     1 EAL         1 TEMP              0 ****  ****    0 ROOT
