@<TRIPOS>MOLECULE
EAM
   53    56     1     0     0
SMALL
bcc


@<TRIPOS>ATOM
      1 CL          0.3490    1.9910    0.1560 cl        1 EAM     -0.052400
      2 C10         2.0080    1.6560    0.2050 ca        1 EAM      0.033400
      3 C9          2.4500    0.3770    0.5610 ca        1 EAM     -0.118000
      4 C8          3.8160    0.1030    0.5990 ca        1 EAM     -0.101500
      5 C11         2.9290    2.6610   -0.1130 ca        1 EAM     -0.118000
      6 C12         4.2930    2.3830   -0.0750 ca        1 EAM     -0.101500
      7 C7          4.7380    1.1070    0.2870 ca        1 EAM     -0.170900
      8 C6          6.1950    0.7910    0.3240 ce        1 EAM      0.615500
      9 N2          6.7480    0.4790   -0.8010 n2        1 EAM     -0.686900
     10 C13         6.8140    0.9310    1.6630 ca        1 EAM     -0.179900
     11 C19         7.8620    0.1030    2.1400 ca        1 EAM     -0.020200
     12 C18         8.4200    0.3660    3.4100 ca        1 EAM     -0.101000
     13 C17         7.9470    1.4010    4.2070 ca        1 EAM     -0.163000
     14 C15         6.9000    2.2050    3.7390 ca        1 EAM      0.141100
     15 O2          6.3510    3.2610    4.4250 os        1 EAM     -0.311900
     16 C16         6.8500    3.4940    5.7420 c3        1 EAM      0.106700
     17 C14         6.3410    1.9680    2.4720 ca        1 EAM     -0.116000
     18 N3          8.3600   -0.9710    1.3790 na        1 EAM     -0.240800
     19 C22         8.6050   -0.9820   -0.0100 cc        1 EAM      0.285800
     20 N5          9.2710   -2.1360   -0.3260 nd        1 EAM     -0.310000
     21 N4          9.4550   -2.8430    0.7610 nd        1 EAM     -0.330000
     22 C20         8.9160   -2.1880    1.8430 cc        1 EAM      0.410800
     23 C21         8.8760   -2.6930    3.2340 c3        1 EAM     -0.136400
     24 C5          8.0940    0.0200   -0.9990 c3        1 EAM      0.126200
     25 C4          9.1340    1.1420   -1.1530 c3        1 EAM     -0.173400
     26 C3          8.7340    2.2470   -2.0840 c         1 EAM      0.557100
     27 O1          9.1130    3.4070   -2.0400 o         1 EAM     -0.415100
     28 N1          7.7670    1.9010   -3.1970 n4        1 EAM     -0.675800
     29 C2          7.9630    2.7320   -4.4240 c3        1 EAM      0.106800
     30 C1          6.9550    2.4110   -5.5060 c3        1 EAM     -0.136100
     31 H9          1.7240   -0.4140    0.8100 ha        1 EAM      0.163000
     32 H8          4.1640   -0.9050    0.8760 ha        1 EAM      0.141000
     33 H11         2.5790    3.6690   -0.3870 ha        1 EAM      0.163000
     34 H12         5.0160    3.1760   -0.3170 ha        1 EAM      0.141000
     35 H18         9.2570   -0.2480    3.7870 ha        1 EAM      0.161000
     36 H17         8.4010    1.5770    5.1940 ha        1 EAM      0.164000
     37 H16         6.2340    4.3600    6.0960 h1        1 EAM      0.059367
     38 H16A        7.9330    3.7650    5.7070 h1        1 EAM      0.059367
     39 H16B        6.6840    2.5990    6.3890 h1        1 EAM      0.059367
     40 H14         5.5170    2.6170    2.1310 ha        1 EAM      0.174000
     41 H21         9.8380   -2.4450    3.7520 hc        1 EAM      0.076367
     42 H21A        8.0240   -2.2470    3.8040 hc        1 EAM      0.076367
     43 H21B        8.7600   -3.8070    3.2240 hc        1 EAM      0.076367
     44 H5          8.0380   -0.5500   -1.9880 h1        1 EAM      0.091700
     45 H4          9.3540    1.6140   -0.1530 hc        1 EAM      0.134200
     46 H4A        10.0960    0.6930   -1.5340 hc        1 EAM      0.134200
     47 HN1         7.8660    0.9080   -3.4370 hn        1 EAM      0.469800
     48 H2          9.0120    2.5470   -4.7950 hx        1 EAM      0.111700
     49 H2A         7.8830    3.8170   -4.1190 hx        1 EAM      0.111700
     50 H1          7.1710    3.0730   -6.3840 hc        1 EAM      0.080367
     51 H1A         7.0310    1.3490   -5.8440 hc        1 EAM      0.080367
     52 H1B         5.9080    2.6110   -5.1700 hc        1 EAM      0.080367
     53 H121        6.8080    2.0370   -2.8460 hn        1 EAM      0.469800
@<TRIPOS>BOND
     1    1    2 1   
     2    2    3 ar  
     3    2    5 ar  
     4    3    4 ar  
     5    3   31 1   
     6    4    7 ar  
     7    4   32 1   
     8    5    6 ar  
     9    5   33 1   
    10    6    7 ar  
    11    6   34 1   
    12    7    8 1   
    13    8    9 2   
    14    8   10 1   
    15    9   24 1   
    16   10   11 ar  
    17   10   17 ar  
    18   11   12 ar  
    19   11   18 1   
    20   12   13 ar  
    21   12   35 1   
    22   13   14 ar  
    23   13   36 1   
    24   14   15 1   
    25   14   17 ar  
    26   15   16 1   
    27   16   37 1   
    28   16   38 1   
    29   16   39 1   
    30   17   40 1   
    31   18   19 1   
    32   18   22 1   
    33   19   20 2   
    34   19   24 1   
    35   20   21 1   
    36   21   22 2   
    37   22   23 1   
    38   23   41 1   
    39   23   42 1   
    40   23   43 1   
    41   24   25 1   
    42   24   44 1   
    43   25   26 1   
    44   25   45 1   
    45   25   46 1   
    46   26   27 2   
    47   26   28 1   
    48   28   29 1   
    49   28   47 1   
    50   28   53 1   
    51   29   30 1   
    52   29   48 1   
    53   29   49 1   
    54   30   50 1   
    55   30   51 1   
    56   30   52 1   
@<TRIPOS>SUBSTRUCTURE
     1 EAM         1 TEMP              0 ****  ****    0 ROOT
