@<TRIPOS>MOLECULE
EAM
   52    47     1     0     0
SMALL
bcc


@<TRIPOS>ATOM
      1 CL         -6.9690   -0.5100    0.2080 cl        1 EAM     -0.006000
      2 C10        -5.1780   -0.4780    0.1260 c2        1 EAM     -0.048000
      3 C9         -4.4680   -1.6630   -0.0730 c2        1 EAM     -0.128000
      4 C8         -3.0730   -1.6630   -0.0130 c1        1 EAM     -0.094000
      5 C11        -4.4850    0.7180    0.3870 c1        1 EAM     -0.131000
      6 C12        -3.0870    0.7180    0.4470 c1        1 EAM     -0.088000
      7 C7         -2.3810   -0.4700    0.2470 c1        1 EAM     -0.063000
      8 C6         -0.8820   -0.4540    0.2180 c2        1 EAM      0.079000
      9 N2         -0.2040   -0.4780   -1.0350 n1        1 EAM     -0.165000
     10 C13        -0.0870   -0.6990    1.5310 c2        1 EAM     -0.076000
     11 C19         0.9010   -1.6790    1.3410 c1        1 EAM      0.037000
     12 C18         1.2850   -2.5110    2.4050 c1        1 EAM     -0.108000
     13 C17         0.6820   -2.3680    3.6650 c1        1 EAM     -0.177000
     14 C15        -0.3050   -1.3900    3.8600 c1        1 EAM      0.081000
     15 O2         -1.4340   -1.4640    4.6970 o         1 EAM     -0.201000
     16 C16        -1.1180   -1.6210    6.1020 c3        1 EAM     -0.080000
     17 C14        -0.6920   -0.5510    2.7850 c2        1 EAM     -0.121000
     18 N3          1.9680   -1.1820    0.5590 n2        1 EAM     -0.129000
     19 C22         1.7510    0.1080    0.2000 c1        1 EAM     -0.083500
     20 N5          2.9230    0.8050    0.3940 n2        1 EAM     -0.069000
     21 N4          3.8610   -0.0710    0.8770 n2        1 EAM     -0.069000
     22 C20         3.2810   -1.2940    0.9800 c1        1 EAM     -0.083500
     23 C21         4.2140   -2.4720    0.7190 c2        1 EAM     -0.148000
     24 C5          1.0460    0.1880   -1.1810 c1        1 EAM      0.039000
     25 C4          0.9030    1.6470   -1.7150 c3        1 EAM     -0.197000
     26 C3          1.0460    1.6470   -3.2750 c2        1 EAM      0.302000
     27 O1          0.8720    0.6410   -3.8870 o         1 EAM     -0.359000
     28 N1          1.3720    2.8730   -3.9750 n         1 EAM     -0.369000
     29 C2          1.0690    2.9950   -5.3720 c3        1 EAM     -0.036000
     30 C1          0.8890    4.5000   -5.7350 c3        1 EAM     -0.240000
     31 H9         -4.9680   -2.5310   -0.2620 ha        1 EAM      0.152000
     32 H8         -2.5790   -2.4960   -0.1530 ha        1 EAM      0.146000
     33 H11        -4.9930    1.5700    0.5300 ha        1 EAM      0.152000
     34 H12        -2.6070    1.5430    0.6260 ha        1 EAM      0.150000
     35 H18         1.9530   -3.1720    2.2710 ha        1 EAM      0.153000
     36 H17         1.0590   -2.8490    4.4490 ha        1 EAM      0.150000
     37 H16        -1.8260   -1.2390    6.6340 h1        1 EAM      0.089333
     38 H16A       -1.0290   -2.5800    6.3140 h1        1 EAM      0.089333
     39 H16B       -0.2310   -1.1380    6.3120 h1        1 EAM      0.089333
     40 H14        -1.4030    0.1570    2.9250 ha        1 EAM      0.169000
     41 H21         4.5990   -2.7650    1.5440 ha        1 EAM      0.103667
     42 H21A        4.8940   -2.2050    0.1340 ha        1 EAM      0.103667
     43 H21B        3.7240   -3.1820    0.3300 ha        1 EAM      0.103667
     44 H5          1.5900   -0.2220   -1.8830 ha        1 EAM      0.169000
     45 H4          1.6100    2.2150   -1.3180 hc        1 EAM      0.124000
     46 H4A        -0.0150    2.0150   -1.4580 hc        1 EAM      0.124000
     47 HN1         1.9100    3.4840   -3.5810 hn        1 EAM      0.216000
     48 H2          0.2360    2.5070   -5.5730 h1        1 EAM      0.101500
     49 H2A         1.8060    2.6150   -5.9010 h1        1 EAM      0.101500
     50 H1          0.2120    4.8950   -5.1550 hc        1 EAM      0.081000
     51 H1A         1.7480    4.9760   -5.6110 hc        1 EAM      0.081000
     52 H1B         0.6070    4.5770   -6.6600 hc        1 EAM      0.081000
@<TRIPOS>BOND
     1    1    2 1   
     2    2    3 1   
     3    2    5 1   
     4    3    4 1   
     5    3   31 1   
     6    4   32 1   
     7    5   33 1   
     8    6    7 1   
     9    6   34 1   
    10    7    8 1   
    11    8    9 1   
    12    8   10 1   
    13   10   11 1   
    14   10   17 1   
    15   11   12 1   
    16   12   35 1   
    17   13   14 1   
    18   13   36 1   
    19   14   17 1   
    20   15   16 1   
    21   16   37 1   
    22   16   38 1   
    23   16   39 1   
    24   17   40 1   
    25   18   19 1   
    26   18   22 1   
    27   19   20 1   
    28   20   21 1   
    29   21   22 1   
    30   23   41 1   
    31   23   42 1   
    32   23   43 1   
    33   24   25 1   
    34   24   44 1   
    35   25   26 1   
    36   25   45 1   
    37   25   46 1   
    38   26   27 1   
    39   26   28 1   
    40   28   29 1   
    41   28   47 1   
    42   29   30 1   
    43   29   48 1   
    44   29   49 1   
    45   30   50 1   
    46   30   51 1   
    47   30   52 1   
@<TRIPOS>SUBSTRUCTURE
     1 EAM         1 TEMP              0 ****  ****    0 ROOT
