@<TRIPOS>MOLECULE
EAM
   52    55     1     0     0
SMALL
bcc


@<TRIPOS>ATOM
      1 CL         -5.9820   -0.7510   -0.6560 cl        1 EAM     -0.087400
      2 C10        -4.3050   -0.6020   -0.4280 ca        1 EAM      0.028400
      3 C9         -3.7700    0.6180    0.0010 ca        1 EAM     -0.129000
      4 C8         -2.3940    0.7390    0.1830 ca        1 EAM     -0.092000
      5 C11        -3.4720   -1.6980   -0.6700 ca        1 EAM     -0.129000
      6 C12        -2.0970   -1.5730   -0.4800 ca        1 EAM     -0.092000
      7 C7         -1.5550   -0.3530   -0.0640 ca        1 EAM     -0.143900
      8 C6         -0.0870   -0.2140    0.1470 ce        1 EAM      0.550500
      9 N2          0.4730   -0.9870    1.0160 n2        1 EAM     -0.587900
     10 C13         0.5450    0.8050   -0.7280 ca        1 EAM     -0.153900
     11 C19         1.5810    1.6690   -0.2880 ca        1 EAM     -0.014200
     12 C18         2.1480    2.5820   -1.2040 ca        1 EAM     -0.107000
     13 C17         1.7000    2.6520   -2.5170 ca        1 EAM     -0.177000
     14 C15         0.6780    1.7980   -2.9430 ca        1 EAM      0.129100
     15 O2          0.1490    1.7790   -4.2160 os        1 EAM     -0.315900
     16 C16         0.7730    2.6310   -5.1700 c3        1 EAM      0.109700
     17 C14         0.1050    0.8770   -2.0500 ca        1 EAM     -0.110000
     18 N3          2.0620    1.6190    1.0340 na        1 EAM     -0.254800
     19 C22         2.3010    0.4550    1.7970 cc        1 EAM      0.339800
     20 N5          2.8930    0.8240    2.9710 nd        1 EAM     -0.329000
     21 N4          3.0420    2.1310    2.9930 nd        1 EAM     -0.346000
     22 C20         2.5520    2.6770    1.8360 cc        1 EAM      0.379800
     23 C21         2.5060    4.1160    1.4940 c3        1 EAM     -0.124400
     24 C5          1.8670   -0.9270    1.3860 c3        1 EAM      0.110200
     25 C4          2.8570   -1.4690    0.3470 c3        1 EAM     -0.167400
     26 C3          2.4770   -2.8090   -0.2550 c         1 EAM      0.656100
     27 O1          2.7010   -3.0290   -1.4630 o         1 EAM     -0.611100
     28 N1          1.9740   -3.7900    0.5780 n         1 EAM     -0.553900
     29 C2          1.5210   -5.0590    0.0730 c3        1 EAM      0.079000
     30 C1          0.0110   -5.2440    0.0620 c3        1 EAM     -0.120100
     31 H9         -4.4290    1.4770    0.1980 ha        1 EAM      0.152000
     32 H8         -1.9700    1.6950    0.5240 ha        1 EAM      0.148000
     33 H11        -3.8970   -2.6580   -1.0030 ha        1 EAM      0.152000
     34 H12        -1.4390   -2.4390   -0.6560 ha        1 EAM      0.148000
     35 H18         2.9680    3.2470   -0.8860 ha        1 EAM      0.151000
     36 H17         2.1630    3.3730   -3.2070 ha        1 EAM      0.150000
     37 H16         1.8550    2.3760   -5.2820 h1        1 EAM      0.050033
     38 H16A        0.2140    2.4110   -6.1150 h1        1 EAM      0.050033
     39 H16B        0.6490    3.7030   -4.8790 h1        1 EAM      0.050033
     40 H14        -0.6940    0.2080   -2.4090 ha        1 EAM      0.171000
     41 H21         2.3580    4.7200    2.4250 hc        1 EAM      0.064700
     42 H21A        3.4740    4.4240    1.0220 hc        1 EAM      0.064700
     43 H21B        1.6690    4.3360    0.7850 hc        1 EAM      0.064700
     44 H5          1.9320   -1.5750    2.3190 h1        1 EAM      0.107700
     45 H4          2.9610   -0.7420   -0.5030 hc        1 EAM      0.090200
     46 H4A         3.8610   -1.5760    0.8370 hc        1 EAM      0.090200
     47 HN1         1.6240   -3.5220    1.4680 hn        1 EAM      0.311500
     48 H2          1.9170   -5.1950   -0.9750 h1        1 EAM      0.062700
     49 H2A         1.9770   -5.8600    0.7250 h1        1 EAM      0.062700
     50 H1         -0.2240   -6.2720   -0.3030 hc        1 EAM      0.040700
     51 H1A        -0.4210   -5.1230    1.0850 hc        1 EAM      0.040700
     52 H1B        -0.4790   -4.5060   -0.6170 hc        1 EAM      0.040700
@<TRIPOS>BOND
     1    1    2 1   
     2    2    3 ar  
     3    2    5 ar  
     4    3    4 ar  
     5    3   31 1   
     6    4    7 ar  
     7    4   32 1   
     8    5    6 ar  
     9    5   33 1   
    10    6    7 ar  
    11    6   34 1   
    12    7    8 1   
    13    8    9 2   
    14    8   10 1   
    15    9   24 1   
    16   10   11 ar  
    17   10   17 ar  
    18   11   12 ar  
    19   11   18 1   
    20   12   13 ar  
    21   12   35 1   
    22   13   14 ar  
    23   13   36 1   
    24   14   15 1   
    25   14   17 ar  
    26   15   16 1   
    27   16   37 1   
    28   16   38 1   
    29   16   39 1   
    30   17   40 1   
    31   18   19 1   
    32   18   22 1   
    33   19   20 2   
    34   19   24 1   
    35   20   21 1   
    36   21   22 2   
    37   22   23 1   
    38   23   41 1   
    39   23   42 1   
    40   23   43 1   
    41   24   25 1   
    42   24   44 1   
    43   25   26 1   
    44   25   45 1   
    45   25   46 1   
    46   26   27 2   
    47   26   28 1   
    48   28   29 1   
    49   28   47 1   
    50   29   30 1   
    51   29   48 1   
    52   29   49 1   
    53   30   50 1   
    54   30   51 1   
    55   30   52 1   
@<TRIPOS>SUBSTRUCTURE
     1 EAM         1 TEMP              0 ****  ****    0 ROOT
