@<TRIPOS>MOLECULE
EAM
   53    56     1     0     0
SMALL
bcc


@<TRIPOS>ATOM
      1 CL          0.3460    1.9420    0.1170 cl        1 EAM     -0.052400
      2 C10         2.0070    1.6200    0.1720 ca        1 EAM      0.033400
      3 C9          2.4580    0.3360    0.4960 ca        1 EAM     -0.118000
      4 C8          3.8260    0.0730    0.5400 ca        1 EAM     -0.101500
      5 C11         2.9220    2.6430   -0.1080 ca        1 EAM     -0.118000
      6 C12         4.2880    2.3760   -0.0660 ca        1 EAM     -0.101500
      7 C7          4.7410    1.0940    0.2650 ca        1 EAM     -0.170900
      8 C6          6.2010    0.7900    0.3080 ce        1 EAM      0.615500
      9 N2          6.7670    0.5160   -0.8210 n2        1 EAM     -0.686900
     10 C13         6.8050    0.8980    1.6570 ca        1 EAM     -0.179900
     11 C19         7.8570    0.0660    2.1200 ca        1 EAM     -0.020200
     12 C18         8.4010    0.2990    3.4020 ca        1 EAM     -0.101000
     13 C17         7.9100    1.3050    4.2230 ca        1 EAM     -0.163000
     14 C15         6.8600    2.1130    3.7680 ca        1 EAM      0.141100
     15 O2          6.2940    3.1440    4.4780 os        1 EAM     -0.311900
     16 C16         6.7780    3.3440    5.8060 c3        1 EAM      0.106700
     17 C14         6.3150    1.9070    2.4890 ca        1 EAM     -0.116000
     18 N3          8.3720   -0.9820    1.3330 na        1 EAM     -0.240800
     19 C22         8.6300   -0.9510   -0.0530 cc        1 EAM      0.285800
     20 N5          9.3100   -2.0890   -0.3950 nd        1 EAM     -0.310000
     21 N4          9.4900   -2.8250    0.6740 nd        1 EAM     -0.330000
     22 C20         8.9350   -2.2060    1.7680 cc        1 EAM      0.410800
     23 C21         8.8870   -2.7500    3.1440 c3        1 EAM     -0.136400
     24 C5          8.1190    0.0740   -1.0180 c3        1 EAM      0.126200
     25 C4          9.1500    1.2090   -1.1300 c3        1 EAM     -0.173400
     26 C3          8.7490    2.3370   -2.0330 c         1 EAM      0.557100
     27 O1          9.1170    3.4980   -1.9540 o         1 EAM     -0.415100
     28 N1          7.7960    2.0130   -3.1650 n4        1 EAM     -0.675800
     29 C2          7.9950    2.8810   -4.3660 c3        1 EAM      0.106800
     30 C1          7.0000    2.5820   -5.4660 c3        1 EAM     -0.136100
     31 H9          1.7370   -0.4690    0.7160 ha        1 EAM      0.163000
     32 H8          4.1800   -0.9390    0.7910 ha        1 EAM      0.141000
     33 H11         2.5650    3.6550   -0.3570 ha        1 EAM      0.163000
     34 H12         5.0060    3.1810   -0.2780 ha        1 EAM      0.141000
     35 H18         9.2390   -0.3180    3.7700 ha        1 EAM      0.161000
     36 H17         8.3530    1.4580    5.2190 ha        1 EAM      0.164000
     37 H16         7.8580    3.6260    5.7900 h1        1 EAM      0.059367
     38 H16A        6.1500    4.1940    6.1780 h1        1 EAM      0.059367
     39 H16B        6.6140    2.4290    6.4260 h1        1 EAM      0.059367
     40 H14         5.4880    2.5580    2.1590 ha        1 EAM      0.174000
     41 H21         8.7800   -3.8650    3.1020 hc        1 EAM      0.076367
     42 H21A        9.8410   -2.5090    3.6790 hc        1 EAM      0.076367
     43 H21B        8.0250   -2.3280    3.7180 hc        1 EAM      0.076367
     44 H5          8.0780   -0.4680   -2.0230 h1        1 EAM      0.091700
     45 H4          9.3570    1.6550   -0.1160 hc        1 EAM      0.134200
     46 H4A        10.1200    0.7800   -1.5140 hc        1 EAM      0.134200
     47 HN1         6.8320    2.1310   -2.8200 hn        1 EAM      0.469800
     48 H2          9.0500    2.7160   -4.7320 hx        1 EAM      0.111700
     49 H2A         7.9030    3.9550   -4.0320 hx        1 EAM      0.111700
     50 H1          7.2190    3.2690   -6.3240 hc        1 EAM      0.080367
     51 H1A         5.9490    2.7630   -5.1350 hc        1 EAM      0.080367
     52 H1B         7.0900    1.5300   -5.8340 hc        1 EAM      0.080367
     53 H121        7.9060    1.0280   -3.4320 hn        1 EAM      0.469800
@<TRIPOS>BOND
     1    1    2 1   
     2    2    3 ar  
     3    2    5 ar  
     4    3    4 ar  
     5    3   31 1   
     6    4    7 ar  
     7    4   32 1   
     8    5    6 ar  
     9    5   33 1   
    10    6    7 ar  
    11    6   34 1   
    12    7    8 1   
    13    8    9 2   
    14    8   10 1   
    15    9   24 1   
    16   10   11 ar  
    17   10   17 ar  
    18   11   12 ar  
    19   11   18 1   
    20   12   13 ar  
    21   12   35 1   
    22   13   14 ar  
    23   13   36 1   
    24   14   15 1   
    25   14   17 ar  
    26   15   16 1   
    27   16   37 1   
    28   16   38 1   
    29   16   39 1   
    30   17   40 1   
    31   18   19 1   
    32   18   22 1   
    33   19   20 2   
    34   19   24 1   
    35   20   21 1   
    36   21   22 2   
    37   22   23 1   
    38   23   41 1   
    39   23   42 1   
    40   23   43 1   
    41   24   25 1   
    42   24   44 1   
    43   25   26 1   
    44   25   45 1   
    45   25   46 1   
    46   26   27 2   
    47   26   28 1   
    48   28   29 1   
    49   28   47 1   
    50   28   53 1   
    51   29   30 1   
    52   29   48 1   
    53   29   49 1   
    54   30   50 1   
    55   30   51 1   
    56   30   52 1   
@<TRIPOS>SUBSTRUCTURE
     1 EAM         1 TEMP              0 ****  ****    0 ROOT
