@<TRIPOS>MOLECULE
EAM
   53    56     1     0     0
SMALL
bcc


@<TRIPOS>ATOM
      1 Cl          0.3510    1.9740    0.0900 cl        1 EAM     -0.052400
      2 C10         2.0100    1.6430    0.1530 ca        1 EAM      0.033400
      3 C9          2.4530    0.3570    0.4840 ca        1 EAM     -0.118000
      4 C8          3.8190    0.0880    0.5340 ca        1 EAM     -0.101500
      5 C11         2.9320    2.6590   -0.1280 ca        1 EAM     -0.118000
      6 C12         4.2960    2.3850   -0.0800 ca        1 EAM     -0.101500
      7 C7          4.7410    1.1030    0.2580 ca        1 EAM     -0.170900
      8 C6          6.1990    0.7910    0.3070 ce        1 EAM      0.615500
      9 N2          6.7670    0.5090   -0.8180 n2        1 EAM     -0.686900
     10 C13         6.7990    0.9010    1.6570 ca        1 EAM     -0.179900
     11 C19         7.8440    0.0660    2.1280 ca        1 EAM     -0.020200
     12 C18         8.3850    0.3010    3.4110 ca        1 EAM     -0.101000
     13 C17         7.8960    1.3130    4.2260 ca        1 EAM     -0.163000
     14 C15         6.8530    2.1240    3.7650 ca        1 EAM      0.141100
     15 O2          6.2900    3.1610    4.4680 os        1 EAM     -0.311900
     16 C16         6.7700    3.3640    5.7970 c3        1 EAM      0.106700
     17 C14         6.3110    1.9160    2.4840 ca        1 EAM     -0.116000
     18 N3          8.3560   -0.9880    1.3470 na        1 EAM     -0.240800
     19 C22         8.6200   -0.9640   -0.0380 cc        1 EAM      0.285800
     20 N5          9.2960   -2.1070   -0.3730 nd        1 EAM     -0.310000
     21 N4          9.4680   -2.8400    0.6990 nd        1 EAM     -0.330000
     22 C20         8.9110   -2.2140    1.7890 cc        1 EAM      0.410800
     23 C21         8.8560   -2.7510    3.1670 c3        1 EAM     -0.136400
     24 C5          8.1180    0.0590   -1.0100 c3        1 EAM      0.126200
     25 C4          9.1550    1.1890   -1.1220 c3        1 EAM     -0.173400
     26 C3          8.7630    2.3150   -2.0310 c         1 EAM      0.557100
     27 O1          9.1370    3.4750   -1.9550 o         1 EAM     -0.415100
     28 N1          7.8120    1.9920   -3.1650 ny        1 EAM     -0.675800
     29 C2          8.0200    2.8530   -4.3690 c3        1 EAM      0.106800
     30 C1          7.0270    2.5560   -5.4710 c3        1 EAM     -0.136100
     31 H9          1.7270   -0.4420    0.7040 ha        1 EAM      0.163000
     32 H8          4.1670   -0.9250    0.7910 ha        1 EAM      0.141000
     33 H11         2.5810    3.6720   -0.3830 ha        1 EAM      0.163000
     34 H12         5.0190    3.1860   -0.2930 ha        1 EAM      0.141000
     35 H18         9.2190   -0.3190    3.7840 ha        1 EAM      0.161000
     36 H17         8.3370    1.4670    5.2230 ha        1 EAM      0.164000
     37 H16         7.8520    3.6410    5.7830 h1        1 EAM      0.059367
     38 H16A        6.1460    4.2190    6.1630 h1        1 EAM      0.059367
     39 H16B        6.5990    2.4530    6.4200 h1        1 EAM      0.059367
     40 H14         5.4880    2.5700    2.1480 ha        1 EAM      0.174000
     41 H21         9.8100   -2.5130    3.7040 hc        1 EAM      0.076367
     42 H21A        8.7440   -3.8660    3.1290 hc        1 EAM      0.076367
     43 H21B        7.9950   -2.3230    3.7360 hc        1 EAM      0.076367
     44 H5          8.0770   -0.4860   -2.0120 h1        1 EAM      0.091700
     45 H4         10.1240    0.7530   -1.5010 hc        1 EAM      0.134200
     46 H4A         9.3610    1.6370   -0.1090 hc        1 EAM      0.134200
     47 HN1         7.9170    1.0050   -3.4270 hn        1 EAM      0.469800
     48 H2          9.0750    2.6810   -4.7310 hx        1 EAM      0.111700
     49 H2A         7.9330    3.9300   -4.0390 hx        1 EAM      0.111700
     50 H1          7.1110    1.5020   -5.8330 hc        1 EAM      0.080367
     51 H1A         5.9750    2.7440   -5.1440 hc        1 EAM      0.080367
     52 H1B         7.2520    3.2390   -6.3310 hc        1 EAM      0.080367
     53 H121        6.8470    2.1160   -2.8230 hn        1 EAM      0.469800
@<TRIPOS>BOND
     1    1    2 1   
     2    2    3 ar  
     3    2    5 ar  
     4    3    4 ar  
     5    3   31 1   
     6    4    7 ar  
     7    4   32 1   
     8    5    6 ar  
     9    5   33 1   
    10    6    7 ar  
    11    6   34 1   
    12    7    8 1   
    13    8    9 2   
    14    8   10 1   
    15    9   24 1   
    16   10   11 ar  
    17   10   17 ar  
    18   11   12 ar  
    19   11   18 1   
    20   12   13 ar  
    21   12   35 1   
    22   13   14 ar  
    23   13   36 1   
    24   14   15 1   
    25   14   17 ar  
    26   15   16 1   
    27   16   37 1   
    28   16   38 1   
    29   16   39 1   
    30   17   40 1   
    31   18   19 1   
    32   18   22 1   
    33   19   20 2   
    34   19   24 1   
    35   20   21 1   
    36   21   22 2   
    37   22   23 1   
    38   23   41 1   
    39   23   42 1   
    40   23   43 1   
    41   24   25 1   
    42   24   44 1   
    43   25   26 1   
    44   25   45 1   
    45   25   46 1   
    46   26   27 2   
    47   26   28 1   
    48   28   29 1   
    49   28   47 1   
    50   28   53 1   
    51   29   30 1   
    52   29   48 1   
    53   29   49 1   
    54   30   50 1   
    55   30   51 1   
    56   30   52 1   
@<TRIPOS>SUBSTRUCTURE
     1 EAM         1 TEMP              0 ****  ****    0 ROOT
