@<TRIPOS>MOLECULE
EAP
   12    10     1     0     0
SMALL
bcc


@<TRIPOS>ATOM
      1 O1         -1.9710   -2.0130    0.6510 o         1 EAP     -0.913500
      2 O2          0.0430   -2.0130    2.0750 o         1 EAP     -0.913500
      3 O3          0.0430   -3.2460   -0.0610 o         1 EAP     -0.913500
      4 O4          0.0660   -0.7220   -0.0940 os        1 EAP     -0.611000
      5 P          -0.4610   -2.0130    0.6510 p5        1 EAP      1.529500
      6 C1         -0.2920    0.5380    0.4140 c2        1 EAP      0.158000
      7 C2          0.1400    1.6580   -0.1970 c1        1 EAP     -0.464000
      8 N3          0.9570    1.5660   -1.3530 n2        1 EAP     -0.262000
      9 H11        -0.8550    0.6010    1.2090 h4        1 EAP      0.114000
     10 H21        -0.1100    2.5340    0.1560 ha        1 EAP      0.089000
     11 HN31        0.5750    1.5550   -2.1810 hn        1 EAP      0.094000
     12 HN32        1.8650    1.5550   -1.2700 hn        1 EAP      0.094000
@<TRIPOS>BOND
     1    1    5 1   
     2    2    5 1   
     3    3    5 1   
     4    4    5 1   
     5    4    6 1   
     6    6    7 1   
     7    6    9 1   
     8    7   10 1   
     9    8   11 1   
    10    8   12 1   
@<TRIPOS>SUBSTRUCTURE
     1 EAP         1 TEMP              0 ****  ****    0 ROOT
