@<TRIPOS>MOLECULE
EAP
   12    11     1     0     0
SMALL
bcc


@<TRIPOS>ATOM
      1 O1         -0.1140    1.6270   -1.0030 o         1 EAP     -0.912167
      2 O2          0.8450   -0.3560   -2.3200 o         1 EAP     -0.912167
      3 O3         -1.3990   -0.5570   -1.0920 o         1 EAP     -0.912167
      4 O4          0.7350   -0.3950    0.2430 os        1 EAP     -0.407500
      5 P          -0.0870    0.1500   -1.2640 p5        1 EAP      1.294900
      6 C1          0.0790   -0.0520    1.3220 c2        1 EAP      0.213100
      7 C2          0.5040   -0.3540    2.5930 c2        1 EAP     -0.394000
      8 N3         -0.1710   -0.0050    3.7880 nh        1 EAP     -0.748600
      9 H11        -0.8670    0.5110    1.1520 h4        1 EAP      0.102000
     10 H21         1.4340   -0.9090    2.7650 h4        1 EAP      0.110000
     11 HN31       -0.2930    0.9960    3.8180 hn        1 EAP      0.283800
     12 HN32       -1.1060   -0.3850    3.7620 hn        1 EAP      0.283800
@<TRIPOS>BOND
     1    1    5 1   
     2    2    5 1   
     3    3    5 1   
     4    4    5 1   
     5    4    6 1   
     6    6    7 2   
     7    6    9 1   
     8    7    8 1   
     9    7   10 1   
    10    8   11 1   
    11    8   12 1   
@<TRIPOS>SUBSTRUCTURE
     1 EAP         1 TEMP              0 ****  ****    0 ROOT
