@<TRIPOS>MOLECULE
EAT
   32    34     1     0     0
SMALL
bcc


@<TRIPOS>ATOM
      1 OAD         1.0630   -1.2360    0.4380 oh        1 EAT     -0.605800
      2 CAG         2.1730   -0.3970    0.2120 c3        1 EAT      0.105100
      3 CAA         2.6760    0.1400    1.5730 c3        1 EAT      0.123100
      4 OAC         1.6750    0.1510    2.5680 oh        1 EAT     -0.595800
      5 CAF         3.0810    1.6120    1.2600 c3        1 EAT      0.163500
      6 CAB         2.9220    2.5090    2.4740 c3        1 EAT     -0.095100
      7 NAH         2.3430    2.0530    0.0690 n3        1 EAT     -0.810200
      8 CAE         1.7660    0.8790   -0.5930 c3        1 EAT      0.115200
      9 CAP         2.2050    0.7260   -2.0300 cc        1 EAT      0.417800
     10 NAQ         2.9930    1.6700   -2.7170 na        1 EAT     -0.253300
     11 CAM         3.1630    1.1780   -4.0130 ca        1 EAT     -0.080200
     12 CAN         3.8430    1.6700   -5.1340 ca        1 EAT     -0.131000
     13 CAI         3.7990    0.9070   -6.2900 ca        1 EAT     -0.116000
     14 CAJ         3.1020   -0.3140   -6.3470 ca        1 EAT     -0.152000
     15 CAK         2.4210   -0.8210   -5.2510 ca        1 EAT     -0.073000
     16 CAL         2.4390   -0.0830   -4.0590 ca        1 EAT      0.070400
     17 NAO         1.8550   -0.3300   -2.8030 nd        1 EAT     -0.599100
     18 H1          0.7950   -1.5810   -0.4260 ho        1 EAT      0.434000
     19 H2          2.9900   -0.9600   -0.3110 h1        1 EAT      0.068700
     20 H3          3.5560   -0.4530    1.9350 h1        1 EAT      0.054700
     21 H4          1.2260   -0.7060    2.5370 ho        1 EAT      0.427000
     22 H5          4.1700    1.5970    0.9590 h1        1 EAT      0.063700
     23 H6          1.8550    2.5530    2.8030 hc        1 EAT      0.049367
     24 H7          3.2780    3.5420    2.2500 hc        1 EAT      0.049367
     25 H8          3.5260    2.0890    3.3140 hc        1 EAT      0.049367
     26 H9          1.6120    2.6920    0.3240 hn        1 EAT      0.370800
     27 H11         0.6350    0.9410   -0.6100 h1        1 EAT      0.083700
     28 H12         3.3790    2.4940   -2.3390 hn        1 EAT      0.320700
     29 H13         4.3880    2.6220   -5.0970 ha        1 EAT      0.136000
     30 H14         4.3220    1.2620   -7.1910 ha        1 EAT      0.132000
     31 H15         3.1000   -0.8780   -7.2920 ha        1 EAT      0.132000
     32 H16         1.8780   -1.7750   -5.3050 ha        1 EAT      0.146000
@<TRIPOS>BOND
     1    1    2 1   
     2    1   18 1   
     3    2    3 1   
     4    2    8 1   
     5    2   19 1   
     6    3    4 1   
     7    3    5 1   
     8    3   20 1   
     9    4   21 1   
    10    5    6 1   
    11    5    7 1   
    12    5   22 1   
    13    6   23 1   
    14    6   24 1   
    15    6   25 1   
    16    7    8 1   
    17    7   26 1   
    18    8    9 1   
    19    8   27 1   
    20    9   10 1   
    21    9   17 2   
    22   10   11 1   
    23   10   28 1   
    24   11   12 ar  
    25   11   16 ar  
    26   12   13 ar  
    27   12   29 1   
    28   13   14 ar  
    29   13   30 1   
    30   14   15 ar  
    31   14   31 1   
    32   15   16 ar  
    33   15   32 1   
    34   16   17 1   
@<TRIPOS>SUBSTRUCTURE
     1 EAT         1 TEMP              0 ****  ****    0 ROOT
