@<TRIPOS>MOLECULE
EAT
   32    29     1     0     0
SMALL
bcc


@<TRIPOS>ATOM
      1 OAD        -2.9180   -0.7820    1.1420 oh        1 EAT     -0.329000
      2 CAG        -1.6010   -0.7820    1.1420 c3        1 EAT     -0.016000
      3 CAA        -1.0470   -0.7820    2.6390 c3        1 EAT      0.017000
      4 OAC        -2.1380   -0.4750    3.5880 oh        1 EAT     -0.315000
      5 CAF        -0.1680    0.1390    2.6650 c3        1 EAT     -0.037000
      6 CAB        -0.1600    0.8080    4.0150 c3        1 EAT     -0.188000
      7 NAH        -0.6030    1.2280    1.4910 n3        1 EAT     -0.268000
      8 CAE        -1.0630    0.5220    0.4970 c3        1 EAT     -0.019000
      9 CAP         0.0680    0.1980   -0.4970 c2        1 EAT      0.003000
     10 NAQ         0.0840    1.1160   -1.4990 n2        1 EAT     -0.227000
     11 CAM         0.8240    0.6120   -2.5170 c1        1 EAT     -0.028000
     12 CAN         1.1670    1.1310   -3.7810 c1        1 EAT     -0.116250
     13 CAI         1.9550    0.3860   -4.6450 c1        1 EAT     -0.116250
     14 CAJ         2.4050   -0.8680   -4.2650 c1        1 EAT     -0.116250
     15 CAK         2.0680   -1.3780   -3.0220 c1        1 EAT     -0.116250
     16 CAL         1.2680   -0.6230   -2.1440 c1        1 EAT     -0.072000
     17 NAO         0.7990   -0.8750   -0.8970 n1        1 EAT     -0.159000
     18 H1         -3.2140   -1.4970    0.7060 ho        1 EAT      0.233000
     19 H2         -1.2640   -1.5600    0.6580 h1        1 EAT      0.105000
     20 H3         -0.6430   -1.6450    2.8510 h1        1 EAT      0.085000
     21 H4         -2.4820   -1.2330    3.8980 ho        1 EAT      0.226000
     22 H5          0.7130   -0.2330    2.4690 h1        1 EAT      0.085000
     23 H6         -0.1790    0.1290    4.7160 hc        1 EAT      0.086000
     24 H7          0.6490    1.3470    4.1070 hc        1 EAT      0.086000
     25 H8         -0.9440    1.3830    4.0980 hc        1 EAT      0.086000
     26 H9          0.1340    1.6920    1.2190 hn        1 EAT      0.148000
     27 H11        -1.7850    1.0000    0.0460 h1        1 EAT      0.144000
     28 H12        -0.3160    1.9360   -1.4820 DU        1 EAT      0.267000
     29 H13         0.8500    2.0140   -4.0490 ha        1 EAT      0.137750
     30 H14         2.1930    0.7460   -5.5210 ha        1 EAT      0.137750
     31 H15         2.9600   -1.3920   -4.8740 ha        1 EAT      0.137750
     32 H16         2.3860   -2.2620   -2.7550 ha        1 EAT      0.137750
@<TRIPOS>BOND
     1    1    2 1   
     2    1   18 1   
     3    2    3 1   
     4    2    8 1   
     5    2   19 1   
     6    3    4 1   
     7    3    5 1   
     8    3   20 1   
     9    4   21 1   
    10    5    6 1   
    11    5    7 1   
    12    5   22 1   
    13    6   23 1   
    14    6   24 1   
    15    6   25 1   
    16    7    8 1   
    17    7   26 1   
    18    8    9 1   
    19    8   27 1   
    20    9   10 1   
    21    9   17 1   
    22   10   11 1   
    23   11   16 1   
    24   12   13 1   
    25   12   29 1   
    26   13   30 1   
    27   14   15 1   
    28   14   31 1   
    29   15   32 1   
@<TRIPOS>SUBSTRUCTURE
     1 EAT         1 TEMP              0 ****  ****    0 ROOT
