@<TRIPOS>MOLECULE
EAT
   32    34     1     0     0
SMALL
bcc


@<TRIPOS>ATOM
      1 OAD        -2.1620    2.2560    0.2680 oh        1 EAT     -0.604800
      2 CAG        -1.7690    1.0370   -0.3300 c3        1 EAT      0.095100
      3 CAA        -2.9690    0.2130   -0.8590 c3        1 EAT      0.105100
      4 OAC        -4.1830    0.8290   -0.4940 oh        1 EAT     -0.594800
      5 CAF        -2.7740   -1.2070   -0.2600 c3        1 EAT      0.134500
      6 CAB        -4.1010   -1.8730    0.0660 c3        1 EAT     -0.083100
      7 NAH        -1.9150   -1.0570    0.9230 n3        1 EAT     -0.805200
      8 CAE        -1.1280    0.1630    0.7930 c3        1 EAT      0.155200
      9 CAP         0.3410   -0.0200    0.4850 cc        1 EAT      0.386800
     10 NAQ         1.2550    1.0390    0.6860 na        1 EAT     -0.274300
     11 CAM         2.5090    0.5590    0.3020 ca        1 EAT     -0.072200
     12 CAN         3.7830    1.1400    0.2760 ca        1 EAT     -0.134000
     13 CAI         4.8330    0.3520   -0.1710 ca        1 EAT     -0.112000
     14 CAJ         4.6380   -0.9790   -0.5820 ca        1 EAT     -0.153000
     15 CAK         3.3870   -1.5760   -0.5650 ca        1 EAT     -0.070000
     16 CAL         2.2950   -0.8160   -0.1220 ca        1 EAT      0.066400
     17 NAO         0.9300   -1.1350    0.0060 nd        1 EAT     -0.579100
     18 H1         -2.9030    2.6060   -0.2470 ho        1 EAT      0.425000
     19 H2         -1.0390    1.2530   -1.1540 h1        1 EAT      0.063700
     20 H3         -2.9930    0.1790   -1.9800 h1        1 EAT      0.090700
     21 H4         -4.2580    0.7760    0.4690 ho        1 EAT      0.420000
     22 H5         -2.2610   -1.8310   -1.0530 h1        1 EAT      0.045700
     23 H6         -4.7630   -1.8100   -0.8310 hc        1 EAT      0.045367
     24 H7         -3.9420   -2.9450    0.3310 hc        1 EAT      0.045367
     25 H8         -4.6150   -1.3710    0.9210 hc        1 EAT      0.045367
     26 H9         -1.3510   -1.8710    1.0690 hn        1 EAT      0.394800
     27 H11        -1.2150    0.7080    1.7820 h1        1 EAT      0.098700
     28 H12         1.0360    1.9460    1.0010 hn        1 EAT      0.313700
     29 H13         3.9420    2.1780    0.5970 ha        1 EAT      0.136000
     30 H14         5.8480    0.7760   -0.2040 ha        1 EAT      0.133000
     31 H15         5.5080   -1.5590   -0.9270 ha        1 EAT      0.133000
     32 H16         3.2440   -2.6170   -0.8870 ha        1 EAT      0.147000
@<TRIPOS>BOND
     1    1    2 1   
     2    1   18 1   
     3    2    3 1   
     4    2    8 1   
     5    2   19 1   
     6    3    4 1   
     7    3    5 1   
     8    3   20 1   
     9    4   21 1   
    10    5    6 1   
    11    5    7 1   
    12    5   22 1   
    13    6   23 1   
    14    6   24 1   
    15    6   25 1   
    16    7    8 1   
    17    7   26 1   
    18    8    9 1   
    19    8   27 1   
    20    9   10 1   
    21    9   17 2   
    22   10   11 1   
    23   10   28 1   
    24   11   12 ar  
    25   11   16 ar  
    26   12   13 ar  
    27   12   29 1   
    28   13   14 ar  
    29   13   30 1   
    30   14   15 ar  
    31   14   31 1   
    32   15   16 ar  
    33   15   32 1   
    34   16   17 1   
@<TRIPOS>SUBSTRUCTURE
     1 EAT         1 TEMP              0 ****  ****    0 ROOT
