@<TRIPOS>MOLECULE
EAT
   32    34     1     0     0
SMALL
bcc


@<TRIPOS>ATOM
      1 OAD         0.8540   -1.0970    0.3810 oh        1 EAT     -0.605800
      2 CAG         2.0470   -0.3740    0.1820 c3        1 EAT      0.105100
      3 CAA         2.5930    0.0730    1.5580 c3        1 EAT      0.123100
      4 OAC         1.5910    0.1670    2.5480 oh        1 EAT     -0.595800
      5 CAF         3.1530    1.5020    1.2840 c3        1 EAT      0.163500
      6 CAB         3.0800    2.3820    2.5190 c3        1 EAT     -0.095100
      7 NAH         2.4760    2.0470    0.1000 n3        1 EAT     -0.810200
      8 CAE         1.7840    0.9560   -0.5940 c3        1 EAT      0.115200
      9 CAP         2.2170    0.7920   -2.0320 cc        1 EAT      0.416800
     10 NAQ         3.1060    1.6610   -2.6900 na        1 EAT     -0.253300
     11 CAM         3.2340    1.1860   -3.9970 ca        1 EAT     -0.080200
     12 CAN         3.9730    1.6290   -5.1020 ca        1 EAT     -0.131000
     13 CAI         3.8570    0.9020   -6.2770 ca        1 EAT     -0.116000
     14 CAJ         3.0340   -0.2360   -6.3680 ca        1 EAT     -0.152000
     15 CAK         2.2940   -0.6930   -5.2890 ca        1 EAT     -0.073000
     16 CAL         2.3800    0.0110   -4.0780 ca        1 EAT      0.070400
     17 NAO         1.7630   -0.2020   -2.8330 nd        1 EAT     -0.599100
     18 H1          0.5580   -1.3910   -0.4920 ho        1 EAT      0.434000
     19 H2          2.8050   -1.0080   -0.3500 h1        1 EAT      0.068700
     20 H3          3.4030   -0.6170    1.9110 h1        1 EAT      0.054700
     21 H4          1.0550   -0.6370    2.4940 ho        1 EAT      0.427000
     22 H5          4.2380    1.3790    0.9890 h1        1 EAT      0.063700
     23 H6          2.0210    2.5300    2.8420 hc        1 EAT      0.049367
     24 H7          3.6290    1.8800    3.3510 hc        1 EAT      0.049367
     25 H8          3.5450    3.3770    2.3210 hc        1 EAT      0.049367
     26 H9          1.8150    2.7530    0.3660 hn        1 EAT      0.370800
     27 H11         0.6660    1.1370   -0.6160 h1        1 EAT      0.083700
     28 H12         3.5750    2.4310   -2.2900 hn        1 EAT      0.320700
     29 H13         4.6160    2.5160   -5.0380 ha        1 EAT      0.136000
     30 H14         4.4230    1.2210   -7.1650 ha        1 EAT      0.132000
     31 H15         2.9800   -0.7730   -7.3270 ha        1 EAT      0.132000
     32 H16         1.6520   -1.5810   -5.3700 ha        1 EAT      0.146000
@<TRIPOS>BOND
     1    1    2 1   
     2    1   18 1   
     3    2    3 1   
     4    2    8 1   
     5    2   19 1   
     6    3    4 1   
     7    3    5 1   
     8    3   20 1   
     9    4   21 1   
    10    5    6 1   
    11    5    7 1   
    12    5   22 1   
    13    6   23 1   
    14    6   24 1   
    15    6   25 1   
    16    7    8 1   
    17    7   26 1   
    18    8    9 1   
    19    8   27 1   
    20    9   10 1   
    21    9   17 2   
    22   10   11 1   
    23   10   28 1   
    24   11   12 ar  
    25   11   16 ar  
    26   12   13 ar  
    27   12   29 1   
    28   13   14 ar  
    29   13   30 1   
    30   14   15 ar  
    31   14   31 1   
    32   15   16 ar  
    33   15   32 1   
    34   16   17 1   
@<TRIPOS>SUBSTRUCTURE
     1 EAT         1 TEMP              0 ****  ****    0 ROOT
