@<TRIPOS>MOLECULE
EAT
   32    34     1     0     0
SMALL
bcc


@<TRIPOS>ATOM
      1 OAD         1.0980   -1.2580    0.4340 oh        1 EAT     -0.605800
      2 CAG         2.1980   -0.4050    0.2080 c3        1 EAT      0.105100
      3 CAA         2.7010    0.1290    1.5690 c3        1 EAT      0.123100
      4 OAC         1.7050    0.1230    2.5700 oh        1 EAT     -0.595800
      5 CAF         3.0890    1.6070    1.2630 c3        1 EAT      0.163500
      6 CAB         2.9260    2.4950    2.4840 c3        1 EAT     -0.095100
      7 NAH         2.3410    2.0470    0.0790 n7        1 EAT     -0.810200
      8 CAE         1.7740    0.8710   -0.5880 c3        1 EAT      0.115200
      9 CAP         2.2080    0.7310   -2.0280 cc        1 EAT      0.416800
     10 NAQ         2.9840    1.6850   -2.7110 na        1 EAT     -0.253300
     11 CAM         3.1540    1.2030   -4.0110 ca        1 EAT     -0.080200
     12 CAN         3.8250    1.7080   -5.1320 ca        1 EAT     -0.131000
     13 CAI         3.7830    0.9510   -6.2930 ca        1 EAT     -0.116000
     14 CAJ         3.0960   -0.2760   -6.3540 ca        1 EAT     -0.152000
     15 CAK         2.4250   -0.7950   -5.2590 ca        1 EAT     -0.073000
     16 CAL         2.4410   -0.0640   -4.0620 ca        1 EAT      0.070400
     17 NAO         1.8650   -0.3240   -2.8060 nd        1 EAT     -0.599100
     18 H1          0.8300   -1.6010   -0.4300 ho        1 EAT      0.434000
     19 H2          3.0180   -0.9570   -0.3220 h1        1 EAT      0.068700
     20 H3          3.5890   -0.4570    1.9250 h1        1 EAT      0.054700
     21 H4          1.2660   -0.7380    2.5360 ho        1 EAT      0.427000
     22 H5          4.1770    1.6060    0.9570 h1        1 EAT      0.063700
     23 H6          1.8600    2.5250    2.8180 hc        1 EAT      0.049367
     24 H7          3.5390    2.0770    3.3170 hc        1 EAT      0.049367
     25 H8          3.2700    3.5340    2.2630 hc        1 EAT      0.049367
     26 H9          1.6050    2.6770    0.3400 hn        1 EAT      0.370800
     27 H11         0.6420    0.9210   -0.6000 h1        1 EAT      0.083700
     28 H12         3.3640    2.5110   -2.3300 hn        1 EAT      0.320700
     29 H13         4.3620    2.6640   -5.0920 ha        1 EAT      0.136000
     30 H14         4.3000    1.3170   -7.1940 ha        1 EAT      0.132000
     31 H15         3.0960   -0.8340   -7.3030 ha        1 EAT      0.132000
     32 H16         1.8900   -1.7540   -5.3170 ha        1 EAT      0.146000
@<TRIPOS>BOND
     1    1    2 1   
     2    1   18 1   
     3    2    3 1   
     4    2    8 1   
     5    2   19 1   
     6    3    4 1   
     7    3    5 1   
     8    3   20 1   
     9    4   21 1   
    10    5    6 1   
    11    5    7 1   
    12    5   22 1   
    13    6   23 1   
    14    6   24 1   
    15    6   25 1   
    16    7    8 1   
    17    7   26 1   
    18    8    9 1   
    19    8   27 1   
    20    9   10 1   
    21    9   17 2   
    22   10   11 1   
    23   10   28 1   
    24   11   12 ar  
    25   11   16 ar  
    26   12   13 ar  
    27   12   29 1   
    28   13   14 ar  
    29   13   30 1   
    30   14   15 ar  
    31   14   31 1   
    32   15   16 ar  
    33   15   32 1   
    34   16   17 1   
@<TRIPOS>SUBSTRUCTURE
     1 EAT         1 TEMP              0 ****  ****    0 ROOT
