@<TRIPOS>MOLECULE
EAX
   16    15     1     0     0
SMALL
bcc


@<TRIPOS>ATOM
      1 OAB         0.0740    0.2310   -0.3890 oh        1 EAX     -0.630800
      2 OAA         3.3350   -0.7850    3.6800 o         1 EAX     -0.830300
      3 CAG         3.8180    0.0700    2.8850 c         1 EAX      0.892600
      4 OAC         4.6110    0.9970    3.2090 o         1 EAX     -0.830300
      5 CAI         3.4110   -0.0140    1.3920 c3        1 EAX     -0.015900
      6 OAE         4.0160    1.0080    0.6200 oh        1 EAX     -0.639800
      7 CAH         1.8860    0.0830    1.2460 c3        1 EAX      0.114100
      8 OAD         1.2320   -1.0500    1.7990 oh        1 EAX     -0.662800
      9 CAF         1.4780    0.1330   -0.2280 c3        1 EAX      0.134400
     10 H1         -0.3200   -0.3990    0.2290 ho        1 EAX      0.410000
     11 H3          3.7620   -0.9940    0.9670 h1        1 EAX      0.045700
     12 H5          1.5140    1.0060    1.7720 h1        1 EAX      0.038700
     13 H6          1.6800   -1.2600    2.6380 ho        1 EAX      0.458000
     14 H7          1.8480   -0.7850   -0.7570 h1        1 EAX      0.043200
     15 H8          1.9060    1.0500   -0.7100 h1        1 EAX      0.043200
     16 H4          4.4630    1.6050    1.2430 ho        1 EAX      0.428000
@<TRIPOS>BOND
     1    1    9 1   
     2    1   10 1   
     3    2    3 1   
     4    3    4 1   
     5    3    5 1   
     6    5    6 1   
     7    5    7 1   
     8    5   11 1   
     9    6   16 1   
    10    7    8 1   
    11    7    9 1   
    12    7   12 1   
    13    8   13 1   
    14    9   14 1   
    15    9   15 1   
@<TRIPOS>SUBSTRUCTURE
     1 EAX         1 TEMP              0 ****  ****    0 ROOT
