@<TRIPOS>MOLECULE
EB1
   79    76     1     0     0
SMALL
bcc


@<TRIPOS>ATOM
      1 O2         -3.7050   -0.9480   -6.6970 oh        1 EB1     -0.323000
      2 C1         -3.4460    1.8180   -7.5030 c3        1 EB1      0.069000
      3 C2         -2.8100    0.4610   -8.2060 c3        1 EB1     -0.222000
      4 C3         -2.4650   -0.4490   -7.4060 c3        1 EB1      0.039000
      5 C4         -1.3420    0.0060   -6.2430 c3        1 EB1     -0.117000
      6 C5         -1.7400    1.2040   -5.5570 c2        1 EB1     -0.065000
      7 C6         -1.4220    1.4170   -4.2320 c1        1 EB1     -0.117000
      8 C7         -0.6190    0.3540   -3.4470 c1        1 EB1     -0.153000
      9 C8         -0.1040    0.6580   -2.1810 c1        1 EB1     -0.066000
     10 C9         -0.3670    2.2240   -1.4930 c2        1 EB1     -0.128000
     11 C10        -2.5990    2.3240   -6.4340 c2        1 EB1     -0.084000
     12 C11         0.2440    2.2610   -0.4920 c3        1 EB1     -0.152000
     13 C12         0.3470    1.3750    0.2850 c3        1 EB1     -0.147000
     14 C13         0.4600    0.0330   -0.3970 c3        1 EB1     -0.043000
     15 C14         0.8260    0.1100   -1.7980 c3        1 EB1     -0.077000
     16 C15         0.8770   -0.6420   -2.0240 c3        1 EB1     -0.153000
     17 C16         1.6740   -1.3850   -0.7380 c3        1 EB1     -0.155000
     18 C17         1.4880   -0.6290    0.0900 c3        1 EB1     -0.094000
     19 C18        -0.8550   -0.7860   -0.2200 c3        1 EB1     -0.201000
     20 C19        -2.5140    3.6520   -6.1630 c1        1 EB1     -0.185000
     21 C20         1.0530   -1.4540    1.5980 c3        1 EB1     -0.069000
     22 C21         0.5850   -2.7700    1.3040 c3        1 EB1     -0.205000
     23 C22         2.2030   -1.5320    2.4470 c2        1 EB1     -0.153000
     24 C23         2.0630   -1.3940    3.8420 c1        1 EB1     -0.140000
     25 C24         0.6360   -1.1560    4.4740 c1        1 EB1     -0.128500
     26 C25         0.5140   -0.8110    5.8440 c1        1 EB1     -0.128500
     27 C27         1.7940   -0.6630    6.7340 c2        1 EB1      0.112000
     28 O1         -3.7360    2.8460   -8.4900 oh        1 EB1     -0.325000
     29 C26         2.1830   -2.0540    7.3270 c3        1 EB1     -0.183500
     30 C28         1.5110    0.2970    7.8580 c3        1 EB1     -0.183500
     31 O3          2.8630   -0.1690    5.9510 oh        1 EB1     -0.322000
     32 C30         1.6380    1.7230    7.3510 c3        1 EB1     -0.209000
     33 C31         1.2220   -2.4100    8.4460 c3        1 EB1     -0.209000
     34 HO2        -3.8990   -1.7830   -6.9810 ho        1 EB1      0.195000
     35 H1         -4.3330    1.6340   -7.1670 h1        1 EB1      0.094000
     36 H21        -3.4940    0.0860   -8.8290 hc        1 EB1      0.092500
     37 H22A       -2.0340    0.7220   -8.7250 hc        1 EB1      0.092500
     38 H3         -2.0830   -1.1950   -7.9290 h1        1 EB1      0.070000
     39 H41        -1.1090   -0.6280   -5.5390 hc        1 EB1      0.102500
     40 H42        -0.4990    0.0830   -6.7020 hc        1 EB1      0.102500
     41 H6         -1.7060    2.2440   -3.7870 ha        1 EB1      0.124000
     42 H7         -0.4690   -0.5370   -3.8380 ha        1 EB1      0.125000
     43 H91        -0.2730    2.9290   -2.1950 ha        1 EB1      0.090500
     44 H92        -1.3120    2.3590   -1.2270 ha        1 EB1      0.090500
     45 H111       -0.1280    3.0380    0.0270 hc        1 EB1      0.078500
     46 H112        1.1630    2.5050   -0.7470 hc        1 EB1      0.078500
     47 H121        1.1550    1.5230    0.8320 hc        1 EB1      0.082000
     48 H122       -0.4660    1.3700    0.8920 hc        1 EB1      0.082000
     49 H14         1.6610    0.6170   -1.9420 hc        1 EB1      0.099000
     50 H151        1.4110   -0.7230   -2.8610 hc        1 EB1      0.083500
     51 H152       -0.0260   -1.0310   -2.1450 hc        1 EB1      0.083500
     52 H161        2.6250   -1.4770   -0.9220 hc        1 EB1      0.082500
     53 H162        1.2600   -2.2640   -0.5200 hc        1 EB1      0.082500
     54 H17         2.2630   -0.0380    0.2140 hc        1 EB1      0.090000
     55 H181       -1.6020   -0.2870   -0.5970 hc        1 EB1      0.077000
     56 H182       -0.7700   -1.6500   -0.6850 hc        1 EB1      0.077000
     57 H183       -1.0160   -0.9430    0.7360 hc        1 EB1      0.077000
     58 H191       -1.9320    3.9690   -5.4330 DU        1 EB1      0.113000
     59 H192       -3.0240    4.2880   -6.6890 ha        1 EB1      0.134000
     60 H20         0.3500   -0.9530    2.0500 hc        1 EB1      0.092000
     61 H211        1.2480   -3.2370    0.7640 hc        1 EB1      0.076000
     62 H212       -0.2510   -2.7140    0.8130 hc        1 EB1      0.076000
     63 H213        0.4410   -3.2620    2.1420 hc        1 EB1      0.076000
     64 H22         3.0980   -1.6820    2.0530 ha        1 EB1      0.119000
     65 H23         2.8410   -1.4470    4.4130 ha        1 EB1      0.145000
     66 H24        -0.1830   -1.2490    3.9080 ha        1 EB1      0.120000
     67 H25        -0.3900   -0.6610    6.2430 ha        1 EB1      0.120000
     68 HO1        -4.5800    2.7320   -8.8070 ho        1 EB1      0.198000
     69 H261        2.1340   -2.7260    6.6360 hc        1 EB1      0.085000
     70 H262        3.0920   -2.0150    7.6800 hc        1 EB1      0.085000
     71 H281        0.5980    0.1480    8.1940 hc        1 EB1      0.085000
     72 H282        2.1500    0.1500    8.5780 hc        1 EB1      0.085000
     73 HO3         3.5700   -0.0190    6.4750 ho        1 EB1      0.196000
     74 H301        1.4830    2.3450    8.0890 hc        1 EB1      0.076667
     75 H302        2.5510    1.8650    6.9860 hc        1 EB1      0.076667
     76 H303        0.9760    1.8800    6.6460 hc        1 EB1      0.076667
     77 H311        1.3750   -3.3540    8.7280 hc        1 EB1      0.076667
     78 H312        0.3030   -2.3080    8.1300 hc        1 EB1      0.076667
     79 H313        1.3730   -1.8130    9.2070 hc        1 EB1      0.076667
@<TRIPOS>BOND
     1    1    4 1   
     2    1   34 1   
     3    2    3 1   
     4    2   11 1   
     5    2   28 1   
     6    2   35 1   
     7    3    4 1   
     8    3   36 1   
     9    3   37 1   
    10    4    5 1   
    11    4   38 1   
    12    5    6 1   
    13    5   39 1   
    14    5   40 1   
    15    6    7 1   
    16    6   11 1   
    17    7   41 1   
    18    8    9 1   
    19    8   42 1   
    20    9   15 1   
    21   10   12 1   
    22   10   43 1   
    23   10   44 1   
    24   11   20 1   
    25   12   13 1   
    26   12   45 1   
    27   12   46 1   
    28   13   14 1   
    29   13   47 1   
    30   13   48 1   
    31   14   15 1   
    32   14   18 1   
    33   14   19 1   
    34   15   16 1   
    35   15   49 1   
    36   16   17 1   
    37   16   50 1   
    38   16   51 1   
    39   17   18 1   
    40   17   52 1   
    41   17   53 1   
    42   18   21 1   
    43   18   54 1   
    44   19   55 1   
    45   19   56 1   
    46   19   57 1   
    47   20   59 1   
    48   21   22 1   
    49   21   23 1   
    50   21   60 1   
    51   22   61 1   
    52   22   62 1   
    53   22   63 1   
    54   23   24 1   
    55   23   64 1   
    56   24   65 1   
    57   25   26 1   
    58   25   66 1   
    59   26   67 1   
    60   27   29 1   
    61   27   30 1   
    62   27   31 1   
    63   28   68 1   
    64   29   33 1   
    65   29   69 1   
    66   29   70 1   
    67   30   32 1   
    68   30   71 1   
    69   30   72 1   
    70   31   73 1   
    71   32   74 1   
    72   32   75 1   
    73   32   76 1   
    74   33   77 1   
    75   33   78 1   
    76   33   79 1   
@<TRIPOS>SUBSTRUCTURE
     1 EB1         1 TEMP              0 ****  ****    0 ROOT
