@<TRIPOS>MOLECULE
EB1
   79    81     1     0     0
SMALL
bcc


@<TRIPOS>ATOM
      1 O2         -0.7200    0.6580   -0.1630 oh        1 EB1     -0.597800
      2 C1          1.7580    2.4520    0.0770 c3        1 EB1      0.182300
      3 C2          1.5890    1.1650   -0.7280 c3        1 EB1     -0.144400
      4 C3          0.6180    0.2000   -0.0610 c3        1 EB1      0.150100
      5 C4          1.0150   -0.0700    1.3880 c3        1 EB1     -0.075200
      6 C5          1.2640    1.1810    2.1630 ce        1 EB1     -0.093200
      7 C6          0.7330    1.3410    3.3930 cf        1 EB1     -0.110000
      8 C7          0.8980    2.5150    4.2170 cf        1 EB1     -0.156000
      9 C8          0.6860    2.5770    5.5430 c2        1 EB1     -0.073400
     10 C9          0.2390    1.4310    6.3920 c3        1 EB1     -0.046200
     11 C10         2.1280    2.1640    1.5060 ce        1 EB1     -0.097200
     12 C11         1.0040    1.3000    7.6990 c3        1 EB1     -0.072400
     13 C12         1.2130    2.6110    8.4370 c3        1 EB1     -0.067400
     14 C13         1.8030    3.6620    7.5080 c3        1 EB1     -0.041000
     15 C14         0.8040    3.8320    6.3300 c3        1 EB1     -0.037500
     16 C15         1.2280    5.1390    5.6750 c3        1 EB1     -0.073400
     17 C16         1.7180    6.0050    6.8360 c3        1 EB1     -0.079400
     18 C17         1.8480    5.0980    8.0760 c3        1 EB1     -0.050700
     19 C18         3.1720    3.2300    7.0120 c3        1 EB1     -0.083100
     20 C19         3.1580    2.7610    2.1170 c2        1 EB1     -0.173000
     21 C20         3.0750    5.4690    8.9060 c3        1 EB1     -0.029500
     22 C21         3.1640    4.6550   10.1850 c3        1 EB1     -0.087100
     23 C22         3.0120    6.9170    9.2640 c2        1 EB1     -0.156200
     24 C23         3.8630    7.8800    8.8860 ce        1 EB1     -0.140000
     25 C24         5.0020    7.7110    8.0080 ce        1 EB1     -0.105000
     26 C25         6.0150    8.5740    7.8580 c2        1 EB1     -0.156200
     27 C27         6.2170    9.8780    8.5730 c3        1 EB1      0.188000
     28 O1          2.7720    3.2690   -0.5010 oh        1 EB1     -0.597800
     29 C26         7.3170   10.7090    7.8920 c3        1 EB1     -0.104900
     30 C28         6.5840    9.6340   10.0480 c3        1 EB1     -0.104900
     31 O3          4.9790   10.5950    8.5310 oh        1 EB1     -0.594800
     32 C30         7.8680    8.8710   10.2270 c3        1 EB1     -0.091100
     33 C31         6.9260   11.1600    6.5090 c3        1 EB1     -0.091100
     34 HO2        -0.8030    1.4310    0.4080 ho        1 EB1      0.403000
     35 H1          0.7850    3.0270    0.0700 h1        1 EB1      0.038700
     36 H21         2.5860    0.6660   -0.8380 hc        1 EB1      0.060200
     37 H22A        1.2110    1.4180   -1.7520 hc        1 EB1      0.060200
     38 H3          0.6060   -0.7730   -0.6340 h1        1 EB1      0.074700
     39 H41         0.2050   -0.6790    1.8710 hc        1 EB1      0.061200
     40 H42         1.9550   -0.6850    1.3900 hc        1 EB1      0.061200
     41 H6          0.0990    0.5360    3.8070 ha        1 EB1      0.124000
     42 H7          1.2190    3.4270    3.6780 ha        1 EB1      0.134000
     43 H91        -0.8520    1.5820    6.6200 hc        1 EB1      0.047200
     44 H92         0.3320    0.4610    5.8360 hc        1 EB1      0.047200
     45 H111        2.0050    0.8360    7.4910 hc        1 EB1      0.040700
     46 H112        0.4460    0.5920    8.3680 hc        1 EB1      0.040700
     47 H121        1.8930    2.4380    9.3100 hc        1 EB1      0.042200
     48 H122        0.2340    2.9780    8.8420 hc        1 EB1      0.042200
     49 H14        -0.2200    4.0120    6.7810 hc        1 EB1      0.055700
     50 H151        0.3770    5.6180    5.1330 hc        1 EB1      0.045200
     51 H152        2.0530    4.9710    4.9380 hc        1 EB1      0.045200
     52 H161        0.9970    6.8330    7.0460 hc        1 EB1      0.047700
     53 H162        2.7040    6.4720    6.5870 hc        1 EB1      0.047700
     54 H17         0.9400    5.2380    8.7250 hc        1 EB1      0.046700
     55 H181        3.0840    2.3400    6.3420 hc        1 EB1      0.037033
     56 H182        3.6520    4.0550    6.4310 hc        1 EB1      0.037033
     57 H183        3.8310    2.9640    7.8730 hc        1 EB1      0.037033
     58 H191        3.4170    2.5500    3.1640 ha        1 EB1      0.127000
     59 H192        3.7990    3.4860    1.5980 ha        1 EB1      0.127000
     60 H20         4.0000    5.2640    8.2970 hc        1 EB1      0.055700
     61 H211        2.1770    4.6280   10.7070 hc        1 EB1      0.035700
     62 H212        3.4770    3.6080    9.9580 hc        1 EB1      0.035700
     63 H213        3.9180    5.1040   10.8760 hc        1 EB1      0.035700
     64 H22         2.1650    7.1750    9.9240 ha        1 EB1      0.118000
     65 H23         3.7030    8.9140    9.2500 ha        1 EB1      0.146000
     66 H24         5.0140    6.7830    7.4060 ha        1 EB1      0.119000
     67 H25         6.8270    8.3320    7.1500 ha        1 EB1      0.123000
     68 HO1         2.5240    3.3970   -1.4250 ho        1 EB1      0.403000
     69 H261        8.2530   10.0950    7.8440 hc        1 EB1      0.045950
     70 H262        7.5340   11.6050    8.5320 hc        1 EB1      0.045950
     71 H281        6.6560   10.6260   10.5670 hc        1 EB1      0.045950
     72 H282        5.7350    9.0690   10.5190 hc        1 EB1      0.045950
     73 HO3         5.1510   11.4640    8.9110 ho        1 EB1      0.397000
     74 H301        8.7470    9.4880    9.9200 hc        1 EB1      0.037533
     75 H302        7.9980    8.5880   11.3000 hc        1 EB1      0.037533
     76 H303        7.8610    7.9370    9.6130 hc        1 EB1      0.037533
     77 H311        5.9710   11.7390    6.5420 hc        1 EB1      0.037533
     78 H312        7.7250   11.8070    6.0740 hc        1 EB1      0.037533
     79 H313        6.7740   10.2810    5.8370 hc        1 EB1      0.037533
@<TRIPOS>BOND
     1    1    4 1   
     2    1   34 1   
     3    2    3 1   
     4    2   11 1   
     5    2   28 1   
     6    2   35 1   
     7    3    4 1   
     8    3   36 1   
     9    3   37 1   
    10    4    5 1   
    11    4   38 1   
    12    5    6 1   
    13    5   39 1   
    14    5   40 1   
    15    6    7 2   
    16    6   11 1   
    17    7    8 1   
    18    7   41 1   
    19    8    9 2   
    20    8   42 1   
    21    9   10 1   
    22    9   15 1   
    23   10   12 1   
    24   10   43 1   
    25   10   44 1   
    26   11   20 2   
    27   12   13 1   
    28   12   45 1   
    29   12   46 1   
    30   13   14 1   
    31   13   47 1   
    32   13   48 1   
    33   14   15 1   
    34   14   18 1   
    35   14   19 1   
    36   15   16 1   
    37   15   49 1   
    38   16   17 1   
    39   16   50 1   
    40   16   51 1   
    41   17   18 1   
    42   17   52 1   
    43   17   53 1   
    44   18   21 1   
    45   18   54 1   
    46   19   55 1   
    47   19   56 1   
    48   19   57 1   
    49   20   58 1   
    50   20   59 1   
    51   21   22 1   
    52   21   23 1   
    53   21   60 1   
    54   22   61 1   
    55   22   62 1   
    56   22   63 1   
    57   23   24 2   
    58   23   64 1   
    59   24   25 1   
    60   24   65 1   
    61   25   26 2   
    62   25   66 1   
    63   26   27 1   
    64   26   67 1   
    65   27   29 1   
    66   27   30 1   
    67   27   31 1   
    68   28   68 1   
    69   29   33 1   
    70   29   69 1   
    71   29   70 1   
    72   30   32 1   
    73   30   71 1   
    74   30   72 1   
    75   31   73 1   
    76   32   74 1   
    77   32   75 1   
    78   32   76 1   
    79   33   77 1   
    80   33   78 1   
    81   33   79 1   
@<TRIPOS>SUBSTRUCTURE
     1 EB1         1 TEMP              0 ****  ****    0 ROOT
