@<TRIPOS>MOLECULE
EB1
   79    81     1     0     0
SMALL
bcc


@<TRIPOS>ATOM
      1 O2         16.3310   17.8290   33.8610 oh        1 EB1     -0.598800
      2 C1         13.7220   18.1660   35.1870 c3        1 EB1      0.179300
      3 C2         14.1280   17.0440   34.2350 c3        1 EB1     -0.066400
      4 C3         15.1070   17.5590   33.1880 c3        1 EB1      0.146100
      5 C4         14.5600   18.7810   32.4510 c3        1 EB1     -0.074200
      6 C5         14.0060   19.8290   33.3580 ce        1 EB1     -0.071200
      7 C6         14.2890   21.1310   33.1520 cf        1 EB1     -0.116000
      8 C7         13.8130   22.2190   33.9740 cf        1 EB1     -0.150000
      9 C8         13.7880   23.5160   33.6220 c2        1 EB1     -0.077400
     10 C9         14.2550   24.0560   32.3080 c3        1 EB1     -0.044200
     11 C10        13.1400   19.3300   34.4280 ce        1 EB1     -0.112200
     12 C11        13.3110   25.0740   31.6850 c3        1 EB1     -0.072400
     13 C12        12.7790   26.1120   32.6580 c3        1 EB1     -0.065400
     14 C13        12.2100   25.4390   33.8960 c3        1 EB1     -0.044000
     15 C14        13.3500   24.6020   34.5370 c3        1 EB1     -0.036500
     16 C15        12.8370   24.3040   35.9400 c3        1 EB1     -0.072400
     17 C16        12.0170   25.5400   36.3250 c3        1 EB1     -0.076400
     18 C17        11.8620   26.3960   35.0570 c3        1 EB1     -0.051700
     19 C18        11.0230   24.5690   33.5270 c3        1 EB1     -0.083100
     20 C19        11.9380   19.8510   34.6960 c2        1 EB1     -0.204000
     21 C20        10.5520   27.1630   34.9260 c3        1 EB1     -0.025500
     22 C21        10.5180   28.2820   35.9590 c3        1 EB1     -0.089100
     23 C22         9.3110   26.3510   35.0620 c2        1 EB1     -0.142200
     24 C23         8.2650   26.4730   34.2320 ce        1 EB1     -0.146000
     25 C24         7.0380   25.7190   34.3930 ce        1 EB1     -0.136000
     26 C25         5.9970   25.8500   33.5610 c2        1 EB1     -0.140200
     27 C27         4.7100   25.0850   33.6600 c3        1 EB1      0.185000
     28 O1         12.8060   17.5940   36.1110 oh        1 EB1     -0.596800
     29 C26         4.2090   24.9200   35.1000 c3        1 EB1     -0.100900
     30 C28         4.8360   23.7130   32.9720 c3        1 EB1     -0.100900
     31 O3          3.7670   25.8600   32.9040 oh        1 EB1     -0.600800
     32 C30         5.7270   22.7390   33.6930 c3        1 EB1     -0.094100
     33 C31         3.8720   26.2370   35.7480 c3        1 EB1     -0.094100
     34 HO2        16.8890   18.3230   33.2490 ho        1 EB1      0.401000
     35 H1         14.6390   18.5270   35.7400 h1        1 EB1      0.060700
     36 H21        14.6050   16.2220   34.8270 hc        1 EB1      0.066700
     37 H22A       13.2220   16.6330   33.7230 hc        1 EB1      0.066700
     38 H3         15.2980   16.7440   32.4290 h1        1 EB1      0.034700
     39 H41        15.3710   19.2110   31.8050 hc        1 EB1      0.054200
     40 H42        13.7350   18.4350   31.7700 hc        1 EB1      0.054200
     41 H6         14.9540   21.4060   32.3130 ha        1 EB1      0.121000
     42 H7         13.4540   21.9260   34.9790 ha        1 EB1      0.131000
     43 H91        15.2560   24.5420   32.4770 hc        1 EB1      0.046700
     44 H92        14.4080   23.2270   31.5680 hc        1 EB1      0.046700
     45 H111       13.8540   25.5990   30.8550 hc        1 EB1      0.041700
     46 H112       12.4440   24.5320   31.2220 hc        1 EB1      0.041700
     47 H121       13.6040   26.8110   32.9540 hc        1 EB1      0.041200
     48 H122       11.9840   26.7210   32.1540 hc        1 EB1      0.041200
     49 H14        14.2460   25.2850   34.6560 hc        1 EB1      0.054700
     50 H151       12.1900   23.3910   35.9460 hc        1 EB1      0.045200
     51 H152       13.6790   24.1330   36.6530 hc        1 EB1      0.045200
     52 H161       11.0260   25.2320   36.7370 hc        1 EB1      0.042200
     53 H162       12.5390   26.1300   37.1180 hc        1 EB1      0.042200
     54 H17        12.6750   27.1810   35.0790 hc        1 EB1      0.044700
     55 H181       10.5320   24.1720   34.4490 hc        1 EB1      0.039367
     56 H182       10.2720   25.1660   32.9550 hc        1 EB1      0.039367
     57 H183       11.3480   23.7020   32.9030 hc        1 EB1      0.039367
     58 H191       11.2830   19.4450   35.4770 ha        1 EB1      0.121000
     59 H192       11.5330   20.7040   34.1350 ha        1 EB1      0.121000
     60 H20        10.5620   27.6350   33.8990 hc        1 EB1      0.051700
     61 H211        9.5650   28.8570   35.8750 hc        1 EB1      0.037033
     62 H212       10.5920   27.8590   36.9900 hc        1 EB1      0.037033
     63 H213       11.3730   28.9830   35.8000 hc        1 EB1      0.037033
     64 H22         9.2730   25.6590   35.9190 ha        1 EB1      0.123000
     65 H23         8.3010   27.1680   33.3750 ha        1 EB1      0.124000
     66 H24         7.0050   25.0230   35.2490 ha        1 EB1      0.122000
     67 H25         6.0240   26.5560   32.7120 ha        1 EB1      0.142000
     68 HO1        12.6420   18.2620   36.7870 ho        1 EB1      0.400000
     69 H261        3.3000   24.2620   35.0860 hc        1 EB1      0.045700
     70 H262        4.9950   24.3910   35.6990 hc        1 EB1      0.045700
     71 H281        3.8070   23.2770   32.8730 hc        1 EB1      0.045700
     72 H282        5.2250   23.8870   31.9330 hc        1 EB1      0.045700
     73 HO3         2.9060   25.4440   33.0240 ho        1 EB1      0.399000
     74 H301        5.8640   21.8190   33.0740 hc        1 EB1      0.038533
     75 H302        6.7320   23.1890   33.8860 hc        1 EB1      0.038533
     76 H303        5.2810   22.4380   34.6720 hc        1 EB1      0.038533
     77 H311        3.4680   26.0700   36.7750 hc        1 EB1      0.038533
     78 H312        4.7830   26.8790   35.8200 hc        1 EB1      0.038533
     79 H313        3.1070   26.7850   35.1450 hc        1 EB1      0.038533
@<TRIPOS>BOND
     1    1    4 1   
     2    1   34 1   
     3    2    3 1   
     4    2   11 1   
     5    2   28 1   
     6    2   35 1   
     7    3    4 1   
     8    3   36 1   
     9    3   37 1   
    10    4    5 1   
    11    4   38 1   
    12    5    6 1   
    13    5   39 1   
    14    5   40 1   
    15    6    7 2   
    16    6   11 1   
    17    7    8 1   
    18    7   41 1   
    19    8    9 2   
    20    8   42 1   
    21    9   10 1   
    22    9   15 1   
    23   10   12 1   
    24   10   43 1   
    25   10   44 1   
    26   11   20 2   
    27   12   13 1   
    28   12   45 1   
    29   12   46 1   
    30   13   14 1   
    31   13   47 1   
    32   13   48 1   
    33   14   15 1   
    34   14   18 1   
    35   14   19 1   
    36   15   16 1   
    37   15   49 1   
    38   16   17 1   
    39   16   50 1   
    40   16   51 1   
    41   17   18 1   
    42   17   52 1   
    43   17   53 1   
    44   18   21 1   
    45   18   54 1   
    46   19   55 1   
    47   19   56 1   
    48   19   57 1   
    49   20   58 1   
    50   20   59 1   
    51   21   22 1   
    52   21   23 1   
    53   21   60 1   
    54   22   61 1   
    55   22   62 1   
    56   22   63 1   
    57   23   24 2   
    58   23   64 1   
    59   24   25 1   
    60   24   65 1   
    61   25   26 2   
    62   25   66 1   
    63   26   27 1   
    64   26   67 1   
    65   27   29 1   
    66   27   30 1   
    67   27   31 1   
    68   28   68 1   
    69   29   33 1   
    70   29   69 1   
    71   29   70 1   
    72   30   32 1   
    73   30   71 1   
    74   30   72 1   
    75   31   73 1   
    76   32   74 1   
    77   32   75 1   
    78   32   76 1   
    79   33   77 1   
    80   33   78 1   
    81   33   79 1   
@<TRIPOS>SUBSTRUCTURE
     1 EB1         1 TEMP              0 ****  ****    0 ROOT
