@<TRIPOS>MOLECULE
EB1
   79    81     1     0     0
SMALL
bcc


@<TRIPOS>ATOM
      1 O2         -0.6430    0.6210   -0.1770 oh        1 EB1     -0.594800
      2 C1          1.7780    2.4090    0.1340 c3        1 EB1      0.184300
      3 C2          1.7060    1.1010   -0.6490 c3        1 EB1     -0.143400
      4 C3          0.6910    0.1460   -0.0360 c3        1 EB1      0.150100
      5 C4          0.9360   -0.0710    1.4560 c3        1 EB1     -0.034200
      6 C5          1.2040    1.1830    2.2190 ce        1 EB1     -0.072200
      7 C6          0.6510    1.3640    3.4360 cf        1 EB1     -0.113000
      8 C7          0.8290    2.5390    4.2580 cf        1 EB1     -0.147000
      9 C8          0.6440    2.5980    5.5880 c2        1 EB1     -0.082400
     10 C9          0.2230    1.4460    6.4430 c3        1 EB1     -0.044200
     11 C10         2.1010    2.1470    1.5790 ce        1 EB1     -0.089200
     12 C11         1.0220    1.3120    7.7290 c3        1 EB1     -0.072400
     13 C12         1.2420    2.6210    8.4670 c3        1 EB1     -0.066400
     14 C13         1.8020    3.6800    7.5300 c3        1 EB1     -0.042000
     15 C14         0.7730    3.8500    6.3770 c3        1 EB1     -0.035500
     16 C15         1.1740    5.1620    5.7180 c3        1 EB1     -0.073400
     17 C16         1.6870    6.0260    6.8710 c3        1 EB1     -0.079400
     18 C17         1.8530    5.1140    8.1030 c3        1 EB1     -0.050700
     19 C18         3.1610    3.2590    6.9970 c3        1 EB1     -0.082100
     20 C19         3.1130    2.7480    2.2140 c2        1 EB1     -0.180000
     21 C20         3.0980    5.4880    8.9040 c3        1 EB1     -0.030500
     22 C21         3.2230    4.6680   10.1770 c3        1 EB1     -0.087100
     23 C22         3.0360    6.9340    9.2710 c2        1 EB1     -0.155200
     24 C23         3.8740    7.9030    8.8800 ce        1 EB1     -0.141000
     25 C24         4.9940    7.7440    7.9760 ce        1 EB1     -0.104000
     26 C25         6.0050    8.6070    7.8150 c2        1 EB1     -0.157200
     27 C27         6.2240    9.9020    8.5420 c3        1 EB1      0.188000
     28 O1          2.7780    3.2600   -0.4160 oh        1 EB1     -0.597800
     29 C26         7.3120   10.7390    7.8500 c3        1 EB1     -0.104900
     30 C28         6.6180    9.6390   10.0070 c3        1 EB1     -0.104900
     31 O3          4.9860   10.6220    8.5320 oh        1 EB1     -0.594800
     32 C30         7.9030    8.8710   10.1510 c3        1 EB1     -0.091100
     33 C31         6.8960   11.2080    6.4810 c3        1 EB1     -0.091100
     34 HO2        -0.7690    0.8270   -1.1110 ho        1 EB1      0.396000
     35 H1          0.7750    2.9290    0.0810 h1        1 EB1      0.053700
     36 H21         1.4280    1.3190   -1.7120 hc        1 EB1      0.052700
     37 H22A        2.7150    0.6150   -0.6520 hc        1 EB1      0.052700
     38 H3          0.7680   -0.8500   -0.5630 h1        1 EB1      0.031700
     39 H41         1.8280   -0.7470    1.5600 hc        1 EB1      0.060200
     40 H42         0.0440   -0.6040    1.8830 hc        1 EB1      0.060200
     41 H6         -0.0170    0.5820    3.8410 ha        1 EB1      0.124000
     42 H7          1.1330    3.4530    3.7130 ha        1 EB1      0.134000
     43 H91        -0.8630    1.5910    6.6990 hc        1 EB1      0.046700
     44 H92         0.3060    0.4800    5.8780 hc        1 EB1      0.046700
     45 H111        2.0200    0.8560    7.4940 hc        1 EB1      0.039700
     46 H112        0.4850    0.5990    8.4090 hc        1 EB1      0.039700
     47 H121        0.2710    2.9810    8.8990 hc        1 EB1      0.041700
     48 H122        1.9440    2.4480    9.3230 hc        1 EB1      0.041700
     49 H14        -0.2400    4.0220    6.8550 hc        1 EB1      0.054700
     50 H151        0.3070    5.6390    5.2000 hc        1 EB1      0.045700
     51 H152        1.9810    5.0020    4.9600 hc        1 EB1      0.045700
     52 H161        2.6640    6.4990    6.5990 hc        1 EB1      0.046700
     53 H162        0.9680    6.8490    7.1020 hc        1 EB1      0.046700
     54 H17         0.9600    5.2460    8.7750 hc        1 EB1      0.046700
     55 H181        3.6230    4.0900    6.4110 hc        1 EB1      0.036700
     56 H182        3.8420    2.9900    7.8400 hc        1 EB1      0.036700
     57 H183        3.0610    2.3730    6.3230 hc        1 EB1      0.036700
     58 H191        3.3360    2.5530    3.2720 ha        1 EB1      0.126000
     59 H192        3.7750    3.4630    1.7060 ha        1 EB1      0.126000
     60 H20         4.0090    5.2920    8.2710 hc        1 EB1      0.055700
     61 H211        3.9920    5.1190   10.8510 hc        1 EB1      0.035367
     62 H212        2.2500    4.6330   10.7230 hc        1 EB1      0.035367
     63 H213        3.5370    3.6240    9.9370 hc        1 EB1      0.035367
     64 H22         2.2030    7.1850    9.9500 ha        1 EB1      0.118000
     65 H23         3.7170    8.9340    9.2530 ha        1 EB1      0.146000
     66 H24         4.9910    6.8230    7.3620 ha        1 EB1      0.119000
     67 H25         6.8000    8.3740    7.0860 ha        1 EB1      0.123000
     68 HO1         2.5110    3.4410   -1.3240 ho        1 EB1      0.399000
     69 H261        7.5440   11.6250    8.4980 hc        1 EB1      0.045950
     70 H262        8.2460   10.1230    7.7760 hc        1 EB1      0.045950
     71 H281        6.7010   10.6230   10.5370 hc        1 EB1      0.045950
     72 H282        5.7770    9.0690   10.4860 hc        1 EB1      0.045950
     73 HO3         5.1680   11.4860    8.9210 ho        1 EB1      0.397000
     74 H301        8.0530    8.5740   11.2180 hc        1 EB1      0.037367
     75 H302        8.7780    9.4900    9.8350 hc        1 EB1      0.037367
     76 H303        7.8830    7.9450    9.5260 hc        1 EB1      0.037367
     77 H311        7.6880   11.8600    6.0390 hc        1 EB1      0.037367
     78 H312        6.7280   10.3390    5.8000 hc        1 EB1      0.037367
     79 H313        5.9440   11.7900    6.5400 hc        1 EB1      0.037367
@<TRIPOS>BOND
     1    1    4 1   
     2    1   34 1   
     3    2    3 1   
     4    2   11 1   
     5    2   28 1   
     6    2   35 1   
     7    3    4 1   
     8    3   36 1   
     9    3   37 1   
    10    4    5 1   
    11    4   38 1   
    12    5    6 1   
    13    5   39 1   
    14    5   40 1   
    15    6    7 2   
    16    6   11 1   
    17    7    8 1   
    18    7   41 1   
    19    8    9 2   
    20    8   42 1   
    21    9   10 1   
    22    9   15 1   
    23   10   12 1   
    24   10   43 1   
    25   10   44 1   
    26   11   20 2   
    27   12   13 1   
    28   12   45 1   
    29   12   46 1   
    30   13   14 1   
    31   13   47 1   
    32   13   48 1   
    33   14   15 1   
    34   14   18 1   
    35   14   19 1   
    36   15   16 1   
    37   15   49 1   
    38   16   17 1   
    39   16   50 1   
    40   16   51 1   
    41   17   18 1   
    42   17   52 1   
    43   17   53 1   
    44   18   21 1   
    45   18   54 1   
    46   19   55 1   
    47   19   56 1   
    48   19   57 1   
    49   20   58 1   
    50   20   59 1   
    51   21   22 1   
    52   21   23 1   
    53   21   60 1   
    54   22   61 1   
    55   22   62 1   
    56   22   63 1   
    57   23   24 2   
    58   23   64 1   
    59   24   25 1   
    60   24   65 1   
    61   25   26 2   
    62   25   66 1   
    63   26   27 1   
    64   26   67 1   
    65   27   29 1   
    66   27   30 1   
    67   27   31 1   
    68   28   68 1   
    69   29   33 1   
    70   29   69 1   
    71   29   70 1   
    72   30   32 1   
    73   30   71 1   
    74   30   72 1   
    75   31   73 1   
    76   32   74 1   
    77   32   75 1   
    78   32   76 1   
    79   33   77 1   
    80   33   78 1   
    81   33   79 1   
@<TRIPOS>SUBSTRUCTURE
     1 EB1         1 TEMP              0 ****  ****    0 ROOT
