@<TRIPOS>MOLECULE
EB4
   75    78     1     0     0
SMALL
bcc


@<TRIPOS>ATOM
      1 O6          3.6790   -4.4900    3.7970 oh        1 EB4     -0.491100
      2 O4         -5.5690   -0.8520    4.0460 oh        1 EB4     -0.491100
      3 O5          2.2030    5.3430    3.8350 oh        1 EB4     -0.491100
      4 N1         -2.7150    0.8720   -1.0110 n         1 EB4     -0.550900
      5 C5          2.3780    4.1900    3.1100 ca        1 EB4      0.100100
      6 C4         -4.6870   -0.1080    3.3020 ca        1 EB4      0.100100
      7 C1         -4.7700   -0.0280    1.8880 ca        1 EB4      0.109100
      8 C2          2.4310    4.1890    1.6930 ca        1 EB4      0.109100
      9 C6          2.5660   -4.0810    3.1060 ca        1 EB4      0.100100
     10 C8          2.4930    2.9930    3.8210 ca        1 EB4     -0.113000
     11 N2          2.0680    1.8910   -1.1400 n         1 EB4     -0.550900
     12 C9          1.5000   -3.5650    3.8480 ca        1 EB4     -0.113000
     13 C10        -2.7570    1.3360    3.2680 ca        1 EB4     -0.135000
     14 N3          0.5590   -2.7620   -1.0990 n         1 EB4     -0.550900
     15 C16        -3.8200    0.7190    1.1750 ca        1 EB4     -0.189600
     16 C7         -3.6790    0.5740    3.9880 ca        1 EB4     -0.113000
     17 C3          2.4810   -4.1600    1.6920 ca        1 EB4      0.109100
     18 C11         2.6640    1.7970    3.1220 ca        1 EB4     -0.135000
     19 O2          2.2950    5.4230    1.1080 oh        1 EB4     -0.523100
     20 C12         0.3510   -3.1310    3.1850 ca        1 EB4     -0.135000
     21 C15         0.2640   -3.1940    1.7990 ca        1 EB4     -0.111000
     22 C14         2.7060    1.7850    1.7330 ca        1 EB4     -0.111000
     23 C13        -2.8240    1.4100    1.8820 ca        1 EB4     -0.111000
     24 O7         -4.9980    0.7920   -0.9110 o         1 EB4     -0.625100
     25 C19        -3.9020    0.7950   -0.3070 c         1 EB4      0.689700
     26 C22        -2.6700    0.9150   -2.4420 c3        1 EB4      0.064700
     27 C25        -2.2900   -0.4050   -3.1140 c         1 EB4      0.614100
     28 O10        -2.6670   -0.7850   -4.2210 o         1 EB4     -0.517000
     29 O15        -1.4330   -1.1960   -2.4010 os        1 EB4     -0.443900
     30 C30        -0.9990   -2.4200   -3.0090 c3        1 EB4      0.119400
     31 C24         0.4410   -2.7120   -2.5260 c3        1 EB4      0.064700
     32 C18         1.3310   -3.6940    1.0370 ca        1 EB4     -0.189600
     33 O9          1.7710   -4.7020   -1.0930 o         1 EB4     -0.625100
     34 C27         1.3670   -1.7070   -3.2130 c         1 EB4      0.614100
     35 O12         1.8400   -1.8180   -4.3420 o         1 EB4     -0.517000
     36 C28        -1.7180    2.0050   -2.9890 c3        1 EB4      0.119400
     37 O13        -0.4180    1.7820   -2.4290 os        1 EB4     -0.443900
     38 C26         0.6660    2.1120   -3.1940 c         1 EB4      0.614100
     39 O11         0.4810    2.6020   -4.3060 o         1 EB4     -0.517000
     40 C23         2.0260    1.7960   -2.5690 c3        1 EB4      0.064700
     41 C29         2.4720    0.4150   -3.1020 c3        1 EB4      0.119400
     42 O14         1.6530   -0.5860   -2.4840 os        1 EB4     -0.443900
     43 O8          3.1420    3.9100   -1.1310 o         1 EB4     -0.625100
     44 C17         2.5760    2.9760    1.0030 ca        1 EB4     -0.189600
     45 HO6         4.2910   -4.9060    3.1670 ho        1 EB4      0.443000
     46 HO4        -6.2590   -1.1890    3.4520 ho        1 EB4      0.443000
     47 HO5         2.2320    6.0950    3.2210 ho        1 EB4      0.443000
     48 HN1        -1.8460    0.7700   -0.5390 hn        1 EB4      0.333500
     49 HN2         1.5660    1.2010   -0.6310 hn        1 EB4      0.333500
     50 H9          1.5780   -3.5180    4.9440 ha        1 EB4      0.159000
     51 H10        -1.9740    1.8880    3.8090 ha        1 EB4      0.146000
     52 HO3         3.3520   -4.9890    0.1860 ho        1 EB4      0.468000
     53 HN3         0.2330   -1.9710   -0.5950 hn        1 EB4      0.333500
     54 H7         -3.6330    0.5080    5.0850 ha        1 EB4      0.159000
     55 H11         2.7730    0.8550    3.6810 ha        1 EB4      0.146000
     56 HO1        -5.9830   -0.4040    0.4380 ho        1 EB4      0.468000
     57 HO2         2.6530    5.3930    0.2040 ho        1 EB4      0.468000
     58 H12        -0.4960   -2.7420    3.7690 ha        1 EB4      0.146000
     59 H15        -0.6640   -2.8670    1.3060 ha        1 EB4      0.141000
     60 H14         2.8660    0.8290    1.2110 ha        1 EB4      0.141000
     61 H13        -2.0980    2.0390    1.3440 ha        1 EB4      0.141000
     62 H22        -3.7120    1.1620   -2.8310 h1        1 EB4      0.135700
     63 H30        -1.6980   -3.2280   -2.6670 h1        1 EB4      0.087200
     64 H30A       -1.0100   -2.3440   -4.1280 h1        1 EB4      0.087200
     65 H24         0.7320   -3.7280   -2.9500 h1        1 EB4      0.135700
     66 H28        -1.6920    1.9500   -4.1100 h1        1 EB4      0.087200
     67 H28A       -2.0550    3.0220   -2.6580 h1        1 EB4      0.087200
     68 H23         2.7430    2.5660   -3.0050 h1        1 EB4      0.135700
     69 H29         2.3660    0.3940   -4.2200 h1        1 EB4      0.087200
     70 H29A        3.5340    0.2060   -2.8080 h1        1 EB4      0.087200
     71 O3          3.5930   -4.6730    1.0750 oh        1 EB4     -0.523100
     72 C21         1.2460   -3.7690   -0.4460 c         1 EB4      0.689700
     73 C20         2.6230    2.9740   -0.4830 c         1 EB4      0.689700
     74 O1         -5.7940   -0.7500    1.3280 oh        1 EB4     -0.523100
     75 H8          2.4570    3.0120    4.9200 ha        1 EB4      0.159000
@<TRIPOS>BOND
     1    1    9 1   
     2    1   45 1   
     3    2    6 1   
     4    2   46 1   
     5    3    5 1   
     6    3   47 1   
     7    4   25 1   
     8    4   26 1   
     9    4   48 1   
    10    5    8 ar  
    11    5   10 ar  
    12    6    7 ar  
    13    6   16 ar  
    14    7   15 ar  
    15    7   74 1   
    16    8   19 1   
    17    8   44 ar  
    18    9   12 ar  
    19    9   17 ar  
    20   10   18 ar  
    21   10   75 1   
    22   11   40 1   
    23   11   49 1   
    24   11   73 1   
    25   12   20 ar  
    26   12   50 1   
    27   13   16 ar  
    28   13   23 ar  
    29   13   51 1   
    30   14   31 1   
    31   14   53 1   
    32   14   72 1   
    33   15   23 ar  
    34   15   25 1   
    35   16   54 1   
    36   17   32 ar  
    37   17   71 1   
    38   18   22 ar  
    39   18   55 1   
    40   19   57 1   
    41   20   21 ar  
    42   20   58 1   
    43   21   32 ar  
    44   21   59 1   
    45   22   44 ar  
    46   22   60 1   
    47   23   61 1   
    48   24   25 2   
    49   26   27 1   
    50   26   36 1   
    51   26   62 1   
    52   27   28 2   
    53   27   29 1   
    54   29   30 1   
    55   30   31 1   
    56   30   63 1   
    57   30   64 1   
    58   31   34 1   
    59   31   65 1   
    60   32   72 1   
    61   33   72 2   
    62   34   35 2   
    63   34   42 1   
    64   36   37 1   
    65   36   66 1   
    66   36   67 1   
    67   37   38 1   
    68   38   39 2   
    69   38   40 1   
    70   40   41 1   
    71   40   68 1   
    72   41   42 1   
    73   41   69 1   
    74   41   70 1   
    75   43   73 2   
    76   44   73 1   
    77   52   71 1   
    78   56   74 1   
@<TRIPOS>SUBSTRUCTURE
     1 EB4         1 TEMP              0 ****  ****    0 ROOT
