@<TRIPOS>MOLECULE
EB4
   75    72     1     0     0
SMALL
bcc


@<TRIPOS>ATOM
      1 O6         -4.1410    6.5580   -0.9720 oh        1 EB4     -0.246000
      2 O4          3.5520    0.6920    7.0040 oh        1 EB4     -0.270000
      3 O5         -4.8120   -5.0480    2.8490 oh        1 EB4     -0.247000
      4 N1          2.9380   -0.4730    0.9000 n3        1 EB4     -0.359000
      5 C5         -4.2410   -4.4830    1.6490 c2        1 EB4      0.053000
      6 C4          2.9610    0.7830    5.7010 c2        1 EB4     -0.017000
      7 C1          3.5420    0.1240    4.6270 c2        1 EB4      0.096000
      8 C2         -3.0750   -4.5960    0.8780 c2        1 EB4      0.065000
      9 C6         -3.0470    5.6660   -1.1180 c2        1 EB4      0.054000
     10 C8         -4.9070   -3.2630    1.7290 c1        1 EB4     -0.113000
     11 N2         -0.9440   -2.6450   -1.7160 n         1 EB4     -0.359000
     12 C9         -3.1510    5.2200    0.1920 c1        1 EB4     -0.114000
     13 C10         1.1210    1.4550    4.2980 c1        1 EB4     -0.138000
     14 O3         -2.4240    6.0430   -2.9630 oh        1 EB4     -0.277000
     15 N3          0.3090    2.2570   -2.4030 n         1 EB4     -0.359000
     16 C16         2.9060    0.1290    3.3760 c1        1 EB4     -0.127000
     17 C7          1.7500    1.4490    5.5350 c1        1 EB4     -0.142000
     18 C3         -2.1880    5.0240   -2.0060 c2        1 EB4      0.067000
     19 C11        -4.4150   -2.1550    1.0430 c1        1 EB4     -0.135000
     20 O1          4.8310   -0.4740    4.9380 oh        1 EB4     -0.262000
     21 O2         -2.7670   -5.9800    1.0690 oh        1 EB4     -0.277000
     22 C12        -2.3980    4.1310    0.6180 c1        1 EB4     -0.122500
     23 C15        -1.5390    3.4890   -0.2710 c1        1 EB4     -0.122500
     24 C14        -3.2510   -2.2660    0.2730 c1        1 EB4     -0.109000
     25 C13         1.7010    0.7930    3.2160 c2        1 EB4     -0.073000
     26 O7          4.6200   -1.1380    2.3470 o         1 EB4     -0.365000
     27 C19         3.5420   -0.5640    2.2070 c1        1 EB4      0.364000
     28 C22         3.5860   -1.0460   -0.2200 c3        1 EB4      0.038000
     29 C25         3.5330   -0.0740   -1.3930 c2        1 EB4      0.295000
     30 O10         4.5570    0.1930   -2.0140 o         1 EB4     -0.335000
     31 O15         2.2940    0.5920   -1.7240 os        1 EB4     -0.276000
     32 C30         2.4840    1.3610   -2.8470 c3        1 EB4     -0.031000
     33 C24         1.1610    1.7380   -3.4350 c3        1 EB4      0.039000
     34 C21        -0.5490    3.3610   -2.6830 c2        1 EB4      0.363000
     35 C18        -1.4360    3.9370   -1.5830 c1        1 EB4     -0.168000
     36 O9         -0.5550    3.8610   -3.7990 o         1 EB4     -0.389000
     37 C27         0.5140    0.5210   -4.0580 c2        1 EB4      0.287000
     38 O12         0.5570    0.3580   -5.2680 o         1 EB4     -0.332000
     39 C28         2.8980   -2.3260   -0.5950 c3        1 EB4     -0.038000
     40 O13         1.6550   -2.0260   -1.3040 os        1 EB4     -0.273000
     41 C26         1.3740   -3.0600   -2.2070 c2        1 EB4      0.285000
     42 O11         1.8220   -4.1690   -2.0170 o         1 EB4     -0.332000
     43 C23        -0.0130   -2.8950   -2.7770 c3        1 EB4      0.037000
     44 C29        -0.0280   -1.7220   -3.7540 c3        1 EB4     -0.032000
     45 O14         0.6340   -0.6040   -3.1770 os        1 EB4     -0.277000
     46 C20        -1.4960   -3.7530   -0.9600 c2        1 EB4      0.364000
     47 O8         -1.1640   -4.9010   -1.2290 o         1 EB4     -0.389000
     48 C17        -2.5830   -3.4810    0.1900 c2        1 EB4     -0.168000
     49 HO6        -3.9160    7.3670   -1.2980 ho        1 EB4      0.242000
     50 HO4         3.7180    1.5120    7.3140 ho        1 EB4      0.233000
     51 HO5        -5.1950   -5.8360    2.6560 ho        1 EB4      0.242000
     52 HN1         2.1360   -0.0450    0.7940 hn        1 EB4      0.256000
     53 H8         -5.7280   -3.1830    2.2710 ha        1 EB4      0.158000
     54 HN2        -1.1870   -1.7640   -1.5020 hn        1 EB4      0.250000
     55 H9         -3.7650    5.6800    0.8270 ha        1 EB4      0.158000
     56 H10         0.2820    1.9170    4.1870 ha        1 EB4      0.147000
     57 HO3        -2.4920    5.6810   -3.7730 ho        1 EB4      0.268000
     58 HN3         0.3690    1.9270   -1.5490 hn        1 EB4      0.249000
     59 H7          1.3450    1.9110    6.2870 ha        1 EB4      0.143000
     60 H11        -4.8980   -1.2730    1.1020 ha        1 EB4      0.145000
     61 HO1         4.7070   -1.2130    5.4470 ho        1 EB4      0.251000
     62 HO2        -3.1300   -6.4580    0.4140 ho        1 EB4      0.268000
     63 H12        -2.4700    3.8230    1.5200 ha        1 EB4      0.142000
     64 H15        -0.9970    2.7050    0.0340 ha        1 EB4      0.142000
     65 H14        -2.9100   -1.4910   -0.2040 DU        1 EB4      0.141000
     66 H13         1.2420    0.7980    2.3170 ha        1 EB4      0.166000
     67 H22         4.5070   -1.2300    0.0030 h1        1 EB4      0.176000
     68 H30         2.9980    0.8530   -3.5050 h1        1 EB4      0.124000
     69 H30A        2.9880    2.1920   -2.6020 h1        1 EB4      0.124000
     70 H24         1.2960    2.4350   -4.1340 h1        1 EB4      0.174000
     71 H28         2.6900   -2.8460    0.2320 h1        1 EB4      0.123000
     72 H28A        3.4840   -2.8540   -1.1740 h1        1 EB4      0.123000
     73 H23        -0.2750   -3.7320   -3.2580 h1        1 EB4      0.175000
     74 H29        -0.9530   -1.4810   -3.9560 h1        1 EB4      0.124000
     75 H29A        0.4370   -1.9850   -4.5940 h1        1 EB4      0.124000
@<TRIPOS>BOND
     1    1    9 1   
     2    1   49 1   
     3    2    6 1   
     4    2   50 1   
     5    3    5 1   
     6    3   51 1   
     7    4   27 1   
     8    4   28 1   
     9    4   52 1   
    10    5    8 1   
    11    5   10 1   
    12    6    7 1   
    13    6   17 1   
    14    7   16 1   
    15    7   20 1   
    16    8   21 1   
    17    8   48 1   
    18    9   12 1   
    19    9   18 1   
    20   10   53 1   
    21   11   43 1   
    22   11   46 1   
    23   11   54 1   
    24   12   55 1   
    25   13   25 1   
    26   13   56 1   
    27   14   18 1   
    28   14   57 1   
    29   15   33 1   
    30   15   34 1   
    31   15   58 1   
    32   16   25 1   
    33   17   59 1   
    34   18   35 1   
    35   19   24 1   
    36   19   60 1   
    37   20   61 1   
    38   21   62 1   
    39   22   23 1   
    40   22   63 1   
    41   23   64 1   
    42   24   48 1   
    43   25   66 1   
    44   26   27 1   
    45   28   29 1   
    46   28   39 1   
    47   28   67 1   
    48   29   30 1   
    49   29   31 1   
    50   31   32 1   
    51   32   33 1   
    52   32   68 1   
    53   32   69 1   
    54   33   37 1   
    55   33   70 1   
    56   34   35 1   
    57   34   36 1   
    58   37   38 1   
    59   37   45 1   
    60   39   40 1   
    61   39   71 1   
    62   39   72 1   
    63   40   41 1   
    64   41   42 1   
    65   41   43 1   
    66   43   44 1   
    67   43   73 1   
    68   44   45 1   
    69   44   74 1   
    70   44   75 1   
    71   46   47 1   
    72   46   48 1   
@<TRIPOS>SUBSTRUCTURE
     1 EB4         1 TEMP              0 ****  ****    0 ROOT
