@<TRIPOS>MOLECULE
EBC
   22    21     1     0     0
SMALL
bcc


@<TRIPOS>ATOM
      1 O10         2.7390   -0.5550    1.4800 o         1 EBC     -0.594100
      2 C2          2.8250    0.1950    0.4880 c         1 EBC      0.666100
      3 C1          4.0560    1.0370    0.2610 c3        1 EBC     -0.030500
      4 N3          1.8050    0.2860   -0.4370 n         1 EBC     -0.565900
      5 C4          0.5720   -0.4320   -0.2940 c3        1 EBC      0.066000
      6 C5         -0.5720    0.4320    0.3010 c3        1 EBC      0.066000
      7 N6         -1.8050   -0.2860    0.4440 n         1 EBC     -0.565900
      8 C7         -2.8240   -0.1960   -0.4820 c         1 EBC      0.666100
      9 O9         -2.7390    0.5550   -1.4740 o         1 EBC     -0.594100
     10 C8         -4.0560   -1.0370   -0.2550 c3        1 EBC     -0.030500
     11 H1          4.6870    0.9850    1.1810 h1        1 EBC      0.101200
     12 I2          5.2170    0.3920   -1.3170 i         1 EBC     -0.197900
     13 H3          3.7860    2.1010    0.0680 h1        1 EBC      0.101200
     14 H4          1.8650    0.9510   -1.1700 hn        1 EBC      0.317500
     15 H5          0.2610   -0.8000   -1.3140 h1        1 EBC      0.068200
     16 H6          0.7490   -1.3250    0.3720 h1        1 EBC      0.068200
     17 H7         -0.2610    0.8000    1.3200 h1        1 EBC      0.068200
     18 H8         -0.7490    1.3250   -0.3650 h1        1 EBC      0.068200
     19 H9         -1.8650   -0.9510    1.1760 hn        1 EBC      0.317500
     20 H10        -3.7860   -2.1010   -0.0620 h1        1 EBC      0.101200
     21 I          -5.2180   -0.3920    1.3230 i         1 EBC     -0.197900
     22 H12        -4.6870   -0.9860   -1.1750 h1        1 EBC      0.101200
@<TRIPOS>BOND
     1    1    2 2   
     2    2    3 1   
     3    2    4 1   
     4    3   11 1   
     5    3   12 1   
     6    3   13 1   
     7    4    5 1   
     8    4   14 1   
     9    5    6 1   
    10    5   15 1   
    11    5   16 1   
    12    6    7 1   
    13    6   17 1   
    14    6   18 1   
    15    7    8 1   
    16    7   19 1   
    17    8    9 2   
    18    8   10 1   
    19   10   20 1   
    20   10   21 1   
    21   10   22 1   
@<TRIPOS>SUBSTRUCTURE
     1 EBC         1 TEMP              0 ****  ****    0 ROOT
