@<TRIPOS>MOLECULE
EBC
   24    22     1     0     0
SMALL
bcc


@<TRIPOS>ATOM
      1 O10       -11.9410   17.6200  -90.9540 o         1 EBC     -0.132000
      2 C2        -10.7440   17.5990  -90.7500 c2        1 EBC      0.214000
      3 C1         57.4340  -74.3740  430.4440 c2        1 EBC      0.003000
      4 N3        -10.1670   16.3730  -90.1030 n4        1 EBC     -0.126000
      5 C4         -9.2210   15.6550  -91.0040 c3        1 EBC     -0.147000
      6 C5         -8.2860   14.6870  -90.2430 c3        1 EBC     -0.042000
      7 N6         -8.9540   13.6380  -89.5320 n         1 EBC     -0.388000
      8 C7         -9.4190   13.8320  -88.2350 c2        1 EBC      0.328000
      9 O9         -9.6170   15.0020  -87.8350 o         1 EBC     -0.409000
     10 C8         -9.7340   12.6370  -87.3890 c3        1 EBC     -0.379000
     11 H1         57.9920  -74.2920  429.4900 h4        1 EBC      0.220000
     12 I2         57.9450  -73.3820  432.0210 i         1 EBC      0.556000
     13 H3         56.5630  -75.0610  430.4380 h4        1 EBC      0.220000
     14 H4         -9.9790   18.3770  -90.9710 hx        1 EBC      0.224000
     15 H5         -9.6710   16.6330  -89.2280 hn        1 EBC      0.275500
     16 H6         -8.5730   16.4160  -91.5260 hx        1 EBC      0.148000
     17 H7         -9.8270   15.0990  -91.7740 hx        1 EBC      0.148000
     18 H8         -7.6090   14.2350  -91.0250 h1        1 EBC      0.134500
     19 H9         -7.6510   15.2940  -89.5310 h1        1 EBC      0.134500
     20 H10       -10.3610   12.9680  -86.5230 h1        1 EBC      0.160500
     21 I          -8.0360   11.7500  -86.6270 i         1 EBC      0.166000
     22 H12       -10.2980   11.8630  -87.9620 h1        1 EBC      0.160500
     23 H32       -10.9170   15.7240  -89.8180 hn        1 EBC      0.275500
     24 H62        -8.7730   12.7070  -89.8350 hn        1 EBC      0.254000
@<TRIPOS>BOND
     1    1    2 1   
     2    2    4 1   
     3    2   14 1   
     4    3   11 1   
     5    3   12 1   
     6    3   13 1   
     7    4    5 1   
     8    4   15 1   
     9    4   23 1   
    10    5    6 1   
    11    5   16 1   
    12    5   17 1   
    13    6    7 1   
    14    6   18 1   
    15    6   19 1   
    16    7    8 1   
    17    7   24 1   
    18    8    9 1   
    19    8   10 1   
    20   10   20 1   
    21   10   21 1   
    22   10   22 1   
@<TRIPOS>SUBSTRUCTURE
     1 EBC         1 TEMP              0 ****  ****    0 ROOT
