@<TRIPOS>MOLECULE
EBC
   22    21     1     0     0
SMALL
bcc


@<TRIPOS>ATOM
      1 O10         1.3350   -1.3470   -1.4310 o         1 EBC     -0.616100
      2 C2          1.5560   -0.4320   -0.6090 c         1 EBC      0.670100
      3 C1          1.8090   -0.7430    0.8430 c3        1 EBC     -0.030500
      4 N3          1.5780    0.8870   -1.0110 n         1 EBC     -0.565900
      5 C4          1.3620    1.2480   -2.3840 c3        1 EBC      0.076000
      6 C5          2.5540    0.9050   -3.3180 c3        1 EBC      0.087800
      7 N6          2.2180    0.8300   -4.7080 n2        1 EBC     -0.673900
      8 C7          1.5140   -0.1460   -5.1940 c2        1 EBC      0.624600
      9 O9          0.9330   -1.2100   -4.5270 oh        1 EBC     -0.632600
     10 C8          1.1780   -0.2430   -6.6530 c3        1 EBC      0.030200
     11 H1          1.9210   -1.8490    0.9490 h1        1 EBC      0.103700
     12 I2          0.2760   -0.1580    2.0920 i         1 EBC     -0.192900
     13 H3          2.7430   -0.2510    1.2010 h1        1 EBC      0.103700
     14 H4          1.8580    1.5930   -0.3750 hn        1 EBC      0.319500
     15 H5          1.1930   -1.2260   -3.5890 ho        1 EBC      0.453000
     16 H6          1.1660    2.3550   -2.4320 h1        1 EBC      0.064700
     17 H7          0.4380    0.7070   -2.7460 h1        1 EBC      0.064700
     18 H8          3.3220    1.7260   -3.2360 h1        1 EBC      0.059200
     19 H9          3.0370   -0.0520   -2.9620 h1        1 EBC      0.059200
     20 H10         0.3180   -0.9410   -6.7880 h1        1 EBC      0.101200
     21 I           2.7440   -0.9710   -7.7900 i         1 EBC     -0.206900
     22 H12         0.9120    0.7600   -7.0600 h1        1 EBC      0.101200
@<TRIPOS>BOND
     1    1    2 2   
     2    2    3 1   
     3    2    4 1   
     4    3   11 1   
     5    3   12 1   
     6    3   13 1   
     7    4    5 1   
     8    4   14 1   
     9    5    6 1   
    10    5   16 1   
    11    5   17 1   
    12    6    7 1   
    13    6   18 1   
    14    6   19 1   
    15    7    8 2   
    16    8    9 1   
    17    8   10 1   
    18    9   15 1   
    19   10   20 1   
    20   10   21 1   
    21   10   22 1   
@<TRIPOS>SUBSTRUCTURE
     1 EBC         1 TEMP              0 ****  ****    0 ROOT
