@<TRIPOS>MOLECULE
EBC
   22    20     1     0     0
SMALL
bcc


@<TRIPOS>ATOM
      1 O10        -1.8450    0.7190    2.9390 o         1 EBC     -0.355000
      2 C2         -0.7520    0.1790    3.0440 c1        1 EBC      0.310000
      3 C1         -0.2200   -0.1840    4.4130 c3        1 EBC     -0.360000
      4 N3          0.0100   -0.1560    1.8510 n2        1 EBC     -0.375000
      5 C4         -0.5050    0.2110    0.5330 c3        1 EBC     -0.050000
      6 C5          0.4710   -0.2830   -0.5590 c3        1 EBC     -0.050000
      7 N6          0.0090    0.1510   -1.8540 n         1 EBC     -0.375000
      8 C7          0.7270   -0.2200   -3.0220 c2        1 EBC      0.310000
      9 O9          1.7190   -0.9380   -2.9290 o         1 EBC     -0.355000
     10 C8          0.2710    0.2880   -4.3990 c3        1 EBC     -0.360000
     11 H1          0.6330    0.2730    4.5640 h1        1 EBC      0.140500
     12 I2         -1.6120    0.4150    5.8810 i         1 EBC      0.103000
     13 H3         -0.0870   -1.1420    4.4650 h1        1 EBC      0.140500
     14 H4          0.8480   -0.5610    1.9290 hn        1 EBC      0.231000
     15 H5         -1.3870   -0.2090    0.3980 h1        1 EBC      0.107500
     16 H6         -0.5950    1.1940    0.4770 h1        1 EBC      0.107500
     17 H7          1.3520    0.0810   -0.3940 h1        1 EBC      0.107500
     18 H8          0.5140   -1.2680   -0.5390 h1        1 EBC      0.107500
     19 H9         -0.6910    0.7220   -1.9170 hn        1 EBC      0.231000
     20 H10        -0.6830    0.0450   -4.5420 h1        1 EBC      0.140500
     21 I           1.4520   -0.5960   -5.9010 i         1 EBC      0.103000
     22 H12         0.3710    1.2780   -4.4370 h1        1 EBC      0.140500
@<TRIPOS>BOND
     1    1    2 1   
     2    2    3 1   
     3    3   11 1   
     4    3   12 1   
     5    3   13 1   
     6    4    5 1   
     7    4   14 1   
     8    5    6 1   
     9    5   15 1   
    10    5   16 1   
    11    6    7 1   
    12    6   17 1   
    13    6   18 1   
    14    7    8 1   
    15    7   19 1   
    16    8    9 1   
    17    8   10 1   
    18   10   20 1   
    19   10   21 1   
    20   10   22 1   
@<TRIPOS>SUBSTRUCTURE
     1 EBC         1 TEMP              0 ****  ****    0 ROOT
