@<TRIPOS>MOLECULE
EBD
   45    48     1     0     0
SMALL
bcc


@<TRIPOS>ATOM
      1 N1         -0.3020   -0.3170    0.0960 nb        1 EBD     -0.754000
      2 C2          1.0790   -0.3810   -0.0060 ca        1 EBD      0.889900
      3 N3          1.9660   -0.1580    1.0350 nb        1 EBD     -0.786000
      4 C4          1.4290    0.1190    2.2590 ca        1 EBD      0.701200
      5 C5          0.0060    0.1770    2.4560 ca        1 EBD     -0.396900
      6 C6         -0.7840   -0.0450    1.3180 ca        1 EBD      0.477200
      7 NAG         2.2690    0.4410    3.3420 nh        1 EBD     -0.786600
      8 CAH         3.6490    0.1770    3.2900 cc        1 EBD      0.504200
      9 NAI         1.6710   -0.7580   -1.2340 nh        1 EBD     -0.708300
     10 CAJ         0.9860   -0.6310   -2.4630 ca        1 EBD      0.143600
     11 CAK         1.5630    0.1250   -3.5100 ca        1 EBD     -0.137000
     12 CAL         0.9470    0.1890   -4.7540 ca        1 EBD     -0.103000
     13 CAM        -0.2550   -0.4850   -4.9890 ca        1 EBD     -0.106300
     14 CAN        -0.8280   -1.2360   -3.9590 ca        1 EBD     -0.103000
     15 CAO        -0.2200   -1.3190   -2.7100 ca        1 EBD     -0.137000
     16 NAP         4.3400   -0.5690    4.2320 nd        1 EBD     -0.548800
     17 NAQ         5.6190   -0.5100    3.8850 na        1 EBD     -0.006600
     18 CAR         5.8400    0.2420    2.7200 cd        1 EBD     -0.072600
     19 CAS         4.5810    0.7060    2.3070 cc        1 EBD     -0.246300
     20 CAT         7.1400    0.4690    2.1040 cx        1 EBD     -0.061400
     21 CAU         8.2010   -0.6060    2.1090 cx        1 EBD     -0.127400
     22 CAV        -0.9270   -0.3870   -6.3170 c3        1 EBD      0.029000
     23 CAW         8.3840    0.6220    2.9460 cx        1 EBD     -0.127400
     24 CAX        -0.6080    0.4650    3.7650 c3        1 EBD     -0.033800
     25 CAY        -0.3890   -1.3320   -7.2740 c1        1 EBD      0.212700
     26 NAZ         0.0370   -2.0870   -8.0480 n1        1 EBD     -0.372800
     27 H6         -1.8880   -0.0020    1.3870 h4        1 EBD      0.027100
     28 HNAG        1.8470    0.2520    4.2330 hn        1 EBD      0.433800
     29 HNAI        2.6540   -0.5700   -1.2920 hn        1 EBD      0.438800
     30 HAK         2.5080    0.6670   -3.3510 ha        1 EBD      0.147500
     31 HAL         1.4110    0.7810   -5.5580 ha        1 EBD      0.136500
     32 HAN        -1.7720   -1.7760   -4.1340 ha        1 EBD      0.136500
     33 HAO        -0.6920   -1.9270   -1.9220 ha        1 EBD      0.147500
     34 HNAQ        6.3070   -0.9660    4.4360 hn        1 EBD      0.321700
     35 HAS         4.3390    1.3110    1.4420 ha        1 EBD      0.177000
     36 HAT         7.0470    1.1010    1.1960 hc        1 EBD      0.100700
     37 HAU         7.9900   -1.5710    2.6030 hc        1 EBD      0.075700
     38 HAUA        8.8160   -0.7390    1.2020 hc        1 EBD      0.075700
     39 HAV        -2.0320   -0.5780   -6.2070 hc        1 EBD      0.079200
     40 HAVA       -0.8020    0.6540   -6.7320 hc        1 EBD      0.079200
     41 HAW         9.1330    1.3760    2.6420 hc        1 EBD      0.075700
     42 HAWA        8.3070    0.5450    4.0450 hc        1 EBD      0.075700
     43 HAX        -0.3210   -0.3120    4.5190 hc        1 EBD      0.044033
     44 HAXA       -1.7240    0.4720    3.6870 hc        1 EBD      0.044033
     45 HAXB       -0.2810    1.4650    4.1480 hc        1 EBD      0.044033
@<TRIPOS>BOND
     1    1    2 ar  
     2    1    6 ar  
     3    2    3 ar  
     4    2    9 1   
     5    3    4 ar  
     6    4    5 ar  
     7    4    7 1   
     8    5    6 ar  
     9    5   24 1   
    10    6   27 1   
    11    7    8 1   
    12    7   28 1   
    13    8   16 2   
    14    8   19 1   
    15    9   10 1   
    16    9   29 1   
    17   10   11 ar  
    18   10   15 ar  
    19   11   12 ar  
    20   11   30 1   
    21   12   13 ar  
    22   12   31 1   
    23   13   14 ar  
    24   13   22 1   
    25   14   15 ar  
    26   14   32 1   
    27   15   33 1   
    28   16   17 1   
    29   17   18 1   
    30   17   34 1   
    31   18   19 2   
    32   18   20 1   
    33   19   35 1   
    34   20   21 1   
    35   20   23 1   
    36   20   36 1   
    37   21   23 1   
    38   21   37 1   
    39   21   38 1   
    40   22   25 1   
    41   22   39 1   
    42   22   40 1   
    43   23   41 1   
    44   23   42 1   
    45   24   43 1   
    46   24   44 1   
    47   24   45 1   
    48   25   26 3   
@<TRIPOS>SUBSTRUCTURE
     1 EBD         1 TEMP              0 ****  ****    0 ROOT
