@<TRIPOS>MOLECULE
EBD
   45    48     1     0     0
SMALL
bcc


@<TRIPOS>ATOM
      1 N1         -0.3240   -0.2580    0.1170 nb        1 EBD     -0.754000
      2 C2          1.0560   -0.3430    0.0040 ca        1 EBD      0.889900
      3 N3          1.9540   -0.1230    1.0350 nb        1 EBD     -0.786000
      4 C4          1.4320    0.1750    2.2600 ca        1 EBD      0.701200
      5 C5          0.0110    0.2570    2.4690 ca        1 EBD     -0.396900
      6 C6         -0.7910    0.0350    1.3390 ca        1 EBD      0.477200
      7 NAG         2.2850    0.4960    3.3330 nu        1 EBD     -0.786600
      8 CAH         3.6620    0.2110    3.2720 cc        1 EBD      0.504200
      9 NAI         1.6310   -0.7420   -1.2240 nu        1 EBD     -0.708300
     10 CAJ         0.9370   -0.6190   -2.4500 ca        1 EBD      0.143600
     11 CAK         1.5170    0.1170   -3.5090 ca        1 EBD     -0.137000
     12 CAL         0.8910    0.1780   -4.7480 ca        1 EBD     -0.103000
     13 CAM        -0.3230   -0.4810   -4.9660 ca        1 EBD     -0.106300
     14 CAN        -0.8980   -1.2110   -3.9230 ca        1 EBD     -0.103000
     15 CAO        -0.2810   -1.2900   -2.6790 ca        1 EBD     -0.137000
     16 NAP         4.3490   -0.5350    4.2160 nd        1 EBD     -0.548800
     17 NAQ         5.6260   -0.4990    3.8580 na        1 EBD     -0.006600
     18 CAR         5.8480    0.2360    2.6840 cd        1 EBD     -0.072600
     19 CAS         4.5920    0.7160    2.2760 cc        1 EBD     -0.246300
     20 CAT         7.1460    0.4370    2.0550 cx        1 EBD     -0.061400
     21 CAU         8.1900   -0.6540    2.0620 cx        1 EBD     -0.127400
     22 CAV        -1.0040   -0.3860   -6.2900 c3        1 EBD      0.029000
     23 CAW         8.4000    0.5800    2.8840 cx        1 EBD     -0.127400
     24 CAX        -0.5860    0.5680    3.7790 c3        1 EBD     -0.033800
     25 CAY        -0.4910   -1.3520   -7.2400 c1        1 EBD      0.212700
     26 NAZ        -0.0860   -2.1240   -8.0090 n1        1 EBD     -0.372800
     27 H6         -1.8940    0.0950    1.4170 h4        1 EBD      0.027100
     28 HNAG        1.8680    0.3230    4.2290 hn        1 EBD      0.433800
     29 HNAI        2.6160   -0.5700   -1.2930 hn        1 EBD      0.438800
     30 HAK         2.4710    0.6470   -3.3650 ha        1 EBD      0.147500
     31 HAL         1.3570    0.7530   -5.5630 ha        1 EBD      0.136500
     32 HAN        -1.8520   -1.7390   -4.0840 ha        1 EBD      0.136500
     33 HAO        -0.7550   -1.8830   -1.8800 ha        1 EBD      0.147500
     34 HNAQ        6.3120   -0.9600    4.4080 hn        1 EBD      0.321700
     35 HAS         4.3520    1.3150    1.4070 ha        1 EBD      0.177000
     36 HAT         7.0550    1.0620    1.1410 hc        1 EBD      0.100700
     37 HAU         7.9690   -1.6100    2.5670 hc        1 EBD      0.075700
     38 HAUA        8.7960   -0.8050    1.1500 hc        1 EBD      0.075700
     39 HAV        -2.1120   -0.5570   -6.1670 hc        1 EBD      0.079200
     40 HAVA       -0.8660    0.6470   -6.7180 hc        1 EBD      0.079200
     41 HAW         9.1570    1.3190    2.5660 hc        1 EBD      0.075700
     42 HAWA        8.3310    0.5150    3.9840 hc        1 EBD      0.075700
     43 HAX        -1.7030    0.5910    3.7110 hc        1 EBD      0.044033
     44 HAXA       -0.3050   -0.2060    4.5400 hc        1 EBD      0.044033
     45 HAXB       -0.2410    1.5670    4.1490 hc        1 EBD      0.044033
@<TRIPOS>BOND
     1    1    2 ar  
     2    1    6 ar  
     3    2    3 ar  
     4    2    9 1   
     5    3    4 ar  
     6    4    5 ar  
     7    4    7 1   
     8    5    6 ar  
     9    5   24 1   
    10    6   27 1   
    11    7    8 1   
    12    7   28 1   
    13    8   16 2   
    14    8   19 1   
    15    9   10 1   
    16    9   29 1   
    17   10   11 ar  
    18   10   15 ar  
    19   11   12 ar  
    20   11   30 1   
    21   12   13 ar  
    22   12   31 1   
    23   13   14 ar  
    24   13   22 1   
    25   14   15 ar  
    26   14   32 1   
    27   15   33 1   
    28   16   17 1   
    29   17   18 1   
    30   17   34 1   
    31   18   19 2   
    32   18   20 1   
    33   19   35 1   
    34   20   21 1   
    35   20   23 1   
    36   20   36 1   
    37   21   23 1   
    38   21   37 1   
    39   21   38 1   
    40   22   25 1   
    41   22   39 1   
    42   22   40 1   
    43   23   41 1   
    44   23   42 1   
    45   24   43 1   
    46   24   44 1   
    47   24   45 1   
    48   25   26 3   
@<TRIPOS>SUBSTRUCTURE
     1 EBD         1 TEMP              0 ****  ****    0 ROOT
