@<TRIPOS>MOLECULE
EBD
   45    48     1     0     0
SMALL
bcc


@<TRIPOS>ATOM
      1 N1         -1.0990    2.2530    0.1140 nb        1 EBD     -0.754000
      2 C2         -0.4630    1.0220    0.1710 ca        1 EBD      0.889900
      3 N3          0.9040    0.8270    0.0600 nb        1 EBD     -0.786000
      4 C4          1.6800    1.9390   -0.0900 ca        1 EBD      0.701200
      5 C5          1.1020    3.2550   -0.1310 ca        1 EBD     -0.396900
      6 C6         -0.2960    3.3180   -0.0310 ca        1 EBD      0.477200
      7 NAG         3.0670    1.8110   -0.2950 nh        1 EBD     -0.786600
      8 CAH         3.7270    0.5960   -0.0340 cc        1 EBD      0.504200
      9 NAI        -1.2220   -0.1450    0.4190 nh        1 EBD     -0.708300
     10 CAJ        -2.6110   -0.2000    0.1650 ca        1 EBD      0.143600
     11 CAK        -3.1240   -1.2000   -0.6940 ca        1 EBD     -0.137000
     12 CAL        -4.4940   -1.3250   -0.8880 ca        1 EBD     -0.103000
     13 CAM        -5.3870   -0.4620   -0.2450 ca        1 EBD     -0.106300
     14 CAN        -4.8860    0.5250    0.6060 ca        1 EBD     -0.103000
     15 CAO        -3.5170    0.6590    0.8200 ca        1 EBD     -0.137000
     16 NAP         4.8200    0.4640    0.8070 nd        1 EBD     -0.548800
     17 NAQ         5.2070   -0.8020    0.7150 na        1 EBD     -0.006600
     18 CAR         4.4070   -1.5610   -0.1520 cd        1 EBD     -0.072600
     19 CAS         3.4350   -0.6830   -0.6610 cc        1 EBD     -0.246300
     20 CAT         4.5910   -2.9770   -0.4380 cx        1 EBD     -0.061400
     21 CAU         5.0570   -3.9320    0.6340 cx        1 EBD     -0.127400
     22 CAV        -6.8540   -0.5830   -0.4820 c3        1 EBD      0.029000
     23 CAW         5.9720   -3.5850   -0.5000 cx        1 EBD     -0.127400
     24 CAX         1.9100    4.4780   -0.2830 c3        1 EBD     -0.033800
     25 CAY        -7.4650   -1.5880    0.3630 c1        1 EBD      0.212700
     26 NAZ        -7.9630   -2.3940    1.0380 n1        1 EBD     -0.372800
     27 H6         -0.8170    4.2940   -0.0700 h4        1 EBD      0.027100
     28 HNAG        3.5800    2.6270   -0.0160 hn        1 EBD      0.433800
     29 HNAI       -0.7370   -1.0000    0.2300 hn        1 EBD      0.438800
     30 HAK        -2.4440   -1.8910   -1.2140 ha        1 EBD      0.147500
     31 HAL        -4.8770   -2.1100   -1.5590 ha        1 EBD      0.136500
     32 HAN        -5.5790    1.2080    1.1230 ha        1 EBD      0.136500
     33 HAO        -3.1540    1.4410    1.5050 ha        1 EBD      0.147500
     34 HNAQ        5.9940   -1.1220    1.2280 hn        1 EBD      0.321700
     35 HAS         2.6300   -0.8990   -1.3530 ha        1 EBD      0.177000
     36 HAT         3.8320   -3.3410   -1.1630 hc        1 EBD      0.100700
     37 HAU         5.2770   -3.5450    1.6450 hc        1 EBD      0.075700
     38 HAUA        4.6030   -4.9380    0.6730 hc        1 EBD      0.075700
     39 HAV        -7.3600    0.4050   -0.2870 hc        1 EBD      0.079200
     40 HAVA       -7.0460   -0.8550   -1.5590 hc        1 EBD      0.079200
     41 HAW         6.1770   -4.3400   -1.2790 hc        1 EBD      0.075700
     42 HAWA        6.8530   -2.9470   -0.3080 hc        1 EBD      0.075700
     43 HAX         2.4960    4.4530   -1.2370 hc        1 EBD      0.044033
     44 HAXA        1.2570    5.3860   -0.3020 hc        1 EBD      0.044033
     45 HAXB        2.6290    4.5890    0.5690 hc        1 EBD      0.044033
@<TRIPOS>BOND
     1    1    2 ar  
     2    1    6 ar  
     3    2    3 ar  
     4    2    9 1   
     5    3    4 ar  
     6    4    5 ar  
     7    4    7 1   
     8    5    6 ar  
     9    5   24 1   
    10    6   27 1   
    11    7    8 1   
    12    7   28 1   
    13    8   16 2   
    14    8   19 1   
    15    9   10 1   
    16    9   29 1   
    17   10   11 ar  
    18   10   15 ar  
    19   11   12 ar  
    20   11   30 1   
    21   12   13 ar  
    22   12   31 1   
    23   13   14 ar  
    24   13   22 1   
    25   14   15 ar  
    26   14   32 1   
    27   15   33 1   
    28   16   17 1   
    29   17   18 1   
    30   17   34 1   
    31   18   19 2   
    32   18   20 1   
    33   19   35 1   
    34   20   21 1   
    35   20   23 1   
    36   20   36 1   
    37   21   23 1   
    38   21   37 1   
    39   21   38 1   
    40   22   25 1   
    41   22   39 1   
    42   22   40 1   
    43   23   41 1   
    44   23   42 1   
    45   24   43 1   
    46   24   44 1   
    47   24   45 1   
    48   25   26 3   
@<TRIPOS>SUBSTRUCTURE
     1 EBD         1 TEMP              0 ****  ****    0 ROOT
