@<TRIPOS>MOLECULE
EBD
   47    50     1     0     0
SMALL
bcc


@<TRIPOS>ATOM
      1 N1          0.6570   -2.1650   -0.0270 nb        1 EBD     -0.617000
      2 C2          1.6390   -1.3970   -0.6280 ca        1 EBD      0.741900
      3 N3          2.2490   -0.3030   -0.0960 nb        1 EBD     -0.652000
      4 C4          1.8300    0.0540    1.1590 ca        1 EBD      0.514200
      5 C5          0.8230   -0.6420    1.8680 ca        1 EBD     -0.174900
      6 C6          0.2730   -1.7760    1.1890 ca        1 EBD      0.484200
      7 NAG         2.4990    1.2280    1.7740 n4        1 EBD     -0.681400
      8 CAH         3.7590    0.8860    2.4080 cc        1 EBD      0.291200
      9 NAI         2.0520   -1.8090   -2.0080 n4        1 EBD     -0.599100
     10 CAJ         1.1120   -1.3110   -3.0210 ca        1 EBD     -0.087400
     11 CAK         1.4540   -0.1820   -3.7880 ca        1 EBD     -0.086000
     12 CAL         0.5730    0.2580   -4.7700 ca        1 EBD     -0.101500
     13 CAM        -0.6430   -0.4030   -4.9910 ca        1 EBD      0.001700
     14 CAN        -0.9670   -1.5290   -4.2200 ca        1 EBD     -0.101500
     15 CAO        -0.1020   -1.9900   -3.2340 ca        1 EBD     -0.086000
     16 NAP         3.9290   -0.1930    3.2640 nd        1 EBD     -0.471800
     17 NAQ         5.1830   -0.1330    3.6580 na        1 EBD      0.044400
     18 CAR         5.8970    0.9480    3.1070 cd        1 EBD      0.021400
     19 CAS         4.9870    1.6340    2.2720 cc        1 EBD     -0.248300
     20 CAT         7.2900    1.2600    3.3780 cx        1 EBD     -0.129400
     21 CAU         8.2970    0.1680    3.6680 cx        1 EBD     -0.097900
     22 CAV        -1.5790    0.0800   -6.0490 c3        1 EBD      0.008000
     23 CAW         7.8690    1.0840    4.7670 cx        1 EBD     -0.097900
     24 CAX         0.3430   -0.2690    3.2080 c3        1 EBD     -0.108800
     25 CAY        -2.9380    0.1690   -5.5610 c1        1 EBD      0.176700
     26 NAZ        -4.0320    0.2530   -5.1800 n1        1 EBD     -0.300800
     27 H6         -0.5190   -2.3940    1.6730 h4        1 EBD      0.103100
     28 HNAG        1.8600    1.6200    2.4870 hn        1 EBD      0.488300
     29 HNAI        2.9970   -1.4460   -2.2080 hn        1 EBD      0.489300
     30 HAK         2.4050    0.3550   -3.6360 ha        1 EBD      0.165000
     31 HAL         0.8420    1.1390   -5.3800 ha        1 EBD      0.184000
     32 HAN        -1.9230   -2.0570   -4.3950 ha        1 EBD      0.184000
     33 HAO        -0.3800   -2.8790   -2.6410 ha        1 EBD      0.165000
     34 HNAQ        5.5370   -0.8110    4.3080 hn        1 EBD      0.365700
     35 HAS         5.1770    2.5240    1.6790 ha        1 EBD      0.201000
     36 HAT         7.6300    2.1360    2.7820 hc        1 EBD      0.126700
     37 HAU         9.3120    0.2740    3.2370 hc        1 EBD      0.094950
     38 HAUA        7.9710   -0.8870    3.6790 hc        1 EBD      0.094950
     39 HAV        -1.2610    1.0920   -6.4330 hc        1 EBD      0.112200
     40 HAVA       -1.5450   -0.6350   -6.9250 hc        1 EBD      0.112200
     41 HAW         7.2260    0.7000    5.5790 hc        1 EBD      0.094950
     42 HAWA        8.5710    1.8570    5.1360 hc        1 EBD      0.094950
     43 HAX        -0.4460   -0.9810    3.5670 hc        1 EBD      0.101700
     44 HAXA        1.1800   -0.2920    3.9570 hc        1 EBD      0.101700
     45 HAXB       -0.1120    0.7570    3.2030 hc        1 EBD      0.101700
     46 HAG2        2.6990    1.9470    1.0580 hn        1 EBD      0.488300
     47 HAI2        2.0690   -2.8430   -2.0460 hn        1 EBD      0.489300
@<TRIPOS>BOND
     1    1    2 ar  
     2    1    6 ar  
     3    2    3 ar  
     4    2    9 1   
     5    3    4 ar  
     6    4    5 ar  
     7    4    7 1   
     8    5    6 ar  
     9    5   24 1   
    10    6   27 1   
    11    7    8 1   
    12    7   28 1   
    13    7   46 1   
    14    8   16 2   
    15    8   19 1   
    16    9   10 1   
    17    9   29 1   
    18    9   47 1   
    19   10   11 ar  
    20   10   15 ar  
    21   11   12 ar  
    22   11   30 1   
    23   12   13 ar  
    24   12   31 1   
    25   13   14 ar  
    26   13   22 1   
    27   14   15 ar  
    28   14   32 1   
    29   15   33 1   
    30   16   17 1   
    31   17   18 1   
    32   17   34 1   
    33   18   19 2   
    34   18   20 1   
    35   19   35 1   
    36   20   21 1   
    37   20   23 1   
    38   20   36 1   
    39   21   23 1   
    40   21   37 1   
    41   21   38 1   
    42   22   25 1   
    43   22   39 1   
    44   22   40 1   
    45   23   41 1   
    46   23   42 1   
    47   24   43 1   
    48   24   44 1   
    49   24   45 1   
    50   25   26 3   
@<TRIPOS>SUBSTRUCTURE
     1 EBD         1 TEMP              0 ****  ****    0 ROOT
