@<TRIPOS>MOLECULE
EBG
   35    36     1     0     0
SMALL
bcc


@<TRIPOS>ATOM
      1 C1         -0.6730    1.2160   -0.6390 c3        1 EBG      0.304900
      2 O1         -1.0600    0.3070    0.3750 os        1 EBG     -0.467600
      3 C2         -1.2780    0.7030   -1.9600 c3        1 EBG      0.094100
      4 O2         -2.6710    0.5020   -1.8450 oh        1 EBG     -0.594800
      5 C3         -0.5860   -0.5920   -2.4060 c3        1 EBG      0.074100
      6 O3         -0.9530   -0.9350   -3.7330 oh        1 EBG     -0.607800
      7 C4          0.9390   -0.4020   -2.4050 c3        1 EBG      0.125100
      8 O4          1.5970   -1.6200   -2.7030 oh        1 EBG     -0.594800
      9 C5          1.3830    0.0330   -0.9980 c3        1 EBG      0.142100
     10 O5          0.7350    1.2630   -0.6530 os        1 EBG     -0.429600
     11 C6          2.8840    0.3190   -0.9580 c3        1 EBG      0.135400
     12 O6          3.3080    0.1030    0.3780 oh        1 EBG     -0.596800
     13 C7         -0.8420    0.8030    1.7010 c3        1 EBG      0.138400
     14 C8         -1.0920   -0.3680    2.6370 c3        1 EBG     -0.080400
     15 C9         -1.2050    0.1010    4.0540 cx        1 EBG      0.060100
     16 C10        -0.8690   -0.8070    5.1840 cx        1 EBG      0.055400
     17 O9          0.0270    0.2390    4.7870 os        1 EBG     -0.401600
     18 H1         -0.9990    2.2700   -0.4120 h2        1 EBG      0.088700
     19 H2         -1.1640    1.4960   -2.7510 h1        1 EBG      0.099700
     20 HO2        -2.8200   -0.0600   -1.0710 ho        1 EBG      0.421000
     21 H3         -0.8680   -1.4330   -1.7110 h1        1 EBG      0.064700
     22 HO3        -1.9170   -0.8770   -3.7770 ho        1 EBG      0.423000
     23 H4          1.2230    0.3760   -3.1660 h1        1 EBG      0.055700
     24 HO4         1.2000   -1.9520   -3.5200 ho        1 EBG      0.424000
     25 H5          1.1130   -0.7560   -0.2420 h1        1 EBG      0.089700
     26 H61         3.0880    1.3770   -1.2720 h1        1 EBG      0.046200
     27 H62         3.4120   -0.3980   -1.6440 h1        1 EBG      0.046200
     28 HO6         4.2110    0.4350    0.4370 ho        1 EBG      0.403000
     29 H71         0.2110    1.1780    1.7960 h1        1 EBG      0.048700
     30 H72        -1.5620    1.6420    1.8920 h1        1 EBG      0.048700
     31 H81        -2.0470   -0.8820    2.3490 hc        1 EBG      0.067700
     32 H82        -0.2570   -1.1090    2.5310 hc        1 EBG      0.067700
     33 H9         -1.9110    0.9420    4.2130 h1        1 EBG      0.089700
     34 H101       -1.3310   -0.6650    6.1780 h1        1 EBG      0.078700
     35 H102       -0.4940   -1.8290    4.9920 h1        1 EBG      0.078700
@<TRIPOS>BOND
     1    1    2 1   
     2    1    3 1   
     3    1   10 1   
     4    1   18 1   
     5    2   13 1   
     6    3    4 1   
     7    3    5 1   
     8    3   19 1   
     9    4   20 1   
    10    5    6 1   
    11    5    7 1   
    12    5   21 1   
    13    6   22 1   
    14    7    8 1   
    15    7    9 1   
    16    7   23 1   
    17    8   24 1   
    18    9   10 1   
    19    9   11 1   
    20    9   25 1   
    21   11   12 1   
    22   11   26 1   
    23   11   27 1   
    24   12   28 1   
    25   13   14 1   
    26   13   29 1   
    27   13   30 1   
    28   14   15 1   
    29   14   31 1   
    30   14   32 1   
    31   15   16 1   
    32   15   17 1   
    33   15   33 1   
    34   16   17 1   
    35   16   34 1   
    36   16   35 1   
@<TRIPOS>SUBSTRUCTURE
     1 EBG         1 TEMP              0 ****  ****    0 ROOT
