@<TRIPOS>MOLECULE
EBH
   12    11     1     0     0
SMALL
bcc


@<TRIPOS>ATOM
      1 C02         2.9130    0.7020    0.1050 c3        1 EBH     -0.134100
      2 C03         1.5910   -0.0210    0.3120 c3        1 EBH      0.141100
      3 O04         1.6890   -1.3760   -0.0910 oh        1 EBH     -0.582800
      4 C05         0.4860    0.7140   -0.4340 c3        1 EBH     -0.051000
      5 BR6        -1.2970    0.2420    0.1030 br        1 EBH     -0.155400
      6 H1          2.8800    1.7090    0.5810 hc        1 EBH      0.047367
      7 H2          3.7390    0.1090    0.5660 hc        1 EBH      0.047367
      8 H3          3.1280    0.8240   -0.9840 hc        1 EBH      0.047367
      9 H4          1.3550   -0.0880    1.4140 h1        1 EBH      0.093700
     10 H5          1.9300   -1.3850   -1.0260 ho        1 EBH      0.397000
     11 H6          0.5820    1.8110   -0.2610 h1        1 EBH      0.075700
     12 H7          0.5540    0.5060   -1.5270 h1        1 EBH      0.075700
@<TRIPOS>BOND
     1    1    2 1   
     2    1    6 1   
     3    1    7 1   
     4    1    8 1   
     5    2    3 1   
     6    2    4 1   
     7    2    9 1   
     8    3   10 1   
     9    4    5 1   
    10    4   11 1   
    11    4   12 1   
@<TRIPOS>SUBSTRUCTURE
     1 EBH         1 TEMP              0 ****  ****    0 ROOT
