@<TRIPOS>MOLECULE
EBH
   12    11     1     0     0
SMALL
bcc


@<TRIPOS>ATOM
      1 C02        -0.0380   -0.0110   -0.0440 c3        1 EBH     -0.094100
      2 C03         1.4810   -0.0740    0.0090 c3        1 EBH      0.145100
      3 O04         1.8270   -0.1670    1.3840 oh        1 EBH     -0.594800
      4 C05         2.0740    1.1750   -0.6290 c3        1 EBH     -0.055000
      5 Br6         3.9570    1.0430   -1.0110 br        1 EBH     -0.175400
      6 H1         -0.4670   -0.8820    0.5060 hc        1 EBH      0.049700
      7 H2         -0.4050    0.9260    0.4360 hc        1 EBH      0.049700
      8 H3         -0.3770   -0.0410   -1.1060 hc        1 EBH      0.049700
      9 H4          1.8430   -0.9960   -0.5310 h1        1 EBH      0.047700
     10 H5          2.7880   -0.2450    1.4300 ho        1 EBH      0.408000
     11 H6          1.5700    1.3810   -1.6000 h1        1 EBH      0.085200
     12 H7          1.9460    2.0480    0.0530 h1        1 EBH      0.085200
@<TRIPOS>BOND
     1    1    2 1   
     2    1    6 1   
     3    1    7 1   
     4    1    8 1   
     5    2    3 1   
     6    2    4 1   
     7    2    9 1   
     8    3   10 1   
     9    4    5 1   
    10    4   11 1   
    11    4   12 1   
@<TRIPOS>SUBSTRUCTURE
     1 EBH         1 TEMP              0 ****  ****    0 ROOT
