@<TRIPOS>MOLECULE
EBH
   12    11     1     0     0
SMALL
bcc


@<TRIPOS>ATOM
      1 C02        -1.3210   -0.2360    0.1730 c3        1 EBH     -0.094100
      2 C03         0.1750   -0.3950    0.0190 c3        1 EBH      0.145100
      3 O04         0.7770   -0.4230    1.2910 oh        1 EBH     -0.594800
      4 C05         0.7260    0.7680   -0.7740 c3        1 EBH     -0.055000
      5 BR6         2.2910    1.4450    0.0900 br        1 EBH     -0.175400
      6 H1         -1.7010   -1.0630    0.5360 hc        1 EBH      0.049700
      7 H2         -1.5090    0.5060    0.7850 hc        1 EBH      0.049700
      8 H3         -1.7220   -0.0490   -0.7010 hc        1 EBH      0.049700
      9 H4          0.3670   -1.2300   -0.4520 h1        1 EBH      0.047700
     10 H5          0.9100   -1.2670    1.5370 ho        1 EBH      0.408000
     11 H6          0.9550    0.4680   -1.6760 h1        1 EBH      0.085200
     12 H7          0.0520    1.4750   -0.8270 h1        1 EBH      0.085200
@<TRIPOS>BOND
     1    1    2 1   
     2    1    6 1   
     3    1    7 1   
     4    1    8 1   
     5    2    3 1   
     6    2    4 1   
     7    2    9 1   
     8    3   10 1   
     9    4    5 1   
    10    4   11 1   
    11    4   12 1   
@<TRIPOS>SUBSTRUCTURE
     1 EBH         1 TEMP              0 ****  ****    0 ROOT
