@<TRIPOS>MOLECULE
EBH
   12    11     1     0     0
SMALL
bcc


@<TRIPOS>ATOM
      1 C02        -0.0400   -0.0020   -0.0550 c3        1 EBH     -0.094100
      2 C03         1.4770   -0.0760    0.0070 c3        1 EBH      0.145100
      3 O04         1.8150   -0.1820    1.3820 oh        1 EBH     -0.594800
      4 C05         2.0830    1.1740   -0.6180 c3        1 EBH     -0.055000
      5 BR6         3.9670    1.0320   -0.9910 br        1 EBH     -0.175400
      6 H1         -0.4790   -0.8740    0.4860 hc        1 EBH      0.049700
      7 H2         -0.4040    0.9340    0.4310 hc        1 EBH      0.049700
      8 H3         -0.3750   -0.0210   -1.1180 hc        1 EBH      0.049700
      9 H4          1.8360   -0.9960   -0.5390 h1        1 EBH      0.047700
     10 H5          2.7760   -0.2670    1.4320 ho        1 EBH      0.408000
     11 H6          1.5850    1.3920   -1.5910 h1        1 EBH      0.085200
     12 H7          1.9580    2.0420    0.0700 h1        1 EBH      0.085200
@<TRIPOS>BOND
     1    1    2 1   
     2    1    6 1   
     3    1    7 1   
     4    1    8 1   
     5    2    3 1   
     6    2    4 1   
     7    2    9 1   
     8    3   10 1   
     9    4    5 1   
    10    4   11 1   
    11    4   12 1   
@<TRIPOS>SUBSTRUCTURE
     1 EBH         1 TEMP              0 ****  ****    0 ROOT
