@<TRIPOS>MOLECULE
EBI
   58    61     1     0     0
SMALL
bcc


@<TRIPOS>ATOM
      1 N1          1.0650   -1.1920    1.9810 n2        1 EBI     -0.053000
      2 C2          1.6100    0.1410    1.4200 c3        1 EBI     -0.003000
      3 C3          0.3320    1.0070    1.4050 c2        1 EBI     -0.197000
      4 C4         -0.6580    0.2410    1.9380 c2        1 EBI     -0.150000
      5 N5         -0.1160   -1.0940    2.2700 n2        1 EBI     -0.013000
      6 N6          2.2670    0.0680    0.1470 n7        1 EBI     -0.258000
      7 C7         -2.0790    0.5590    2.2240 c3        1 EBI     -0.132000
      8 C8         -2.5190    0.4180    3.6060 c1        1 EBI     -0.021000
      9 C9         -2.4550    1.9330    1.6870 c3        1 EBI     -0.184000
     10 C10         4.9590    0.4060   -2.1230 cu        1 EBI     -0.303000
     11 C11         5.3420    1.7610   -1.9530 c2        1 EBI     -0.374000
     12 C12         4.5700    2.8300   -1.8840 c1        1 EBI      0.118000
     13 C13         4.0450   -0.5030   -1.4310 cx        1 EBI     -0.100000
     14 N14         5.5350   -0.8040   -1.5250 nx        1 EBI      0.059000
     15 C15         3.5970   -0.2900    0.0090 c2        1 EBI      0.172000
     16 N16         4.4220   -0.3330    1.0520 n2        1 EBI     -0.300000
     17 N17         6.3270   -0.9430   -0.4150 n2        1 EBI     -0.289000
     18 C18         5.7880   -0.6660    0.7960 c2        1 EBI      0.185000
     19 C19         7.5600   -1.7510    5.3260 c2        1 EBI     -0.208000
     20 C20         8.1240   -1.8550    4.1250 c2        1 EBI     -0.175000
     21 C21         8.6100   -0.6930    3.3450 c3        1 EBI     -0.143000
     22 C22         8.0180   -0.5970    1.9110 c3        1 EBI      0.063000
     23 N23         6.5780   -0.8270    1.9480 n7        1 EBI     -0.276000
     24 C27         8.3990    0.7940    1.3690 c3        1 EBI     -0.235000
     25 C28         8.7690   -3.9330    0.0960 c2        1 EBI      0.015000
     26 C29        10.0390   -3.9120   -0.5190 c2        1 EBI     -0.102000
     27 C30        10.4430   -4.9970   -1.2900 c2        1 EBI     -0.177000
     28 C31         9.5660   -6.0980   -1.4350 c2        1 EBI      0.106000
     29 N32         8.3330   -6.1490   -0.8520 n2        1 EBI     -0.138000
     30 C33         7.9630   -5.0960   -0.1170 c2        1 EBI     -0.097000
     31 F34         9.9470   -7.1630   -2.1850 f         1 EBI     -0.083000
     32 H3          0.3200    2.0310    1.0450 ha        1 EBI      0.188000
     33 HN6         1.6850   -0.0780   -0.6490 hn        1 EBI      0.244000
     34 H7         -2.2840    1.9720    0.5850 hc        1 EBI      0.089333
     35 H8         -1.8370    2.7250    2.1720 hc        1 EBI      0.089333
     36 H8A        -1.8260   -0.0690    4.3080 ha        1 EBI      0.053000
     37 H9         -2.7290   -0.2150    1.6880 hc        1 EBI      0.173000
     38 H9A        -3.5320    2.1370    1.9010 hc        1 EBI      0.089333
     39 H10         5.8240   -1.5020   -2.2120 hn        1 EBI      0.273000
     40 H11         6.4400    1.9420   -2.0190 ha        1 EBI      0.198000
     41 H12         3.3330   -1.1180   -2.0260 hx        1 EBI      0.152000
     42 H19         6.1490   -0.5280    2.8010 hn        1 EBI      0.242000
     43 H19A        7.2330   -2.6320    5.8950 ha        1 EBI      0.116500
     44 H20         8.2810   -2.8400    3.6550 ha        1 EBI      0.131000
     45 H20A        7.3920   -0.7890    5.8280 ha        1 EBI      0.116500
     46 H21         8.3810    0.2660    3.8830 hc        1 EBI      0.111000
     47 H21A        9.7280   -0.7600    3.2360 hc        1 EBI      0.111000
     48 HN25        7.3560   -3.0760    1.2780 hn        1 EBI      0.245000
     49 H27         7.8780    1.5920    1.9500 hc        1 EBI      0.101333
     50 H27A        9.5040    0.9310    1.4670 hc        1 EBI      0.101333
     51 H27B        8.1350    0.8920    0.2900 hc        1 EBI      0.101333
     52 H29        10.7140   -3.0460   -0.4030 ha        1 EBI      0.185000
     53 H30        11.4250   -5.0080   -1.7820 ha        1 EBI      0.162000
     54 H33         6.9580   -5.1860    0.3370 h4        1 EBI      0.162000
     55 HN1         2.3240    0.5360    2.2080 h2        1 EBI      0.182000
     56 C24         8.7950   -1.6370    1.0420 c2        1 EBI      0.325000
     57 N25         8.2690   -2.9110    0.9130 ns        1 EBI     -0.293000
     58 O26         9.8960   -1.3080    0.5660 o         1 EBI     -0.354000
@<TRIPOS>BOND
     1    1    2 1   
     2    1    5 1   
     3    2    3 1   
     4    2    6 1   
     5    2   55 1   
     6    3    4 1   
     7    3   32 1   
     8    4    5 1   
     9    4    7 1   
    10    6   15 1   
    11    6   33 1   
    12    7    8 1   
    13    7    9 1   
    14    7   37 1   
    15    8   36 1   
    16    9   34 1   
    17    9   35 1   
    18    9   38 1   
    19   10   11 1   
    20   10   13 1   
    21   10   14 1   
    22   11   12 1   
    23   11   40 1   
    24   13   14 1   
    25   13   15 1   
    26   13   41 1   
    27   14   17 1   
    28   14   39 1   
    29   15   16 1   
    30   16   18 1   
    31   17   18 1   
    32   18   23 1   
    33   19   20 1   
    34   19   43 1   
    35   19   45 1   
    36   20   21 1   
    37   20   44 1   
    38   21   22 1   
    39   21   46 1   
    40   21   47 1   
    41   22   23 1   
    42   22   24 1   
    43   22   56 1   
    44   23   42 1   
    45   24   49 1   
    46   24   50 1   
    47   24   51 1   
    48   25   26 1   
    49   25   30 1   
    50   25   57 1   
    51   26   27 1   
    52   26   52 1   
    53   27   28 1   
    54   27   53 1   
    55   28   29 1   
    56   28   31 1   
    57   29   30 1   
    58   30   54 1   
    59   48   57 1   
    60   56   57 1   
    61   56   58 1   
@<TRIPOS>SUBSTRUCTURE
     1 EBI         1 TEMP              0 ****  ****    0 ROOT
