@<TRIPOS>MOLECULE
EBI
   60    59     1     0     0
SMALL
bcc


@<TRIPOS>ATOM
      1 N1       -189.0160  123.4660  -47.3490 n2        1 EBI     -0.040000
      2 C2       -188.6730  123.6930  -48.8390 c3        1 EBI     -0.097000
      3 C3       -187.1450  123.7770  -48.8060 c2        1 EBI     -0.252000
      4 C4       -186.7740  123.5280  -47.5140 c2        1 EBI      0.002000
      5 N5       -187.9980  123.3450  -46.6910 n2        1 EBI      0.058000
      6 N6       -189.3470  124.8970  -49.4250 n4        1 EBI      0.030000
      7 C7       -185.4670  123.4100  -46.9090 c3        1 EBI     -0.309000
      8 C8       -184.4290  122.4290  -47.4310 c1        1 EBI      0.262000
      9 C9       -184.2280  123.8790  -47.6340 c3        1 EBI     -0.357000
     10 C10      -191.9020  125.3480  -53.3120 c1        1 EBI      0.129000
     11 C11      -191.7670  126.4510  -54.1780 c2        1 EBI     -0.604000
     12 C12      -192.7910  127.2290  -54.5470 c1        1 EBI      0.498000
     13 C13      -190.6750  124.5710  -51.4650 c2        1 EBI     -0.428000
     14 N14      -190.7590  124.4920  -52.9370 n4        1 EBI      0.138000
     15 C15      -189.4270  124.8050  -50.9110 c2        1 EBI      0.097000
     16 N16      -188.2610  124.9600  -51.5790 n2        1 EBI     -0.369000
     17 N17      -189.5710  124.6290  -53.6620 n2        1 EBI     -0.393000
     18 C18      -188.3980  124.8750  -52.9880 c2        1 EBI      0.249000
     19 C19      -184.4820  125.3870  -51.8580 c2        1 EBI     -0.191500
     20 C20      -183.9130  124.3590  -52.4130 c1        1 EBI     -0.161000
     21 C21      -183.3240  123.3440  -52.9660 c2        1 EBI     -0.191500
     22 C22       433.2220 -278.1000  116.7490 c1        1 EBI     -0.318000
     23 N23      -187.2570  125.0730  -53.7280 nh        1 EBI     -0.330000
     24 C28       432.7230 -276.5440  113.9880 c2        1 EBI     -0.244000
     25 C29       433.7950 -275.6310  113.9040 c2        1 EBI     -0.031000
     26 C30       433.5230 -274.3090  113.5880 c2        1 EBI     -0.191000
     27 C31       432.1680 -273.9270  113.3620 c2        1 EBI      0.225000
     28 N32       431.1210 -274.8070  113.4430 n2        1 EBI     -0.124000
     29 C33       431.4020 -276.0750  113.7470 c2        1 EBI      0.017000
     30 F34       431.8830 -272.6490  113.0550 f         1 EBI     -0.023000
     31 H3       -186.5410  123.9570  -49.6930 ha        1 EBI      0.213000
     32 HN6      -188.8170  125.7410  -49.1670 hn        1 EBI      0.267500
     33 H7       -183.4560  124.4210  -47.0490 hc        1 EBI      0.167500
     34 H8       -184.9230  121.3890  -49.4480 ha        1 EBI      0.004750
     35 H8A      -185.3100  121.9490  -49.4750 ha        1 EBI      0.004750
     36 H9       -184.3140  124.3100  -48.6520 hc        1 EBI      0.167500
     37 H9A      -185.4820  123.5400  -45.7990 hc        1 EBI      0.191000
     38 H10      -191.1140  123.5340  -53.1580 hn        1 EBI      0.261000
     39 H11      -190.7830  126.7310  -54.6390 ha        1 EBI      0.235000
     40 H12      -191.6300  124.4390  -50.9430 hx        1 EBI      0.204000
     41 H19      -184.1680  126.4200  -52.0740 ha        1 EBI      0.137750
     42 H19A     -187.2790  124.9270  -54.7100 hn        1 EBI      0.259500
     43 H20      -186.3750  125.1430  -53.2690 hn        1 EBI      0.259500
     44 H20A     -185.2990  125.2860  -51.1270 ha        1 EBI      0.137750
     45 H21      -183.6630  122.9060  -53.9170 ha        1 EBI      0.137750
     46 H21A     -182.4420  122.8620  -52.5160 ha        1 EBI      0.137750
     47 HN25      433.9630 -278.1390  114.2920 hn        1 EBI      0.263000
     48 H27         7.2220  -27.3310   13.9980 ha        1 EBI      0.004750
     49 H27A        6.7830  -26.8570   13.7960 ha        1 EBI      0.004750
     50 H27B      434.4720 -277.7890  118.6190 ha        1 EBI      0.273000
     51 H29       434.8390 -275.9450  114.0780 ha        1 EBI      0.166000
     52 H30       434.3240 -273.5570  113.5070 ha        1 EBI      0.199000
     53 H33       430.5210 -276.7500  113.8050 h4        1 EBI      0.202000
     54 HN1      -189.0210  122.7770  -49.4090 hx        1 EBI      0.199000
     55 C24       432.3650 -278.3300  115.6590 c2        1 EBI      0.413000
     56 N25       432.9550 -277.9490  114.2960 n4        1 EBI     -0.039000
     57 O26       431.2380 -278.7960  115.6220 o         1 EBI     -0.143000
     58 H62      -190.3050  124.9700  -49.0560 hn        1 EBI      0.267500
     59 H252      432.4990 -278.5210  113.5700 hn        1 EBI      0.263000
     60 C27       433.8800 -277.9350  117.7380 c1        1 EBI      0.092000
@<TRIPOS>BOND
     1    1    2 1   
     2    1    5 1   
     3    2    3 1   
     4    2    6 1   
     5    2   54 1   
     6    3    4 1   
     7    3   31 1   
     8    4    5 1   
     9    4    7 1   
    10    6   15 1   
    11    6   32 1   
    12    6   58 1   
    13    7    8 1   
    14    7    9 1   
    15    7   37 1   
    16    8    9 1   
    17    9   33 1   
    18    9   36 1   
    19   10   11 1   
    20   10   14 1   
    21   11   12 1   
    22   11   39 1   
    23   13   14 1   
    24   13   15 1   
    25   13   40 1   
    26   14   17 1   
    27   14   38 1   
    28   15   16 1   
    29   16   18 1   
    30   17   18 1   
    31   18   23 1   
    32   19   20 1   
    33   19   41 1   
    34   19   44 1   
    35   20   21 1   
    36   21   45 1   
    37   21   46 1   
    38   22   55 1   
    39   22   60 1   
    40   23   42 1   
    41   23   43 1   
    42   24   25 1   
    43   24   29 1   
    44   24   56 1   
    45   25   26 1   
    46   25   51 1   
    47   26   27 1   
    48   26   52 1   
    49   27   28 1   
    50   27   30 1   
    51   28   29 1   
    52   29   53 1   
    53   34   35 1   
    54   47   56 1   
    55   48   49 1   
    56   50   60 1   
    57   55   56 1   
    58   55   57 1   
    59   56   59 1   
@<TRIPOS>SUBSTRUCTURE
     1 EBI         1 TEMP              0 ****  ****    0 ROOT
