@<TRIPOS>MOLECULE
EBI
   58    61     1     0     0
SMALL
bcc


@<TRIPOS>ATOM
      1 N1          1.0470    1.1660   -0.0590 n2        1 EBI     -0.057000
      2 C2          0.9820   -0.3550   -0.3050 c3        1 EBI     -0.018000
      3 C3          1.0260   -0.8980    1.1360 c2        1 EBI     -0.191000
      4 C4          1.0660    0.1870    1.9590 c2        1 EBI     -0.075000
      5 N5          1.0730    1.4170    1.1350 n2        1 EBI      0.015000
      6 N6          1.9670   -0.9150   -1.1990 n3        1 EBI     -0.243000
      7 C7          1.0830    0.2710    3.4130 cx        1 EBI     -0.112000
      8 C8          0.5550   -0.8830    4.2340 cx        1 EBI     -0.201000
      9 C9          2.0270   -0.6140    4.1960 cx        1 EBI     -0.201000
     10 C10         5.9980   -0.1580   -3.1340 c1        1 EBI      0.051000
     11 C11         6.3550    1.1200   -3.1300 c1        1 EBI     -0.668000
     12 C12         6.7160    2.3280   -3.2450 c1        1 EBI      0.116000
     13 C13         4.2580   -1.3680   -1.9900 c3        1 EBI     -0.142000
     14 N14         5.6940   -0.9150   -1.8690 n4        1 EBI      0.043000
     15 C15         3.3360   -0.7230   -0.9480 c2        1 EBI      0.119000
     16 N16         3.7730   -0.1310    0.1430 n2        1 EBI     -0.234000
     17 N17         6.0940   -0.3920   -0.6420 n2        1 EBI     -0.258000
     18 C18         5.2060   -0.1080    0.3130 c2        1 EBI      0.136000
     19 C19         5.7900   -1.4240    4.3030 c3        1 EBI     -0.238000
     20 C20         6.6780   -0.3060    4.4280 c1        1 EBI     -0.112000
     21 C21         7.2780    0.5430    3.4460 c3        1 EBI     -0.190000
     22 C22         7.0500    0.4210    1.9100 c3        1 EBI      0.018000
     23 N23         5.6380    0.1640    1.6340 n3        1 EBI     -0.261000
     24 C27         7.5560    1.7380    1.2850 c3        1 EBI     -0.241000
     25 C28         8.1640   -2.8430    0.2500 c3        1 EBI     -0.083000
     26 C29         8.9320   -3.9990    0.8220 c2        1 EBI     -0.005000
     27 C30         8.9300   -5.1990    0.1960 c2        1 EBI     -0.294000
     28 C31         8.0460   -5.3860   -0.9500 c2        1 EBI      0.315000
     29 N32         7.2250   -4.4220   -1.4380 n2        1 EBI     -0.249000
     30 C33         7.2360   -3.2150   -0.8890 c1        1 EBI     -0.096000
     31 F34         8.0370   -6.5950   -1.5280 f         1 EBI     -0.043000
     32 H3          1.0160   -1.9580    1.3650 ha        1 EBI      0.175000
     33 HN6         1.7320   -0.8050   -2.1670 hn        1 EBI      0.228000
     34 H7          2.5250   -0.1910    5.0870 hc        1 EBI      0.115250
     35 H8          2.6850   -1.3090    3.6430 hc        1 EBI      0.115250
     36 H8A         0.1590   -1.7730    3.7130 hc        1 EBI      0.115250
     37 H9          0.9070    1.2980    3.8000 hc        1 EBI      0.148000
     38 H9A        -0.0140   -0.6540    5.1530 hc        1 EBI      0.115250
     39 H10         6.2970   -1.7940   -1.9480 hn        1 EBI      0.309000
     40 H11         3.9120   -1.1310   -3.0370 hx        1 EBI      0.154500
     41 H12         4.2200   -2.4860   -1.8460 hx        1 EBI      0.154500
     42 H19         5.0340    0.7890    2.1320 hn        1 EBI      0.229000
     43 H19A        4.7810   -1.0660    4.6620 hc        1 EBI      0.106000
     44 H20         5.6540   -1.8830    3.2920 hc        1 EBI      0.106000
     45 H20A        6.1260   -2.2250    5.0150 hc        1 EBI      0.106000
     46 H21         6.9900    1.5960    3.7530 hc        1 EBI      0.160500
     47 H21A        8.3970    0.4730    3.6150 hc        1 EBI      0.160500
     48 HN25        6.5710   -2.1700    1.3580 hn        1 EBI      0.223000
     49 H27         8.6120    1.9110    1.6050 hc        1 EBI      0.105667
     50 H27A        6.9250    2.5930    1.6270 hc        1 EBI      0.105667
     51 H27B        7.5340    1.6930    0.1700 hc        1 EBI      0.105667
     52 H29         9.5190   -3.8250    1.7400 ha        1 EBI      0.168000
     53 H30         9.5310   -6.0540    0.5370 ha        1 EBI      0.171000
     54 H33         8.9700   -2.2190   -0.2990 h1        1 EBI      0.207000
     55 HN1        -0.0370   -0.5600   -0.7550 h2        1 EBI      0.152000
     56 C24         8.0000   -0.6920    1.3930 c2        1 EBI      0.311000
     57 N25         7.5500   -2.0120    1.2630 n         1 EBI     -0.309000
     58 O26         9.1950   -0.4290    1.1700 o         1 EBI     -0.344000
@<TRIPOS>BOND
     1    1    2 1   
     2    1    5 1   
     3    2    3 1   
     4    2    6 1   
     5    2   55 1   
     6    3    4 1   
     7    3   32 1   
     8    4    5 1   
     9    4    7 1   
    10    6   15 1   
    11    6   33 1   
    12    7    8 1   
    13    7    9 1   
    14    7   37 1   
    15    8    9 1   
    16    8   36 1   
    17    8   38 1   
    18    9   34 1   
    19    9   35 1   
    20   10   11 1   
    21   10   14 1   
    22   11   12 1   
    23   13   14 1   
    24   13   15 1   
    25   13   40 1   
    26   13   41 1   
    27   14   17 1   
    28   14   39 1   
    29   15   16 1   
    30   16   18 1   
    31   17   18 1   
    32   18   23 1   
    33   19   20 1   
    34   19   43 1   
    35   19   44 1   
    36   19   45 1   
    37   20   21 1   
    38   21   22 1   
    39   21   46 1   
    40   21   47 1   
    41   22   23 1   
    42   22   24 1   
    43   22   56 1   
    44   23   42 1   
    45   24   49 1   
    46   24   50 1   
    47   24   51 1   
    48   25   26 1   
    49   25   30 1   
    50   25   54 1   
    51   25   57 1   
    52   26   27 1   
    53   26   52 1   
    54   27   28 1   
    55   27   53 1   
    56   28   29 1   
    57   28   31 1   
    58   29   30 1   
    59   48   57 1   
    60   56   57 1   
    61   56   58 1   
@<TRIPOS>SUBSTRUCTURE
     1 EBI         1 TEMP              0 ****  ****    0 ROOT
