@<TRIPOS>MOLECULE
EBI
   58    63     1     0     0
SMALL
bcc


@<TRIPOS>ATOM
      1 N1          3.7770   -1.0600    0.9950 na        1 EBI      0.002400
      2 C2          4.0200    0.2970    0.6890 cc        1 EBI      0.105300
      3 C3          5.4300    0.4510    0.6700 cd        1 EBI     -0.322300
      4 C4          5.9440   -0.8720    0.9440 cd        1 EBI      0.358600
      5 N5          4.9070   -1.7510    1.1050 nc        1 EBI     -0.518800
      6 N6          3.0630    1.3020    0.5450 nh        1 EBI     -0.708300
      7 C7          7.3630   -1.2010    1.0280 cx        1 EBI     -0.162000
      8 C8          7.8590   -2.2230    2.0230 cx        1 EBI     -0.117400
      9 C9          7.8740   -2.5430    0.5600 cx        1 EBI     -0.117400
     10 C10        -0.8810    3.3910   -0.9430 cc        1 EBI     -0.107100
     11 C11         0.0780    4.3730   -0.5990 cd        1 EBI     -0.191000
     12 C12         1.2570    3.7180   -0.1620 cd        1 EBI     -0.135000
     13 C13         1.0160    2.3300   -0.2420 cc        1 EBI     -0.297600
     14 N14        -0.3180    2.1390   -0.7260 na        1 EBI      0.237200
     15 C15         1.7840    1.1260    0.0400 cc        1 EBI      0.771200
     16 N16         1.2530   -0.0960   -0.1540 nd        1 EBI     -0.832000
     17 N17        -0.8710    0.9390   -0.9210 nc        1 EBI     -0.605800
     18 C18        -0.0820   -0.1420   -0.6250 cd        1 EBI      0.869900
     19 C19         0.0990   -2.6170   -0.4440 c3        1 EBI      0.204800
     20 C20        -0.7410   -3.8160   -0.9120 c3        1 EBI     -0.093400
     21 C21        -1.9440   -3.2370   -1.6460 c3        1 EBI     -0.081400
     22 C22        -1.7180   -1.6960   -1.7180 c3        1 EBI      0.167200
     23 N23        -0.6900   -1.4150   -0.6990 nh        1 EBI     -0.749300
     24 C27        -1.3040   -1.3210   -3.1480 c3        1 EBI     -0.111100
     25 C28        -4.5700   -0.0120    0.2740 ca        1 EBI     -0.057700
     26 C29        -5.7310    0.1290   -0.5150 ca        1 EBI     -0.102000
     27 C30        -6.8380    0.7880    0.0080 ca        1 EBI     -0.244300
     28 C31        -6.7690    1.3000    1.3260 ca        1 EBI      0.573500
     29 N32        -5.6620    1.1800    2.1140 nb        1 EBI     -0.664000
     30 C33        -4.6080    0.5470    1.5910 ca        1 EBI      0.372200
     31 F34        -7.8430    1.9450    1.8500 f         1 EBI     -0.225200
     32 H3          6.0030    1.3520    0.4960 ha        1 EBI      0.167000
     33 HN6         3.4240    2.2330    0.5350 hn        1 EBI      0.467800
     34 H7          7.9990   -0.3110    0.8400 hc        1 EBI      0.085700
     35 H8          8.8130   -2.0260    2.5430 hc        1 EBI      0.075950
     36 H8A         7.1280   -2.7320    2.6760 hc        1 EBI      0.075950
     37 H9          7.1540   -3.2820    0.1650 hc        1 EBI      0.075950
     38 H9A         8.8390   -2.5760    0.0240 hc        1 EBI      0.075950
     39 H10        -1.9000    3.5050   -1.3170 h4        1 EBI      0.192000
     40 H11        -0.0810    5.4470   -0.6620 ha        1 EBI      0.165000
     41 H12         2.1740    4.1920    0.1750 ha        1 EBI      0.153000
     42 H19         0.3080   -2.6680    0.6580 h1        1 EBI      0.058200
     43 H19A        1.0830   -2.6030   -0.9900 h1        1 EBI      0.058200
     44 H20        -0.1350   -4.4690   -1.5860 hc        1 EBI      0.059200
     45 H20A       -1.0650   -4.4310   -0.0370 hc        1 EBI      0.059200
     46 H21        -2.0360   -3.6560   -2.6770 hc        1 EBI      0.068200
     47 H21A       -2.8910   -3.4650   -1.0960 hc        1 EBI      0.068200
     48 HN25       -2.6930   -0.7370    0.5490 hn        1 EBI      0.333500
     49 H27        -2.1130   -1.6360   -3.8520 hc        1 EBI      0.061033
     50 H27A       -1.1650   -0.2210   -3.2570 hc        1 EBI      0.061033
     51 H27B       -0.3560   -1.8430   -3.4210 hc        1 EBI      0.061033
     52 H29        -5.7730   -0.2710   -1.5430 ha        1 EBI      0.183000
     53 H30        -7.7560    0.9140   -0.5820 ha        1 EBI      0.160000
     54 H33        -3.7330    0.4770    2.2650 h4        1 EBI      0.027100
     55 HN1         2.9030   -1.5350    0.9440 hn        1 EBI      0.339700
     56 C24        -3.0870   -1.0120   -1.4440 c         1 EBI      0.681100
     57 N25        -3.4140   -0.6890   -0.1380 n         1 EBI     -0.437100
     58 O26        -3.8760   -0.8590   -2.3940 o         1 EBI     -0.595100
@<TRIPOS>BOND
     1    1    2 1   
     2    1    5 1   
     3    1   55 1   
     4    2    3 2   
     5    2    6 1   
     6    3    4 1   
     7    3   32 1   
     8    4    5 2   
     9    4    7 1   
    10    6   15 1   
    11    6   33 1   
    12    7    8 1   
    13    7    9 1   
    14    7   34 1   
    15    8    9 1   
    16    8   35 1   
    17    8   36 1   
    18    9   37 1   
    19    9   38 1   
    20   10   11 2   
    21   10   14 1   
    22   10   39 1   
    23   11   12 1   
    24   11   40 1   
    25   12   13 2   
    26   12   41 1   
    27   13   14 1   
    28   13   15 1   
    29   14   17 1   
    30   15   16 2   
    31   16   18 1   
    32   17   18 2   
    33   18   23 1   
    34   19   20 1   
    35   19   23 1   
    36   19   42 1   
    37   19   43 1   
    38   20   21 1   
    39   20   44 1   
    40   20   45 1   
    41   21   22 1   
    42   21   46 1   
    43   21   47 1   
    44   22   23 1   
    45   22   24 1   
    46   22   56 1   
    47   24   49 1   
    48   24   50 1   
    49   24   51 1   
    50   25   26 ar  
    51   25   30 ar  
    52   25   57 1   
    53   26   27 ar  
    54   26   52 1   
    55   27   28 ar  
    56   27   53 1   
    57   28   29 ar  
    58   28   31 1   
    59   29   30 ar  
    60   30   54 1   
    61   48   57 1   
    62   56   57 1   
    63   56   58 2   
@<TRIPOS>SUBSTRUCTURE
     1 EBI         1 TEMP              0 ****  ****    0 ROOT
