@<TRIPOS>MOLECULE
EBM
   26    26     1     0     0
SMALL
bcc


@<TRIPOS>ATOM
      1 I           1.5260   -2.3670    1.0910 i         1 EBM     -0.098900
      2 N           2.4040   -0.2700    3.5730 n4        1 EBM     -0.688800
      3 O           1.3150    1.5540    2.5820 o         1 EBM     -0.389100
      4 C1          2.7580   -0.8780    0.4890 ca        1 EBM      0.042900
      5 C2          2.8740    0.3390    1.1780 ca        1 EBM     -0.180600
      6 C3          3.6950    1.3610    0.6810 ca        1 EBM     -0.066000
      7 C4          4.4220    1.1590   -0.4920 ca        1 EBM     -0.101000
      8 C5          4.3200   -0.0520   -1.1730 ca        1 EBM     -0.067000
      9 C6          3.4860   -1.0630   -0.6850 ca        1 EBM     -0.084000
     10 C7          2.1080    0.6460    2.4000 c         1 EBM      0.569700
     11 C8          1.8540    0.2040    4.8980 c3        1 EBM      0.130500
     12 C9          1.7780   -0.9510    5.8870 c3        1 EBM     -0.131600
     13 C10         2.6890    1.3410    5.4690 c3        1 EBM     -0.131600
     14 HN          3.4210   -0.3730    3.6500 hn        1 EBM      0.462300
     15 H3          3.7560    2.3280    1.2070 ha        1 EBM      0.163000
     16 H4          5.0680    1.9650   -0.8810 ha        1 EBM      0.173000
     17 H5          4.8890   -0.2160   -2.1040 ha        1 EBM      0.173000
     18 H6          3.4040   -2.0100   -1.2480 ha        1 EBM      0.177000
     19 H8          0.8060    0.5850    4.6860 hx        1 EBM      0.122700
     20 H9          1.3140   -0.5680    6.8320 hc        1 EBM      0.077367
     21 H9A         2.7930   -1.3480    6.1340 hc        1 EBM      0.077367
     22 H9B         1.1400   -1.7840    5.5040 hc        1 EBM      0.077367
     23 H10         2.7220    2.2100    4.7680 hc        1 EBM      0.077367
     24 H10A        2.2100    1.6820    6.4220 hc        1 EBM      0.077367
     25 H10B        3.7310    1.0100    5.7020 hc        1 EBM      0.077367
     26 HN3         2.0010   -1.1970    3.3550 hn        1 EBM      0.462300
@<TRIPOS>BOND
     1    1    4 1   
     2    2   10 1   
     3    2   11 1   
     4    2   14 1   
     5    2   26 1   
     6    3   10 2   
     7    4    5 ar  
     8    4    9 ar  
     9    5    6 ar  
    10    5   10 1   
    11    6    7 ar  
    12    6   15 1   
    13    7    8 ar  
    14    7   16 1   
    15    8    9 ar  
    16    8   17 1   
    17    9   18 1   
    18   11   12 1   
    19   11   13 1   
    20   11   19 1   
    21   12   20 1   
    22   12   21 1   
    23   12   22 1   
    24   13   23 1   
    25   13   24 1   
    26   13   25 1   
@<TRIPOS>SUBSTRUCTURE
     1 EBM         1 TEMP              0 ****  ****    0 ROOT
