@<TRIPOS>MOLECULE
EBM
   26    26     1     0     0
SMALL
bcc


@<TRIPOS>ATOM
      1 I           1.2950   -2.1150    0.9280 i         1 EBM     -0.098900
      2 N           2.3490   -0.2780    3.5420 ny        1 EBM     -0.688800
      3 O           1.4800    1.7100    2.6540 o         1 EBM     -0.389100
      4 C1          2.6900   -0.7350    0.4310 ca        1 EBM      0.042900
      5 C2          2.9240    0.4190    1.1950 ca        1 EBM     -0.180600
      6 C3          3.8580    1.3740    0.7700 ca        1 EBM     -0.066000
      7 C4          4.5800    1.1650   -0.4050 ca        1 EBM     -0.101000
      8 C5          4.3600    0.0150   -1.1600 ca        1 EBM     -0.067000
      9 C6          3.4130   -0.9280   -0.7440 ca        1 EBM     -0.084000
     10 C7          2.1740    0.7330    2.4250 c         1 EBM      0.569700
     11 C8          1.8280    0.1720    4.8880 c3        1 EBM      0.130500
     12 C9          1.6120   -1.0260    5.8030 c3        1 EBM     -0.131600
     13 C10         2.7690    1.1760    5.5380 c3        1 EBM     -0.131600
     14 HN          3.3480   -0.4930    3.6250 hn        1 EBM      0.462300
     15 H3          4.0140    2.2950    1.3560 ha        1 EBM      0.163000
     16 H4          5.3150    1.9180   -0.7360 ha        1 EBM      0.173000
     17 H5          4.9250   -0.1540   -2.0930 ha        1 EBM      0.173000
     18 H6          3.2400   -1.8250   -1.3650 ha        1 EBM      0.177000
     19 H8          0.8310    0.6750    4.6880 hx        1 EBM      0.122700
     20 H9          1.1740   -0.6530    6.7640 hc        1 EBM      0.077367
     21 H9A         2.5740   -1.5430    6.0370 hc        1 EBM      0.077367
     22 H9B         0.8960   -1.7610    5.3610 hc        1 EBM      0.077367
     23 H10         2.9070    2.0780    4.8930 hc        1 EBM      0.077367
     24 H10A        2.3120    1.5090    6.5050 hc        1 EBM      0.077367
     25 H10B        3.7650    0.7230    5.7620 hc        1 EBM      0.077367
     26 HN3         1.8540   -1.1420    3.2630 hn        1 EBM      0.462300
@<TRIPOS>BOND
     1    1    4 1   
     2    2   10 1   
     3    2   11 1   
     4    2   14 1   
     5    2   26 1   
     6    3   10 2   
     7    4    5 ar  
     8    4    9 ar  
     9    5    6 ar  
    10    5   10 1   
    11    6    7 ar  
    12    6   15 1   
    13    7    8 ar  
    14    7   16 1   
    15    8    9 ar  
    16    8   17 1   
    17    9   18 1   
    18   11   12 1   
    19   11   13 1   
    20   11   19 1   
    21   12   20 1   
    22   12   21 1   
    23   12   22 1   
    24   13   23 1   
    25   13   24 1   
    26   13   25 1   
@<TRIPOS>SUBSTRUCTURE
     1 EBM         1 TEMP              0 ****  ****    0 ROOT
