@<TRIPOS>MOLECULE
EBM
   25    23     1     0     0
SMALL
bcc


@<TRIPOS>ATOM
      1 I           3.3270   -0.3630    0.9200 i         1 EBM      0.156000
      2 N          -0.7100    0.3750    0.6360 n         1 EBM     -0.370000
      3 O           0.2640   -1.6410    1.1690 o         1 EBM     -0.348000
      4 C1          2.2950   -0.6040   -0.9210 c2        1 EBM     -0.239000
      5 C2          0.9080   -0.7890   -0.9270 c2        1 EBM     -0.080000
      6 C3          0.2420   -0.9920   -2.1200 c1        1 EBM     -0.099000
      7 C4          0.9560   -1.0110   -3.3270 c1        1 EBM     -0.118500
      8 C5          2.3340   -0.8260   -3.3210 c1        1 EBM     -0.118500
      9 C6          3.0040   -0.6220   -2.1170 c1        1 EBM     -0.104000
     10 C7          0.1450   -0.7410    0.3540 c2        1 EBM      0.342000
     11 C8         -1.2510    0.5540    1.9680 c3        1 EBM      0.018000
     12 C9         -2.7340    0.1090    1.9850 c3        1 EBM     -0.228500
     13 C10        -1.1530    2.0440    2.3670 c3        1 EBM     -0.228500
     14 HN         -0.9160    0.9850   -0.0360 hn        1 EBM      0.225000
     15 H3         -0.7300   -1.1220   -2.1230 ha        1 EBM      0.150000
     16 H4          0.4900   -1.1520   -4.1630 ha        1 EBM      0.140500
     17 H5          2.8330   -0.8390   -4.1630 ha        1 EBM      0.140500
     18 H6          3.9590   -0.4940   -2.1140 ha        1 EBM      0.148000
     19 H8         -0.7410    0.0120    2.6030 h1        1 EBM      0.129000
     20 H9         -3.2440    0.6540    1.3590 hc        1 EBM      0.080833
     21 H9A        -3.1000    0.2230    2.8910 hc        1 EBM      0.080833
     22 H9B        -2.7960   -0.8440    1.7200 hc        1 EBM      0.080833
     23 H10        -1.6360    2.1910    3.2160 hc        1 EBM      0.080833
     24 H10A       -1.5520    2.5970    1.6640 hc        1 EBM      0.080833
     25 H10B       -0.1960    2.2940    2.4820 hc        1 EBM      0.080833
@<TRIPOS>BOND
     1    1    4 1   
     2    2   10 1   
     3    2   11 1   
     4    2   14 1   
     5    3   10 1   
     6    4    5 1   
     7    4    9 1   
     8    5    6 1   
     9    5   10 1   
    10    6   15 1   
    11    7    8 1   
    12    7   16 1   
    13    8   17 1   
    14    9   18 1   
    15   11   12 1   
    16   11   13 1   
    17   11   19 1   
    18   12   20 1   
    19   12   21 1   
    20   12   22 1   
    21   13   23 1   
    22   13   24 1   
    23   13   25 1   
@<TRIPOS>SUBSTRUCTURE
     1 EBM         1 TEMP              0 ****  ****    0 ROOT
