@<TRIPOS>MOLECULE
EBM
   25    25     1     0     0
SMALL
bcc


@<TRIPOS>ATOM
      1 I          -0.6530    0.5910   -1.6940 i         1 EBM     -0.129900
      2 N           2.5820   -0.2530   -0.1150 n         1 EBM     -0.560900
      3 O           1.3610    0.3970    1.7230 o         1 EBM     -0.587100
      4 C1         -0.5330   -1.1240   -0.6270 ca        1 EBM      0.046900
      5 C2          0.4430   -1.3390    0.3490 ca        1 EBM     -0.100600
      6 C3          0.4640   -2.5400    1.0690 ca        1 EBM     -0.099000
      7 C4         -0.4840   -3.5280    0.8100 ca        1 EBM     -0.116000
      8 C5         -1.4570   -3.3170   -0.1660 ca        1 EBM     -0.121000
      9 C6         -1.4820   -2.1190   -0.8790 ca        1 EBM     -0.104000
     10 C7          1.4740   -0.3100    0.7040 c         1 EBM      0.668700
     11 C8          3.6440    0.7130    0.0750 c3        1 EBM      0.094700
     12 C9          5.0170    0.0410    0.1590 c3        1 EBM     -0.110600
     13 C10         3.6840    1.7740   -1.0270 c3        1 EBM     -0.110600
     14 HN          2.5890   -0.7710   -0.9590 hn        1 EBM      0.311500
     15 H3          1.2280   -2.6930    1.8470 ha        1 EBM      0.150000
     16 H4         -0.4650   -4.4700    1.3790 ha        1 EBM      0.141000
     17 H5         -2.2090   -4.0930   -0.3740 ha        1 EBM      0.140000
     18 H6         -2.2600   -1.9610   -1.6430 ha        1 EBM      0.148000
     19 H8          3.4480    1.2380    1.0610 h1        1 EBM      0.089700
     20 H9          5.2720   -0.4740   -0.7980 hc        1 EBM      0.041533
     21 H9A         5.7880    0.8230    0.3580 hc        1 EBM      0.041533
     22 H9B         5.0460   -0.7060    0.9860 hc        1 EBM      0.041533
     23 H10         3.8900    1.3120   -2.0220 hc        1 EBM      0.041533
     24 H10A        2.7170    2.3280   -1.0820 hc        1 EBM      0.041533
     25 H10B        4.4980    2.5030   -0.7990 hc        1 EBM      0.041533
@<TRIPOS>BOND
     1    1    4 1   
     2    2   10 1   
     3    2   11 1   
     4    2   14 1   
     5    3   10 2   
     6    4    5 ar  
     7    4    9 ar  
     8    5    6 ar  
     9    5   10 1   
    10    6    7 ar  
    11    6   15 1   
    12    7    8 ar  
    13    7   16 1   
    14    8    9 ar  
    15    8   17 1   
    16    9   18 1   
    17   11   12 1   
    18   11   13 1   
    19   11   19 1   
    20   12   20 1   
    21   12   21 1   
    22   12   22 1   
    23   13   23 1   
    24   13   24 1   
    25   13   25 1   
@<TRIPOS>SUBSTRUCTURE
     1 EBM         1 TEMP              0 ****  ****    0 ROOT
