@<TRIPOS>MOLECULE
EBM
   26    26     1     0     0
SMALL
bcc


@<TRIPOS>ATOM
      1 I           1.3720   -2.0840    0.8280 i         1 EBM     -0.098900
      2 N           2.3330   -0.3070    3.5190 n4        1 EBM     -0.688800
      3 O           1.4600    1.6930    2.6620 o         1 EBM     -0.389100
      4 C1          2.7610   -0.6730    0.4070 ca        1 EBM      0.042900
      5 C2          2.9590    0.4620    1.2080 ca        1 EBM     -0.180600
      6 C3          3.8920    1.4400    0.8340 ca        1 EBM     -0.066000
      7 C4          4.6470    1.2730   -0.3270 ca        1 EBM     -0.101000
      8 C5          4.4620    0.1410   -1.1180 ca        1 EBM     -0.067000
      9 C6          3.5170   -0.8240   -0.7540 ca        1 EBM     -0.084000
     10 C7          2.1740    0.7330    2.4260 c         1 EBM      0.569700
     11 C8          1.7700    0.0990    4.8620 c3        1 EBM      0.130500
     12 C9          1.5460   -1.1270    5.7380 c3        1 EBM     -0.131600
     13 C10         2.6790    1.0970    5.5650 c3        1 EBM     -0.131600
     14 HN          3.3320   -0.5110    3.6230 hn        1 EBM      0.462300
     15 H3          4.0200    2.3460    1.4490 ha        1 EBM      0.163000
     16 H4          5.3800    2.0440   -0.6180 ha        1 EBM      0.173000
     17 H5          5.0530    0.0060   -2.0400 ha        1 EBM      0.173000
     18 H6          3.3720   -1.7060   -1.4030 ha        1 EBM      0.177000
     19 H8          0.7720    0.5940    4.6480 hx        1 EBM      0.122700
     20 H9          0.8530   -1.8590    5.2560 hc        1 EBM      0.077367
     21 H9A         1.0770   -0.7870    6.6960 hc        1 EBM      0.077367
     22 H9B         2.5090   -1.6380    5.9840 hc        1 EBM      0.077367
     23 H10         2.8210    2.0180    4.9480 hc        1 EBM      0.077367
     24 H10A        2.1910    1.3960    6.5270 hc        1 EBM      0.077367
     25 H10B        3.6750    0.6500    5.8030 hc        1 EBM      0.077367
     26 HN3         1.8580   -1.1690    3.2030 hn        1 EBM      0.462300
@<TRIPOS>BOND
     1    1    4 1   
     2    2   10 1   
     3    2   11 1   
     4    2   14 1   
     5    2   26 1   
     6    3   10 2   
     7    4    5 ar  
     8    4    9 ar  
     9    5    6 ar  
    10    5   10 1   
    11    6    7 ar  
    12    6   15 1   
    13    7    8 ar  
    14    7   16 1   
    15    8    9 ar  
    16    8   17 1   
    17    9   18 1   
    18   11   12 1   
    19   11   13 1   
    20   11   19 1   
    21   12   20 1   
    22   12   21 1   
    23   12   22 1   
    24   13   23 1   
    25   13   24 1   
    26   13   25 1   
@<TRIPOS>SUBSTRUCTURE
     1 EBM         1 TEMP              0 ****  ****    0 ROOT
